MODEL 3
REMARK VINA RESULT: -6.797490488      2.657      4.675
REMARK  7 active torsions:
REMARK  status: ('A' for Active; 'I' for Inactive)
REMARK    1  A    between atoms: O1_1  and  C1_3
REMARK    2  A    between atoms: C1_3  and  C2_4
REMARK    3  A    between atoms: C3_6  and  O3_7
REMARK    4  A    between atoms: O3_7  and  C4_8
REMARK    5  A    between atoms: C7_11  and  O4_12
REMARK    6  A    between atoms: C11_17  and  O5_18
REMARK    7  A    between atoms: C12_20  and  O6_21
ROOT
HETATM    1  C2  UNL     1       5.299  -3.763  25.165  1.00  0.00     0.179 C
HETATM    2  O2  UNL     1       4.731  -3.014  24.215  1.00  0.00    -0.351 OA
HETATM    3  C3  UNL     1       5.280  -2.960  22.974  1.00  0.00     0.263 C
HETATM    4  C10 UNL     1       6.688  -3.550  22.906  1.00  0.00     0.095 C
HETATM    5  C11 UNL     1       6.701  -4.953  23.442  1.00  0.00     0.154 C
HETATM    6  C12 UNL     1       6.030  -4.990  24.782  1.00  0.00     0.178 C
ENDROOT
BRANCH   3   7
HETATM    7  O3  UNL     1       4.419  -3.560  22.087  1.00  0.00    -0.352 OA
BRANCH   7   8
HETATM    8  C4  UNL     1       3.583  -2.731  21.406  1.00  0.00     0.147 C
HETATM    9  C5  UNL     1       3.160  -3.324  20.113  1.00  0.00     0.003 C
HETATM   10  C6  UNL     1       2.574  -2.531  19.236  1.00  0.00     0.003 C
HETATM   11  C7  UNL     1       2.312  -1.100  19.454  1.00  0.00     0.141 C
HETATM   12  C8  UNL     1       3.030  -0.474  20.589  1.00  0.00     0.038 C
HETATM   13  C9  UNL     1       4.064  -1.317  21.263  1.00  0.00     0.039 C
BRANCH  11  14
HETATM   14  O4  UNL     1       2.649  -0.463  18.233  1.00  0.00    -0.392 OA
ATOM     15  H4  UNL     1       2.011   0.234  18.127  1.00  0.00     0.210 HD
ENDBRANCH  11  14
ENDBRANCH   7   8
ENDBRANCH   3   7
BRANCH   1  16
HETATM   16  C1  UNL     1       4.201  -4.194  26.136  1.00  0.00     0.198 C
BRANCH  16  17
HETATM   17  O1  UNL     1       3.206  -3.219  26.168  1.00  0.00    -0.398 OA
ATOM     18  H1  UNL     1       3.249  -2.699  25.375  1.00  0.00     0.209 HD
ENDBRANCH  16  17
ENDBRANCH   1  16
BRANCH   5  19
HETATM   19  O5  UNL     1       6.061  -5.763  22.499  1.00  0.00    -0.393 OA
ATOM     20  H5  UNL     1       6.199  -6.665  22.763  1.00  0.00     0.210 HD
ENDBRANCH   5  19
BRANCH   6  21
HETATM   21  O6  UNL     1       5.233  -6.145  24.809  1.00  0.00    -0.390 OA
ATOM     22  H6  UNL     1       5.342  -6.661  25.598  1.00  0.00     0.210 HD
ENDBRANCH   6  21
TORSDOF 7
ENDMDL