MODEL 5
REMARK VINA RESULT: -6.092967074      2.589      5.318
REMARK  7 active torsions:
REMARK  status: ('A' for Active; 'I' for Inactive)
REMARK    1  A    between atoms: C2_2  and  C3_3
REMARK    2  A    between atoms: C4_4  and  O1_5
REMARK    3  A    between atoms: C5_7  and  O2_8
REMARK    4  A    between atoms: C6_10  and  O3_11
REMARK    5  A    between atoms: C7_13  and  O4_14
REMARK    6  A    between atoms: O4_14  and  C8_15
REMARK    7  A    between atoms: C12_20  and  O6_21
ROOT
HETATM    1  C3  UNL     1       5.358  -1.520  22.928  1.00  0.00     0.070 C
HETATM    2  C4  UNL     1       5.226  -2.794  22.167  1.00  0.00     0.159 C
HETATM    3  C5  UNL     1       6.267  -3.775  22.664  1.00  0.00     0.178 C
HETATM    4  C6  UNL     1       6.072  -4.033  24.160  1.00  0.00     0.181 C
HETATM    5  C7  UNL     1       6.227  -2.721  24.855  1.00  0.00     0.189 C
HETATM    6  C12 UNL     1       5.211  -1.688  24.417  1.00  0.00     0.160 C
ENDROOT
BRANCH   5   7
HETATM    7  O4  UNL     1       6.293  -2.838  26.258  1.00  0.00    -0.339 OA
BRANCH   7   8
HETATM    8  C8  UNL     1       6.008  -3.983  26.956  1.00  0.00     0.093 A
HETATM    9  C9  UNL     1       4.770  -4.257  27.501  1.00  0.00     0.063 A
HETATM   10  C10 UNL     1       4.875  -5.489  28.119  1.00  0.00     0.144 A
HETATM   11  O5  UNL     1       6.103  -5.948  27.963  1.00  0.00    -0.332 OA
HETATM   12  C11 UNL     1       6.797  -5.071  27.275  1.00  0.00     0.178 A
ENDBRANCH   7   8
ENDBRANCH   5   7
BRANCH   4  13
HETATM   13  O3  UNL     1       4.833  -4.610  24.307  1.00  0.00    -0.390 OA
ATOM     14  H3  UNL     1       4.854  -5.106  25.118  1.00  0.00     0.210 HD
ENDBRANCH   4  13
BRANCH   6  15
HETATM   15  O6  UNL     1       3.939  -1.928  24.860  1.00  0.00    -0.392 OA
ATOM     16  H6  UNL     1       3.430  -1.156  25.076  1.00  0.00     0.210 HD
ENDBRANCH   6  15
BRANCH   3  17
HETATM   17  O2  UNL     1       6.124  -5.005  22.027  1.00  0.00    -0.390 OA
ATOM     18  H2  UNL     1       5.266  -5.373  22.203  1.00  0.00     0.210 HD
ENDBRANCH   3  17
BRANCH   1  19
HETATM   19  C2  UNL     1       4.508  -0.414  22.454  1.00  0.00    -0.027 C
HETATM   20  C1  UNL     1       3.925  -0.312  21.281  1.00  0.00     0.007 C
ENDBRANCH   1  19
BRANCH   2  21
HETATM   21  O1  UNL     1       4.017  -3.423  22.223  1.00  0.00    -0.392 OA
ATOM     22  H1  UNL     1       3.726  -3.864  21.434  1.00  0.00     0.210 HD
ENDBRANCH   2  21
TORSDOF 7
ENDMDL