MODEL 1
REMARK VINA RESULT: -6.174340014      0.000      0.000
REMARK  9 active torsions:
REMARK  status: ('A' for Active; 'I' for Inactive)
REMARK    1  A    between atoms: C2_2  and  O1_4
REMARK    2  A    between atoms: O1_4  and  C4_5
REMARK    3  A    between atoms: C5_6  and  O2_7
REMARK    4  A    between atoms: C6_9  and  O3_10
REMARK    5  A    between atoms: C7_12  and  O4_13
REMARK    6  A    between atoms: C8_15  and  N1_16
REMARK    7  A    between atoms: N1_16  and  N2_18
REMARK    8  A    between atoms: N2_18  and  N3_19
REMARK    9  A    between atoms: C9_22  and  O5_23
ROOT
HETATM    1  C4  UNL     1       6.753  -3.249  26.089  1.00  0.00     0.184 C
HETATM    2  C5  UNL     1       7.234  -2.786  27.438  1.00  0.00     0.181 C
HETATM    3  C6  UNL     1       6.267  -3.342  28.471  1.00  0.00     0.180 C
HETATM    4  C7  UNL     1       6.617  -4.830  28.523  1.00  0.00     0.177 C
HETATM    5  C8  UNL     1       6.265  -5.457  27.231  1.00  0.00     0.177 C
HETATM    6  C9  UNL     1       6.117  -4.575  26.065  1.00  0.00     0.177 C
ENDROOT
BRANCH   5   7
HETATM    7  N1  UNL     1       7.315  -6.444  26.925  1.00  0.00    -0.243 N
ATOM      8  H1  UNL     1       7.169  -7.131  26.185  1.00  0.00     0.197 HD
BRANCH   7   9
HETATM    9  N2  UNL     1       8.365  -6.440  27.561  1.00  0.00    -0.248 NA
BRANCH   9  10
HETATM   10  N3  UNL     1       9.494  -6.693  27.975  1.00  0.00    -0.261 N
ATOM     11  H32 UNL     1       9.929  -6.618  27.056  1.00  0.00     0.193 HD
ATOM     12  H31 UNL     1      10.289  -6.919  28.571  1.00  0.00     0.193 HD
ENDBRANCH   9  10
ENDBRANCH   7   9
ENDBRANCH   5   7
BRANCH   4  13
HETATM   13  O4  UNL     1       5.956  -5.414  29.575  1.00  0.00    -0.391 OA
ATOM     14  H4  UNL     1       5.169  -5.838  29.254  1.00  0.00     0.210 HD
ENDBRANCH   4  13
BRANCH   6  15
HETATM   15  O5  UNL     1       6.542  -5.250  24.897  1.00  0.00    -0.391 OA
ATOM     16  H5  UNL     1       7.182  -5.904  25.148  1.00  0.00     0.210 HD
ENDBRANCH   6  15
BRANCH   3  17
HETATM   17  O3  UNL     1       6.423  -2.746  29.709  1.00  0.00    -0.390 OA
ATOM     18  H3  UNL     1       5.867  -1.982  29.814  1.00  0.00     0.210 HD
ENDBRANCH   3  17
BRANCH   1  19
HETATM   19  O1  UNL     1       5.933  -2.235  25.583  1.00  0.00    -0.376 OA
BRANCH  19  20
HETATM   20  C2  UNL     1       6.110  -1.986  24.254  1.00  0.00     0.114 C
HETATM   21  C1  UNL     1       4.792  -1.395  23.735  1.00  0.00     0.039 C
HETATM   22  C3  UNL     1       7.173  -0.955  23.959  1.00  0.00     0.039 C
ENDBRANCH  19  20
ENDBRANCH   1  19
BRANCH   2  23
HETATM   23  O2  UNL     1       7.259  -1.393  27.468  1.00  0.00    -0.390 OA
ATOM     24  H2  UNL     1       7.769  -1.070  26.733  1.00  0.00     0.210 HD
ENDBRANCH   2  23
TORSDOF 9
ENDMDL