MODEL 1
REMARK VINA RESULT: -6.525582049      0.000      0.000
REMARK  5 active torsions:
REMARK  status: ('A' for Active; 'I' for Inactive)
REMARK       I    between atoms: C2_2  and  N1_4
REMARK    1  A    between atoms: N1_4  and  C3_6
REMARK    2  A    between atoms: C3_6  and  C4_7
REMARK    3  A    between atoms: C3_6  and  C5_9
REMARK    4  A    between atoms: C6_10  and  O2_11
REMARK    5  A    between atoms: C8_15  and  O3_16
ROOT
HETATM    1  C5  UNL     1      -1.346 -12.647  73.890  1.00  0.00     0.074 A
HETATM    2  C6  UNL     1      -1.888 -12.494  72.631  1.00  0.00     0.104 A
HETATM    3  C7  UNL     1      -1.262 -11.417  72.011  1.00  0.00     0.048 A
HETATM    4  N2  UNL     1      -0.366 -10.949  72.876  1.00  0.00    -0.328 N
HETATM    5  C8  UNL     1      -0.399 -11.684  74.040  1.00  0.00     0.158 A
HETATM    6  C9  UNL     1       0.620  -9.912  72.760  1.00  0.00     0.131 C
HETATM    7  C10 UNL     1       0.719  -9.237  71.434  1.00  0.00     0.020 C
HETATM    8  C11 UNL     1       0.706 -10.267  70.325  1.00  0.00     0.002 C
HETATM    9  C12 UNL     1      -0.695 -10.415  69.760  1.00  0.00     0.006 C
HETATM   10  C13 UNL     1      -1.702 -10.952  70.686  1.00  0.00     0.060 C
ENDROOT
BRANCH   1  11
HETATM   11  C3  UNL     1      -1.658 -13.809  74.774  1.00  0.00     0.043 C
BRANCH  11  12
HETATM   12  N1  UNL     1      -2.959 -13.770  75.355  1.00  0.00    -0.329 N
HETATM   13  C2  UNL     1      -3.983 -14.659  74.830  1.00  0.00     0.217 C
HETATM   14  C1  UNL     1      -5.336 -14.705  75.300  1.00  0.00     0.117 C
HETATM   15  O1  UNL     1      -3.583 -15.427  73.881  1.00  0.00    -0.274 OA
ATOM     16  H1  UNL     1      -3.167 -13.131  76.123  1.00  0.00     0.168 HD
ENDBRANCH  11  12
BRANCH  11  17
HETATM   17  C4  UNL     1      -0.562 -14.357  75.582  1.00  0.00     0.173 C
HETATM   18 CL1  UNL     1      -1.068 -15.958  76.239  1.00  0.00    -0.124 Cl
ENDBRANCH  11  17
ENDBRANCH   1  11
BRANCH   2  19
HETATM   19  O2  UNL     1      -2.898 -13.289  72.072  1.00  0.00    -0.358 OA
ATOM     20  H2  UNL     1      -3.778 -13.001  71.864  1.00  0.00     0.217 HD
ENDBRANCH   2  19
BRANCH   5  21
HETATM   21  O3  UNL     1       0.446 -11.411  75.135  1.00  0.00    -0.345 OA
ATOM     22  H3  UNL     1       1.368 -11.180  75.150  1.00  0.00     0.219 HD
ENDBRANCH   5  21
TORSDOF 5
ENDMDL