MODEL 2
REMARK VINA RESULT: -7.176836487      4.097      5.286
REMARK  5 active torsions:
REMARK  status: ('A' for Active; 'I' for Inactive)
REMARK    1  A    between atoms: C2_2  and  N1_3
REMARK       I    between atoms: N1_3  and  C3_5
REMARK    2  A    between atoms: C3_5  and  C4_7
REMARK    3  A    between atoms: C6_9  and  C7_10
REMARK    4  A    between atoms: C7_10  and  O2_11
REMARK    5  A    between atoms: C13_18  and  N2_19
ROOT
HETATM    1  C7  UNL     1      -1.423 -10.917  70.353  1.00  0.00     0.159 C
HETATM    2  C8  UNL     1      -2.301 -11.877  71.229  1.00  0.00     0.084 C
HETATM    3  C9  UNL     1      -2.479 -11.473  72.628  1.00  0.00    -0.023 C
HETATM    4  C10 UNL     1      -1.538 -11.685  73.730  1.00  0.00    -0.008 C
HETATM    5  C11 UNL     1      -0.103 -11.461  73.692  1.00  0.00    -0.024 C
HETATM    6  C12 UNL     1       0.589 -10.226  73.338  1.00  0.00     0.072 C
HETATM    7  C13 UNL     1       0.685  -9.862  71.826  1.00  0.00     0.256 C
HETATM    8  C14 UNL     1      -0.465 -10.425  71.248  1.00  0.00    -0.106 C
ENDROOT
BRANCH   1   9
HETATM    9  C6  UNL     1      -2.362 -10.000  69.674  1.00  0.00     0.081 A
HETATM   10  C5  UNL     1      -2.353  -8.607  69.819  1.00  0.00     0.076 A
HETATM   11  C4  UNL     1      -3.378  -8.064  69.059  1.00  0.00     0.168 A
HETATM   12  O3  UNL     1      -3.965  -9.076  68.496  1.00  0.00    -0.232 OA
HETATM   13  N3  UNL     1      -3.390 -10.219  68.840  1.00  0.00    -0.261 N
ATOM     14  H3  UNL     1      -3.688 -11.139  68.516  1.00  0.00     0.194 HD
BRANCH  11  15
HETATM   15  C3  UNL     1      -3.673  -6.614  68.959  1.00  0.00     0.277 C
HETATM   16  N1  UNL     1      -3.611  -5.868  67.788  1.00  0.00    -0.356 N
ATOM     17  H1  UNL     1      -3.339  -6.333  66.922  1.00  0.00     0.162 HD
HETATM   18  O1  UNL     1      -4.029  -5.991  70.039  1.00  0.00    -0.265 OA
BRANCH  16  19
HETATM   19  C2  UNL     1      -3.918  -4.465  67.755  1.00  0.00     0.118 C
HETATM   20  C1  UNL     1      -3.672  -3.790  66.434  1.00  0.00     0.026 C
ENDBRANCH  16  19
ENDBRANCH  11  15
ENDBRANCH   1   9
BRANCH   1  21
HETATM   21  O2  UNL     1      -0.833 -11.761  69.383  1.00  0.00    -0.372 OA
ATOM     22  H2  UNL     1      -1.200 -12.632  69.474  1.00  0.00     0.212 HD
ENDBRANCH   1  21
BRANCH   7  23
HETATM   23  N2  UNL     1       0.862  -8.438  71.792  1.00  0.00    -0.065 N
ATOM     24  H23 UNL     1       0.030  -7.926  71.500  1.00  0.00     0.275 HD
ATOM     25  H22 UNL     1       0.946  -8.011  72.715  1.00  0.00     0.275 HD
ATOM     26  H21 UNL     1       1.673  -8.284  71.192  1.00  0.00     0.275 HD
ENDBRANCH   7  23
TORSDOF 5
ENDMDL