MODEL 4
REMARK VINA RESULT: -6.339901335      3.207      4.386
REMARK  5 active torsions:
REMARK  status: ('A' for Active; 'I' for Inactive)
REMARK    1  A    between atoms: C2_2  and  C3_3
REMARK    2  A    between atoms: C3_3  and  C4_4
REMARK    3  A    between atoms: C8_9  and  O1_10
REMARK    4  A    between atoms: C10_14  and  O2_15
REMARK    5  A    between atoms: C11_17  and  N2_18
REMARK       I    between atoms: N2_18  and  C12_20
ROOT
HETATM    1  C4  UNL     1      -0.962 -10.669  70.197  1.00  0.00     0.036 C
HETATM    2  C5  UNL     1      -1.596 -11.320  71.401  1.00  0.00     0.126 C
HETATM    3 CL1  UNL     1      -0.721 -12.805  71.838  1.00  0.00    -0.119 Cl
HETATM    4  C6  UNL     1      -2.927 -11.723  70.860  1.00  0.00     0.024 A
HETATM    5  C7  UNL     1      -3.207 -11.027  69.718  1.00  0.00     0.028 A
HETATM    6  C8  UNL     1      -4.445 -11.447  69.275  1.00  0.00     0.153 A
HETATM    7  N1  UNL     1      -4.874 -12.364  70.139  1.00  0.00    -0.312 N
HETATM    8  C9  UNL     1      -6.165 -13.043  69.995  1.00  0.00     0.160 C
HETATM    9  C10 UNL     1      -3.986 -12.566  71.119  1.00  0.00     0.152 A
HETATM   10  C11 UNL     1      -2.081 -10.085  69.382  1.00  0.00     0.128 C
ENDROOT
BRANCH  10  11
HETATM   11  N2  UNL     1      -2.415  -8.744  69.705  1.00  0.00    -0.352 N
HETATM   12  C12 UNL     1      -3.132  -7.936  68.786  1.00  0.00     0.214 C
HETATM   13  C13 UNL     1      -3.505  -6.521  69.081  1.00  0.00     0.117 C
HETATM   14  O3  UNL     1      -3.500  -8.373  67.653  1.00  0.00    -0.274 OA
ATOM     15  H2  UNL     1      -2.136  -8.358  70.607  1.00  0.00     0.163 HD
ENDBRANCH  10  11
BRANCH   1  16
HETATM   16  C3  UNL     1       0.054  -9.632  70.602  1.00  0.00     0.008 C
BRANCH  16  17
HETATM   17  C2  UNL     1       1.391 -10.210  70.923  1.00  0.00    -0.004 C
HETATM   18  C1  UNL     1       2.282 -10.434  69.744  1.00  0.00     0.005 C
ENDBRANCH  16  17
ENDBRANCH   1  16
BRANCH   6  19
HETATM   19  O1  UNL     1      -5.101 -10.970  68.122  1.00  0.00    -0.345 OA
ATOM     20  H1  UNL     1      -5.469 -11.515  67.436  1.00  0.00     0.219 HD
ENDBRANCH   6  19
BRANCH   9  21
HETATM   21  O2  UNL     1      -4.101 -13.462  72.205  1.00  0.00    -0.345 OA
ATOM     22  H2  UNL     1      -4.895 -13.892  72.502  1.00  0.00     0.219 HD
ENDBRANCH   9  21
TORSDOF 5
ENDMDL