MODEL 1
REMARK VINA RESULT: -6.487717174      0.000      0.000
REMARK  6 active torsions:
REMARK  status: ('A' for Active; 'I' for Inactive)
REMARK    1  A    between atoms: C2_2  and  C3_3
REMARK    2  A    between atoms: C5_6  and  O1_7
REMARK    3  A    between atoms: C6_9  and  C7_10
REMARK    4  A    between atoms: N2_14  and  C9_15
REMARK    5  A    between atoms: C12_18  and  O2_19
REMARK    6  A    between atoms: C13_21  and  O3_22
ROOT
HETATM    1  C7  UNL     1      -2.986 -11.990  72.863  1.00  0.00    -0.017 A
HETATM    2  C8  UNL     1      -3.676 -12.006  74.052  1.00  0.00     0.116 A
HETATM    3  N1  UNL     1      -3.105 -12.955  74.831  1.00  0.00    -0.309 N
ATOM      4  H1  UNL     1      -3.407 -13.191  75.775  1.00  0.00     0.186 HD
HETATM    5  N2  UNL     1      -2.112 -13.524  74.202  1.00  0.00    -0.292 N
HETATM    6  C14 UNL     1      -2.011 -12.953  72.988  1.00  0.00     0.120 A
ENDROOT
BRANCH   1   7
HETATM    7  C6  UNL     1      -3.211 -11.131  71.665  1.00  0.00     0.057 C
HETATM    8  C3  UNL     1      -3.091 -11.852  70.355  1.00  0.00     0.017 C
HETATM    9  C4  UNL     1      -4.591 -11.843  70.252  1.00  0.00     0.116 C
HETATM   10 CL1  UNL     1      -5.211 -11.093  68.764  1.00  0.00    -0.122 Cl
HETATM   11  C5  UNL     1      -4.684 -10.886  71.419  1.00  0.00     0.146 C
BRANCH   8  12
HETATM   12  C2  UNL     1      -2.481 -11.063  69.231  1.00  0.00     0.002 C
HETATM   13  C1  UNL     1      -1.188 -10.401  69.594  1.00  0.00     0.005 C
ENDBRANCH   8  12
BRANCH  11  14
HETATM   14  O1  UNL     1      -4.932  -9.552  71.030  1.00  0.00    -0.393 OA
ATOM     15  H1  UNL     1      -4.422  -8.916  71.517  1.00  0.00     0.210 HD
ENDBRANCH  11  14
ENDBRANCH   1   7
BRANCH   5  16
HETATM   16  C9  UNL     1      -1.228 -14.596  74.683  1.00  0.00     0.161 C
HETATM   17  C10 UNL     1      -1.968 -15.560  75.502  1.00  0.00     0.001 C
HETATM   18  C11 UNL     1      -1.182 -15.981  76.480  1.00  0.00     0.005 C
HETATM   19  C12 UNL     1       0.158 -15.340  76.406  1.00  0.00     0.172 C
HETATM   20  C13 UNL     1      -0.207 -14.057  75.644  1.00  0.00     0.179 C
BRANCH  19  21
HETATM   21  O2  UNL     1       0.686 -15.067  77.650  1.00  0.00    -0.389 OA
ATOM     22  H2  UNL     1       1.566 -15.410  77.758  1.00  0.00     0.210 HD
ENDBRANCH  19  21
BRANCH  20  23
HETATM   23  O3  UNL     1      -0.861 -13.235  76.554  1.00  0.00    -0.390 OA
ATOM     24  H3  UNL     1      -0.293 -13.116  77.307  1.00  0.00     0.210 HD
ENDBRANCH  20  23
ENDBRANCH   5  16
TORSDOF 6
ENDMDL