MODEL 5
REMARK VINA RESULT: -6.583702865      1.524      1.792
REMARK  6 active torsions:
REMARK  status: ('A' for Active; 'I' for Inactive)
REMARK    1  A    between atoms: C6_7  and  N1_8
REMARK    2  A    between atoms: C8_10  and  C9_11
REMARK    3  A    between atoms: C9_11  and  C10_13
REMARK    4  A    between atoms: C10_13  and  N2_14
REMARK    5  A    between atoms: C11_18  and  O2_19
REMARK    6  A    between atoms: C12_21  and  O3_22
ROOT
HETATM    1  N1  UNL     1      -2.753 -11.047  71.265  1.00  0.00    -0.328 N
HETATM    2  C7  UNL     1      -3.707 -11.977  70.991  1.00  0.00     0.112 A
HETATM    3  C8  UNL     1      -4.440 -11.603  69.904  1.00  0.00     0.065 A
HETATM    4  C11 UNL     1      -3.949 -10.408  69.471  1.00  0.00     0.132 A
HETATM    5  C12 UNL     1      -2.912 -10.098  70.331  1.00  0.00     0.177 A
ENDROOT
BRANCH   1   6
HETATM    6  C6  UNL     1      -1.837 -11.172  72.344  1.00  0.00     0.110 C
HETATM    7  C5  UNL     1      -1.952 -12.413  73.150  1.00  0.00     0.105 C
HETATM    8  C4  UNL     1      -1.235 -12.092  74.474  1.00  0.00     0.022 C
HETATM    9 CL1  UNL     1      -0.972 -13.764  72.476  1.00  0.00    -0.123 Cl
HETATM   10  C3  UNL     1       0.230 -11.957  74.182  1.00  0.00     0.006 C
HETATM   11  C2  UNL     1       0.595 -11.200  72.980  1.00  0.00    -0.017 C
HETATM   12  C1  UNL     1       1.068  -9.809  73.447  1.00  0.00     0.010 C
HETATM   13  C13 UNL     1      -0.398 -11.006  71.921  1.00  0.00     0.031 C
ENDBRANCH   1   6
BRANCH   5  14
HETATM   14  O3  UNL     1      -2.155  -8.963  70.229  1.00  0.00    -0.344 OA
ATOM     15  H3  UNL     1      -1.666  -8.702  69.458  1.00  0.00     0.219 HD
ENDBRANCH   5  14
BRANCH   3  16
HETATM   16  C9  UNL     1      -5.543 -12.337  69.313  1.00  0.00     0.189 C
HETATM   17  O1  UNL     1      -6.723 -12.274  69.806  1.00  0.00    -0.290 OA
BRANCH  16  18
HETATM   18  C10 UNL     1      -5.282 -13.178  68.106  1.00  0.00     0.313 C
BRANCH  18  19
HETATM   19  N2  UNL     1      -5.328 -12.415  66.895  1.00  0.00    -0.072 N
ATOM     20  H23 UNL     1      -5.888 -11.571  67.013  1.00  0.00     0.274 HD
ATOM     21  H22 UNL     1      -4.426 -11.984  66.696  1.00  0.00     0.274 HD
ATOM     22  H21 UNL     1      -5.656 -12.967  66.104  1.00  0.00     0.274 HD
ENDBRANCH  18  19
ENDBRANCH  16  18
ENDBRANCH   3  16
BRANCH   4  23
HETATM   23  O2  UNL     1      -4.433  -9.701  68.383  1.00  0.00    -0.356 OA
ATOM     24  H2  UNL     1      -4.110  -8.854  68.099  1.00  0.00     0.218 HD
ENDBRANCH   4  23
TORSDOF 6
ENDMDL