MODEL 3
REMARK VINA RESULT: -6.196202209      2.254      2.480
REMARK  5 active torsions:
REMARK  status: ('A' for Active; 'I' for Inactive)
REMARK    1  A    between atoms: O1_1  and  C1_3
REMARK    2  A    between atoms: C3_5  and  O2_6
REMARK    3  A    between atoms: C4_8  and  C5_9
REMARK    4  A    between atoms: N1_10  and  N2_12
REMARK    5  A    between atoms: N2_12  and  C6_14
ROOT
HETATM    1  C1  UNL     1      -4.055  -4.528  67.455  1.00  0.00     0.085 A
HETATM    2  C2  UNL     1      -4.375  -5.471  66.503  1.00  0.00     0.075 A
HETATM    3  C3  UNL     1      -4.148  -6.796  66.735  1.00  0.00     0.080 A
HETATM    4  C4  UNL     1      -3.598  -7.224  67.921  1.00  0.00     0.015 A
HETATM    5  C9  UNL     1      -3.281  -6.245  68.873  1.00  0.00     0.037 A
HETATM    6  C10 UNL     1      -3.494  -4.902  68.676  1.00  0.00     0.045 A
HETATM    7 BR1  UNL     1      -3.069  -3.562  69.959  1.00  0.00    -0.048 Br
ENDROOT
BRANCH   4   8
HETATM    8  C5  UNL     1      -3.331  -8.621  68.234  1.00  0.00     0.121 C
HETATM    9  N1  UNL     1      -2.978  -8.909  69.437  1.00  0.00    -0.313 N
ATOM     10  H1  UNL     1      -2.889  -8.181  70.146  1.00  0.00     0.185 HD
BRANCH   9  11
HETATM   11  N2  UNL     1      -2.719 -10.246  69.748  1.00  0.00    -0.308 N
ATOM     12  H2  UNL     1      -3.472 -10.896  69.975  1.00  0.00     0.183 HD
BRANCH  11  13
HETATM   13  C6  UNL     1      -1.333 -10.670  69.733  1.00  0.00     0.237 C
HETATM   14  C7  UNL     1      -0.467  -9.886  70.694  1.00  0.00     0.081 C
HETATM   15  C8  UNL     1      -1.151 -10.873  71.646  1.00  0.00     0.175 C
HETATM   16  O3  UNL     1      -1.175 -11.777  70.568  1.00  0.00    -0.365 OA
ENDBRANCH  11  13
ENDBRANCH   9  11
ENDBRANCH   4   8
BRANCH   3  17
HETATM   17  O2  UNL     1      -4.477  -7.708  65.770  1.00  0.00    -0.360 OA
ATOM     18  H2  UNL     1      -5.373  -7.748  65.456  1.00  0.00     0.217 HD
ENDBRANCH   3  17
BRANCH   1  19
HETATM   19  O1  UNL     1      -4.291  -3.191  67.202  1.00  0.00    -0.359 OA
ATOM     20  H1  UNL     1      -5.143  -2.913  66.886  1.00  0.00     0.217 HD
ENDBRANCH   1  19
TORSDOF 5
ENDMDL