MODEL 5
REMARK VINA RESULT: -6.174262424      4.606      6.411
REMARK  4 active torsions:
REMARK  status: ('A' for Active; 'I' for Inactive)
REMARK    1  A    between atoms: C4_5  and  O1_6
REMARK    2  A    between atoms: C4_5  and  N2_8
REMARK    3  A    between atoms: N2_8  and  C5_10
REMARK    4  A    between atoms: C7_12  and  C8_13
ROOT
HETATM    1  N2  UNL     1      -4.821 -13.107  72.955  1.00  0.00    -0.353 N
ATOM      2  H2  UNL     1      -5.800 -13.352  73.105  1.00  0.00     0.163 HD
ENDROOT
BRANCH   1   3
HETATM    3  C4  UNL     1      -3.897 -13.526  73.958  1.00  0.00     0.135 C
HETATM    4  C3  UNL     1      -4.490 -14.500  74.892  1.00  0.00     0.091 C
HETATM    5  C2  UNL     1      -3.813 -15.870  74.746  1.00  0.00     0.276 C
HETATM    6  N1  UNL     1      -2.419 -15.667  75.026  1.00  0.00     0.084 N
HETATM    7  C1  UNL     1      -1.791 -16.978  75.170  1.00  0.00     0.309 C
HETATM    8  C11 UNL     1      -1.798 -14.938  73.941  1.00  0.00     0.276 C
HETATM    9  C10 UNL     1      -2.667 -13.996  73.218  1.00  0.00     0.091 C
BRANCH   3  10
HETATM   10  O1  UNL     1      -3.459 -12.427  74.740  1.00  0.00    -0.371 OA
ATOM     11  H1  UNL     1      -2.680 -12.715  75.202  1.00  0.00     0.212 HD
ENDBRANCH   3  10
ENDBRANCH   1   3
BRANCH   1  12
HETATM   12  C5  UNL     1      -4.518 -12.378  71.759  1.00  0.00     0.074 A
HETATM   13  C6  UNL     1      -4.746 -12.627  70.447  1.00  0.00     0.057 A
HETATM   14  C7  UNL     1      -4.418 -11.694  69.535  1.00  0.00     0.072 A
HETATM   15  C9  UNL     1      -3.868 -10.531  70.010  1.00  0.00     0.093 A
HETATM   16 CL1  UNL     1      -3.345  -9.091  69.122  1.00  0.00    -0.075 Cl
HETATM   17  S1  UNL     1      -3.821 -10.783  71.691  1.00  0.00    -0.059 SA
BRANCH  14  18
HETATM   18  C8  UNL     1      -4.651 -11.857  68.087  1.00  0.00     0.211 C
HETATM   19  O2  UNL     1      -5.577 -11.273  67.543  1.00  0.00    -0.644 OA
HETATM   20  O3  UNL     1      -3.785 -12.680  67.411  1.00  0.00    -0.644 OA
ENDBRANCH  14  18
ENDBRANCH   1  12
TORSDOF 4
ENDMDL