MODEL 3
REMARK VINA RESULT: -5.970264786      2.616      5.285
REMARK  6 active torsions:
REMARK  status: ('A' for Active; 'I' for Inactive)
REMARK    1  A    between atoms: C2_2  and  C3_3
REMARK    2  A    between atoms: C3_3  and  C4_4
REMARK    3  A    between atoms: C7_7  and  O1_8
REMARK    4  A    between atoms: N1_10  and  C8_11
REMARK    5  A    between atoms: C10_13  and  O2_14
REMARK    6  A    between atoms: C11_16  and  O3_17
REMARK       I    between atoms: N2_19  and  C12_20
ROOT
HETATM    1  C4  UNL     1      -1.804 -11.209  72.713  1.00  0.00     0.129 C
HETATM    2  C5  UNL     1      -2.854 -11.777  71.769  1.00  0.00     0.031 A
HETATM    3  C6  UNL     1      -3.810 -12.372  72.590  1.00  0.00     0.054 A
HETATM    4  C7  UNL     1      -4.754 -12.865  71.731  1.00  0.00     0.155 A
HETATM    5  N1  UNL     1      -4.404 -12.592  70.448  1.00  0.00    -0.308 N
HETATM    6  C10 UNL     1      -3.219 -11.913  70.458  1.00  0.00     0.153 A
HETATM    7  C11 UNL     1      -3.329 -12.189  74.002  1.00  0.00     0.264 C
HETATM    8  N2  UNL     1      -1.859 -12.275  73.688  1.00  0.00    -0.299 N
HETATM    9  C12 UNL     1      -1.045 -13.215  74.253  1.00  0.00     0.319 C
HETATM   10  O4  UNL     1       0.149 -13.375  73.927  1.00  0.00    -0.254 OA
HETATM   11 CL1  UNL     1      -1.631 -14.288  75.504  1.00  0.00    -0.020 Cl
ENDROOT
BRANCH   1  12
HETATM   12  C3  UNL     1      -0.589 -10.913  71.992  1.00  0.00     0.030 C
BRANCH  12  13
HETATM   13  C2  UNL     1       0.435 -10.007  72.545  1.00  0.00    -0.002 C
HETATM   14  C1  UNL     1       0.702  -8.934  71.472  1.00  0.00     0.005 C
ENDBRANCH  12  13
ENDBRANCH   1  12
BRANCH   6  15
HETATM   15  O2  UNL     1      -2.532 -11.455  69.315  1.00  0.00    -0.345 OA
ATOM     16  H2  UNL     1      -1.767 -11.837  68.901  1.00  0.00     0.219 HD
ENDBRANCH   6  15
BRANCH   7  17
HETATM   17  O3  UNL     1      -3.754 -13.161  74.838  1.00  0.00    -0.372 OA
ATOM     18  H3  UNL     1      -3.586 -12.967  75.752  1.00  0.00     0.212 HD
ENDBRANCH   7  17
BRANCH   4  19
HETATM   19  O1  UNL     1      -5.922 -13.555  72.108  1.00  0.00    -0.345 OA
ATOM     20  H1  UNL     1      -6.306 -14.286  71.639  1.00  0.00     0.219 HD
ENDBRANCH   4  19
BRANCH   5  21
HETATM   21  C8  UNL     1      -5.131 -12.942  69.269  1.00  0.00     0.129 C
HETATM   22  C9  UNL     1      -5.970 -11.790  68.750  1.00  0.00     0.027 C
ENDBRANCH   5  21
TORSDOF 6
ENDMDL