MODEL 1
REMARK VINA RESULT: -7.356925368      0.000      0.000
REMARK  5 active torsions:
REMARK  status: ('A' for Active; 'I' for Inactive)
REMARK    1  A    between atoms: C5_5  and  C6_7
REMARK    2  A    between atoms: C6_7  and  N1_8
REMARK       I    between atoms: N1_8  and  C7_10
REMARK    3  A    between atoms: C7_10  and  C8_12
REMARK    4  A    between atoms: C10_14  and  O2_15
REMARK    5  A    between atoms: N2_17  and  O3_18
ROOT
HETATM    1  N1  UNL     1      -2.978  -8.067  69.347  1.00  0.00    -0.355 N
ATOM      2  H1  UNL     1      -3.025  -7.568  70.235  1.00  0.00     0.162 HD
HETATM    3  C7  UNL     1      -3.316  -7.373  68.166  1.00  0.00     0.253 C
HETATM    4  O1  UNL     1      -3.266  -7.967  67.071  1.00  0.00    -0.268 OA
ENDROOT
BRANCH   1   5
HETATM    5  C6  UNL     1      -2.568  -9.458  69.354  1.00  0.00     0.150 C
BRANCH   5   6
HETATM    6  C5  UNL     1      -3.589 -10.337  69.990  1.00  0.00     0.074 C
HETATM    7  C4  UNL     1      -2.915 -11.620  70.435  1.00  0.00     0.032 C
HETATM    8  C3  UNL     1      -4.029 -12.497  71.014  1.00  0.00     0.033 C
HETATM    9  C2  UNL     1      -4.602 -11.727  72.187  1.00  0.00     0.117 C
HETATM   10  C1  UNL     1      -3.571 -11.697  73.288  1.00  0.00     0.039 C
HETATM   11  O4  UNL     1      -5.100 -10.499  71.852  1.00  0.00    -0.384 OA
HETATM   12  C12 UNL     1      -4.230  -9.677  71.178  1.00  0.00     0.195 C
HETATM   13 CL1  UNL     1      -4.881 -10.757  68.847  1.00  0.00    -0.115 Cl
ENDBRANCH   5   6
ENDBRANCH   1   5
BRANCH   3  14
HETATM   14  C8  UNL     1      -3.718  -5.976  68.236  1.00  0.00     0.054 A
HETATM   15  C9  UNL     1      -3.986  -5.136  67.176  1.00  0.00     0.076 A
HETATM   16  C10 UNL     1      -4.333  -3.895  67.656  1.00  0.00     0.167 A
HETATM   17  N2  UNL     1      -4.279  -3.976  68.996  1.00  0.00    -0.212 N
HETATM   18  C11 UNL     1      -3.914  -5.208  69.375  1.00  0.00     0.142 A
BRANCH  16  19
HETATM   19  O2  UNL     1      -4.678  -2.763  66.887  1.00  0.00    -0.344 OA
ATOM     20  H2  UNL     1      -5.392  -2.161  67.057  1.00  0.00     0.219 HD
ENDBRANCH  16  19
BRANCH  17  21
HETATM   21  O3  UNL     1      -4.568  -2.913  69.827  1.00  0.00    -0.281 OA
ATOM     22  H3  UNL     1      -5.396  -2.449  69.806  1.00  0.00     0.245 HD
ENDBRANCH  17  21
ENDBRANCH   3  14
TORSDOF 5
ENDMDL