MODEL 5
REMARK VINA RESULT: -7.318074869      1.718      2.334
REMARK  7 active torsions:
REMARK  status: ('A' for Active; 'I' for Inactive)
REMARK    1  A    between atoms: C6_6  and  N1_7
REMARK       I    between atoms: N1_7  and  C7_9
REMARK    2  A    between atoms: C7_9  and  C8_11
REMARK    3  A    between atoms: C8_11  and  N2_12
REMARK    4  A    between atoms: C10_14  and  C11_15
REMARK    5  A    between atoms: C11_15  and  O2_16
REMARK    6  A    between atoms: C11_15  and  N3_18
REMARK    7  A    between atoms: C17_25  and  O4_26
ROOT
HETATM    1  N2  UNL     1       4.541  -4.787  21.309  1.00  0.00    -0.329 N
HETATM    2  C9  UNL     1       5.264  -4.511  22.400  1.00  0.00     0.105 A
HETATM    3  C10 UNL     1       5.457  -5.653  23.144  1.00  0.00     0.009 A
HETATM    4  C16 UNL     1       4.833  -6.671  22.491  1.00  0.00     0.069 A
HETATM    5  C17 UNL     1       4.276  -6.104  21.362  1.00  0.00     0.142 A
ENDROOT
BRANCH   1   6
HETATM    6  C8  UNL     1       4.105  -3.881  20.252  1.00  0.00     0.233 C
BRANCH   6   7
HETATM    7  C7  UNL     1       3.113  -2.915  20.717  1.00  0.00     0.236 C
HETATM    8  N1  UNL     1       3.473  -1.558  20.863  1.00  0.00    -0.355 N
ATOM      9  H1  UNL     1       4.428  -1.283  20.638  1.00  0.00     0.162 HD
HETATM   10  O1  UNL     1       1.938  -3.257  20.993  1.00  0.00    -0.272 OA
BRANCH   8  11
HETATM   11  C6  UNL     1       2.548  -0.534  21.319  1.00  0.00     0.088 C
HETATM   12  C2  UNL     1       2.823   0.786  20.641  1.00  0.00     0.004 C
HETATM   13  C1  UNL     1       3.321   0.624  19.234  1.00  0.00     0.012 C
HETATM   14  C3  UNL     1       3.839   1.452  21.540  1.00  0.00     0.006 C
HETATM   15  C4  UNL     1       3.307   1.129  22.911  1.00  0.00     0.002 C
HETATM   16  C5  UNL     1       2.714  -0.240  22.787  1.00  0.00     0.025 C
ENDBRANCH   8  11
ENDBRANCH   6   7
ENDBRANCH   1   6
BRANCH   5  17
HETATM   17  O4  UNL     1       3.541  -6.803  20.406  1.00  0.00    -0.346 OA
ATOM     18  H4  UNL     1       3.102  -7.631  20.561  1.00  0.00     0.219 HD
ENDBRANCH   5  17
BRANCH   3  19
HETATM   19  C11 UNL     1       6.211  -5.703  24.416  1.00  0.00     0.252 C
BRANCH  19  20
HETATM   20  O2  UNL     1       6.413  -7.055  24.772  1.00  0.00    -0.373 OA
ATOM     21  H2  UNL     1       5.882  -7.603  24.205  1.00  0.00     0.212 HD
ENDBRANCH  19  20
BRANCH  19  22
HETATM   22  N3  UNL     1       5.649  -5.034  25.503  1.00  0.00    -0.380 N
HETATM   23  C12 UNL     1       4.253  -4.991  25.674  1.00  0.00     0.146 C
HETATM   24  C13 UNL     1       4.001  -5.035  27.193  1.00  0.00     0.187 C
HETATM   25  O3  UNL     1       4.696  -4.000  27.819  1.00  0.00    -0.388 OA
HETATM   26  C14 UNL     1       6.054  -4.043  27.624  1.00  0.00     0.187 C
HETATM   27  C15 UNL     1       6.350  -3.973  26.118  1.00  0.00     0.146 C
ENDBRANCH  19  22
ENDBRANCH   3  19
TORSDOF 7
ENDMDL