MODEL 4
REMARK VINA RESULT: -5.726512271      1.818      2.587
REMARK  11 active torsions:
REMARK  status: ('A' for Active; 'I' for Inactive)
REMARK    1  A    between atoms: C2_2  and  N1_3
REMARK    2  A    between atoms: C5_6  and  N2_7
REMARK    3  A    between atoms: N2_7  and  N3_8
REMARK    4  A    between atoms: N3_8  and  C6_10
REMARK    5  A    between atoms: C6_10  and  O1_11
REMARK    6  A    between atoms: C6_10  and  N4_13
REMARK    7  A    between atoms: N4_13  and  C7_15
REMARK    8  A    between atoms: C7_15  and  N5_17
REMARK    9  A    between atoms: N5_17  and  C8_19
REMARK   10  A    between atoms: C8_19  and  C9_20
REMARK   11  A    between atoms: C12_23  and  O2_24
ROOT
HETATM    1  N3  UNL     1       6.518  -1.252  24.757  1.00  0.00    -0.198 N
ATOM      2  H3  UNL     1       6.950  -0.389  25.088  1.00  0.00     0.205 HD
ENDROOT
BRANCH   1   3
HETATM    3  N2  UNL     1       5.769  -1.199  23.664  1.00  0.00    -0.329 NA
BRANCH   3   4
HETATM    4  C5  UNL     1       5.123  -1.162  22.698  1.00  0.00     0.122 C
HETATM    5  C4  UNL     1       4.412   0.116  22.269  1.00  0.00     0.093 C
HETATM    6  C3  UNL     1       2.961  -0.217  22.637  1.00  0.00     0.129 C
HETATM    7  N1  UNL     1       2.495  -1.389  21.997  1.00  0.00    -0.390 N
HETATM    8  C14 UNL     1       3.330  -2.510  21.925  1.00  0.00     0.097 C
HETATM    9  C12 UNL     1       4.818  -2.257  21.754  1.00  0.00     0.221 C
BRANCH   7  10
HETATM   10  C2  UNL     1       1.638  -1.128  20.869  1.00  0.00     0.117 C
HETATM   11  C1  UNL     1       0.599  -2.254  20.844  1.00  0.00     0.026 C
ENDBRANCH   7  10
BRANCH   9  12
HETATM   12  O2  UNL     1       5.561  -3.385  21.959  1.00  0.00    -0.379 OA
HETATM   13  C13 UNL     1       5.021  -4.384  21.155  1.00  0.00     0.203 C
ENDBRANCH   9  12
ENDBRANCH   3   4
ENDBRANCH   1   3
BRANCH   1  14
HETATM   14  C6  UNL     1       6.751  -2.444  25.492  1.00  0.00     0.249 C
BRANCH  14  15
HETATM   15  O1  UNL     1       7.446  -2.273  26.593  1.00  0.00    -0.331 OA
ATOM     16  H1  UNL     1       7.579  -3.066  27.099  1.00  0.00     0.221 HD
ENDBRANCH  14  15
BRANCH  14  17
HETATM   17  N4  UNL     1       6.359  -3.761  25.239  1.00  0.00    -0.297 N
ATOM     18  H4  UNL     1       6.913  -4.330  24.599  1.00  0.00     0.172 HD
BRANCH  17  19
HETATM   19  C7  UNL     1       5.216  -4.326  25.846  1.00  0.00     0.174 C
HETATM   20  S1  UNL     1       4.245  -5.265  24.867  1.00  0.00    -0.041 SA
BRANCH  19  21
HETATM   21  N5  UNL     1       4.807  -4.147  27.210  1.00  0.00    -0.367 N
ATOM     22  H5  UNL     1       4.403  -3.282  27.569  1.00  0.00     0.161 HD
BRANCH  21  23
HETATM   23  C8  UNL     1       5.024  -5.314  28.016  1.00  0.00     0.126 C
BRANCH  23  24
HETATM   24  C9  UNL     1       6.113  -5.389  28.978  1.00  0.00    -0.005 C
HETATM   25  C10 UNL     1       7.226  -6.227  28.251  1.00  0.00     0.011 C
HETATM   26  C11 UNL     1       6.783  -4.120  29.385  1.00  0.00     0.011 C
ENDBRANCH  23  24
ENDBRANCH  21  23
ENDBRANCH  19  21
ENDBRANCH  17  19
ENDBRANCH  14  17
ENDBRANCH   1  14
TORSDOF 11
ENDMDL