MODEL 3
REMARK VINA RESULT: -7.142916296      4.727      7.021
REMARK  7 active torsions:
REMARK  status: ('A' for Active; 'I' for Inactive)
REMARK    1  A    between atoms: C2_2  and  C3_3
REMARK    2  A    between atoms: C3_3  and  N1_4
REMARK    3  A    between atoms: C4_5  and  C5_6
REMARK    4  A    between atoms: C5_6  and  O1_7
REMARK    5  A    between atoms: C7_10  and  O2_11
REMARK    6  A    between atoms: C9_15  and  C10_16
REMARK    7  A    between atoms: C15_21  and  O4_22
ROOT
HETATM    1  N1  UNL     1       2.545  -1.256  20.930  1.00  0.00     0.108 N
HETATM    2  C4  UNL     1       2.474   0.088  20.564  1.00  0.00     0.249 C
HETATM    3  C6  UNL     1       3.217   1.078  21.387  1.00  0.00     0.072 C
HETATM    4  C7  UNL     1       3.792   0.544  22.676  1.00  0.00     0.151 C
HETATM    5  C8  UNL     1       4.497  -0.722  22.335  1.00  0.00     0.189 C
HETATM    6  O3  UNL     1       5.122  -1.339  23.412  1.00  0.00    -0.347 OA
HETATM    7  C9  UNL     1       5.991  -2.307  22.855  1.00  0.00     0.297 C
HETATM    8  O5  UNL     1       5.661  -2.664  21.579  1.00  0.00    -0.355 OA
HETATM    9  C16 UNL     1       4.339  -2.897  21.304  1.00  0.00     0.210 C
HETATM   10  C17 UNL     1       3.506  -1.733  21.809  1.00  0.00     0.279 C
ENDROOT
BRANCH   7  11
HETATM   11  C10 UNL     1       6.112  -3.477  23.735  1.00  0.00     0.029 A
HETATM   12  C11 UNL     1       5.370  -3.522  24.895  1.00  0.00     0.015 A
HETATM   13  C12 UNL     1       5.436  -4.603  25.761  1.00  0.00     0.001 A
HETATM   14  C13 UNL     1       6.246  -5.663  25.482  1.00  0.00     0.003 A
HETATM   15  C14 UNL     1       7.003  -5.634  24.309  1.00  0.00     0.037 A
HETATM   16  C15 UNL     1       6.928  -4.553  23.458  1.00  0.00     0.076 A
BRANCH  16  17
HETATM   17  O4  UNL     1       7.700  -4.578  22.310  1.00  0.00    -0.360 OA
ATOM     18  H4  UNL     1       7.313  -4.783  21.468  1.00  0.00     0.217 HD
ENDBRANCH  16  17
ENDBRANCH   7  11
BRANCH   4  19
HETATM   19  O2  UNL     1       2.830   0.401  23.656  1.00  0.00    -0.393 OA
ATOM     20  H2  UNL     1       2.803  -0.482  24.006  1.00  0.00     0.210 HD
ENDBRANCH   4  19
BRANCH   1  21
HETATM   21  C3  UNL     1       1.230  -1.760  21.279  1.00  0.00     0.300 C
BRANCH  21  22
HETATM   22  C2  UNL     1       0.570  -2.512  20.208  1.00  0.00    -0.007 C
HETATM   23  C1  UNL     1       0.975  -3.733  19.881  1.00  0.00     0.008 C
ENDBRANCH  21  22
ENDBRANCH   1  21
BRANCH   2  24
HETATM   24  C5  UNL     1       3.045   0.222  19.141  1.00  0.00     0.200 C
BRANCH  24  25
HETATM   25  O1  UNL     1       2.659  -0.795  18.312  1.00  0.00    -0.399 OA
ATOM     26  H1  UNL     1       2.957  -0.680  17.418  1.00  0.00     0.209 HD
ENDBRANCH  24  25
ENDBRANCH   2  24
TORSDOF 7
ENDMDL