MODEL 1
REMARK VINA RESULT: -5.812301706      0.000      0.000
REMARK  8 active torsions:
REMARK  status: ('A' for Active; 'I' for Inactive)
REMARK    1  A    between atoms: C2_2  and  C3_3
REMARK    2  A    between atoms: C3_3  and  C4_4
REMARK    3  A    between atoms: C4_4  and  C5_5
REMARK    4  A    between atoms: C5_5  and  O2_7
REMARK    5  A    between atoms: C8_10  and  C9_11
REMARK    6  A    between atoms: C9_11  and  N1_12
REMARK    7  A    between atoms: C12_18  and  C13_19
REMARK    8  A    between atoms: C13_19  and  O3_20
ROOT
HETATM    1  C4  UNL     1       1.780  -2.475  19.703  1.00  0.00     0.122 C
HETATM    2  C7  UNL     1       2.933  -3.428  19.738  1.00  0.00     0.034 A
HETATM    3  C8  UNL     1       3.196  -4.663  20.343  1.00  0.00     0.023 A
HETATM    4  C10 UNL     1       3.229  -3.569  21.250  1.00  0.00     0.001 A
HETATM    5  C11 UNL     1       4.092  -2.385  21.430  1.00  0.00     0.038 C
HETATM    6  C12 UNL     1       3.141  -1.183  21.266  1.00  0.00     0.050 C
HETATM    7  C14 UNL     1       4.119  -0.024  21.164  1.00  0.00     0.033 C
HETATM    8  C15 UNL     1       3.504   1.254  20.728  1.00  0.00     0.008 C
HETATM    9  C16 UNL     1       2.840   0.953  19.372  1.00  0.00    -0.001 C
HETATM   10  C17 UNL     1       2.294   2.187  18.742  1.00  0.00     0.011 C
HETATM   11  C18 UNL     1       1.725  -0.031  19.745  1.00  0.00     0.123 C
HETATM   12  N2  UNL     1       2.208  -1.259  20.225  1.00  0.00    -0.384 N
ENDROOT
BRANCH   1  13
HETATM   13  C3  UNL     1       0.540  -3.092  20.250  1.00  0.00     0.041 C
BRANCH  13  14
HETATM   14  C2  UNL     1      -0.351  -2.141  21.003  1.00  0.00    -0.002 C
HETATM   15  C1  UNL     1      -1.731  -2.102  20.374  1.00  0.00     0.005 C
ENDBRANCH  13  14
ENDBRANCH   1  13
BRANCH   1  16
HETATM   16  C5  UNL     1       1.529  -2.380  18.224  1.00  0.00     0.287 C
HETATM   17  O1  UNL     1       2.389  -2.663  17.398  1.00  0.00    -0.262 OA
BRANCH  16  18
HETATM   18  O2  UNL     1       0.297  -1.962  17.730  1.00  0.00    -0.325 OA
HETATM   19  C6  UNL     1      -0.369  -2.675  16.722  1.00  0.00     0.213 C
ENDBRANCH  16  18
ENDBRANCH   1  16
BRANCH   3  20
HETATM   20  C9  UNL     1       4.523  -5.363  20.044  1.00  0.00     0.235 C
BRANCH  20  21
HETATM   21  N1  UNL     1       5.150  -4.601  18.952  1.00  0.00    -0.079 N
ATOM     22  H13 UNL     1       4.520  -4.416  18.172  1.00  0.00     0.274 HD
ATOM     23  H12 UNL     1       5.339  -3.628  19.192  1.00  0.00     0.274 HD
ATOM     24  H11 UNL     1       5.985  -5.123  18.686  1.00  0.00     0.274 HD
ENDBRANCH  20  21
ENDBRANCH   3  20
BRANCH   6  25
HETATM   25  C13 UNL     1       2.461  -1.049  22.598  1.00  0.00     0.195 C
BRANCH  25  26
HETATM   26  O3  UNL     1       3.232  -0.655  23.655  1.00  0.00    -0.398 OA
ATOM     27  H3  UNL     1       2.857  -0.016  24.250  1.00  0.00     0.209 HD
ENDBRANCH  25  26
ENDBRANCH   6  25
TORSDOF 8
ENDMDL