MODEL 1
REMARK VINA RESULT: -6.934014579      0.000      0.000
REMARK  6 active torsions:
REMARK  status: ('A' for Active; 'I' for Inactive)
REMARK    1  A    between atoms: C2_2  and  C3_3
REMARK    2  A    between atoms: C7_10  and  C8_11
REMARK    3  A    between atoms: C8_11  and  N3_12
REMARK    4  A    between atoms: N3_12  and  C9_15
REMARK    5  A    between atoms: C13_22  and  N5_23
REMARK    6  A    between atoms: C16_26  and  O1_27
ROOT
HETATM    1  C9  UNL     1       4.949  -3.845  23.096  1.00  0.00     0.222 C
HETATM    2  C10 UNL     1       5.180  -4.657  21.807  1.00  0.00     0.062 C
HETATM    3  C11 UNL     1       4.304  -5.901  21.847  1.00  0.00     0.234 C
HETATM    4  N4  UNL     1       4.866  -6.758  22.843  1.00  0.00    -0.073 N
ATOM      5  H41 UNL     1       5.524  -7.417  22.427  1.00  0.00     0.277 HD
ATOM      6  H42 UNL     1       4.169  -7.416  23.192  1.00  0.00     0.277 HD
HETATM    7  C12 UNL     1       5.494  -6.017  23.953  1.00  0.00     0.270 C
HETATM    8  C13 UNL     1       4.698  -4.728  24.179  1.00  0.00     0.278 C
ENDROOT
BRANCH   1   9
HETATM    9  N3  UNL     1       3.989  -2.794  22.697  1.00  0.00    -0.065 N
ATOM     10  H32 UNL     1       3.745  -2.130  23.432  1.00  0.00     0.278 HD
ATOM     11  H31 UNL     1       3.033  -3.117  22.541  1.00  0.00     0.278 HD
BRANCH   9  12
HETATM   12  C8  UNL     1       4.650  -2.211  21.524  1.00  0.00     0.275 C
BRANCH  12  13
HETATM   13  C7  UNL     1       3.900  -1.294  20.664  1.00  0.00     0.015 A
HETATM   14  C3  UNL     1       3.227  -1.798  19.542  1.00  0.00     0.035 A
HETATM   15  N1  UNL     1       2.536  -0.732  18.998  1.00  0.00    -0.302 N
HETATM   16  N2  UNL     1       2.773   0.305  19.744  1.00  0.00    -0.300 N
ATOM     17  H1  UNL     1       1.949  -0.755  18.165  1.00  0.00     0.186 HD
HETATM   18  C4  UNL     1       2.119   1.578  19.524  1.00  0.00     0.177 C
HETATM   19  C5  UNL     1       3.614   0.039  20.802  1.00  0.00     0.034 A
HETATM   20  C6  UNL     1       4.104   1.093  21.682  1.00  0.00     0.070 C
BRANCH  14  21
HETATM   21  C2  UNL     1       3.289  -3.156  19.011  1.00  0.00     0.055 C
HETATM   22  C1  UNL     1       2.049  -3.878  19.491  1.00  0.00     0.011 C
ENDBRANCH  14  21
ENDBRANCH  12  13
ENDBRANCH   9  12
ENDBRANCH   1   9
BRANCH   8  23
HETATM   23  N5  UNL     1       4.907  -4.161  25.498  1.00  0.00     0.097 N
HETATM   24  C14 UNL     1       6.187  -4.332  26.031  1.00  0.00     0.275 C
HETATM   25  C15 UNL     1       6.444  -5.434  27.020  1.00  0.00     0.062 C
HETATM   26  C16 UNL     1       5.461  -5.145  28.165  1.00  0.00     0.121 C
HETATM   27  C17 UNL     1       4.111  -5.388  27.516  1.00  0.00     0.062 C
HETATM   28  C18 UNL     1       3.833  -4.522  26.357  1.00  0.00     0.275 C
BRANCH  26  29
HETATM   29  O1  UNL     1       5.679  -5.985  29.222  1.00  0.00    -0.395 OA
ATOM     30  H1  UNL     1       4.907  -6.505  29.409  1.00  0.00     0.210 HD
ENDBRANCH  26  29
ENDBRANCH   8  23
TORSDOF 6
ENDMDL