MODEL 1
REMARK VINA RESULT: -7.060954259      0.000      0.000
REMARK  8 active torsions:
REMARK  status: ('A' for Active; 'I' for Inactive)
REMARK    1  A    between atoms: C2_2  and  N1_3
REMARK    2  A    between atoms: C5_6  and  C6_7
REMARK    3  A    between atoms: C8_10  and  C9_11
REMARK    4  A    between atoms: C9_11  and  C10_12
REMARK    5  A    between atoms: C10_12  and  O2_13
REMARK    6  A    between atoms: N2_15  and  N3_17
REMARK    7  A    between atoms: N3_17  and  C11_19
REMARK    8  A    between atoms: N4_21  and  N5_23
ROOT
HETATM    1  C9  UNL     1       5.826  -4.903  26.974  1.00  0.00     0.119 C
ENDROOT
BRANCH   1   2
HETATM    2  C8  UNL     1       5.532  -4.764  25.479  1.00  0.00     0.152 C
HETATM    3  O1  UNL     1       4.809  -3.610  25.336  1.00  0.00    -0.381 OA
HETATM    4  C7  UNL     1       4.622  -3.207  24.016  1.00  0.00     0.200 C
HETATM    5  C6  UNL     1       5.961  -3.062  23.358  1.00  0.00     0.149 C
HETATM    6  O3  UNL     1       6.772  -4.154  23.477  1.00  0.00    -0.381 OA
HETATM    7  C13 UNL     1       6.772  -4.833  24.655  1.00  0.00     0.200 C
BRANCH   5   8
HETATM    8  C5  UNL     1       5.853  -2.629  21.899  1.00  0.00     0.020 C
HETATM    9  C4  UNL     1       4.499  -2.049  21.641  1.00  0.00     0.037 C
HETATM   10  C3  UNL     1       3.553  -2.915  20.895  1.00  0.00     0.273 C
HETATM   11  N1  UNL     1       4.223  -3.375  19.694  1.00  0.00     0.088 N
HETATM   12  C15 UNL     1       5.352  -4.224  20.002  1.00  0.00     0.273 C
HETATM   13  C14 UNL     1       6.336  -3.639  20.938  1.00  0.00     0.037 C
BRANCH  11  14
HETATM   14  C2  UNL     1       3.255  -4.212  18.985  1.00  0.00     0.268 C
HETATM   15  C1  UNL     1       3.705  -5.648  18.923  1.00  0.00     0.037 C
ENDBRANCH  11  14
ENDBRANCH   5   8
ENDBRANCH   1   2
BRANCH   1  16
HETATM   16  C10 UNL     1       6.830  -3.955  27.459  1.00  0.00     0.132 C
HETATM   17  N2  UNL     1       6.758  -2.695  27.125  1.00  0.00    -0.282 N
ATOM     18  H2  UNL     1       5.987  -2.400  26.523  1.00  0.00     0.189 HD
BRANCH  16  19
HETATM   19  O2  UNL     1       7.881  -4.309  28.270  1.00  0.00    -0.348 OA
ATOM     20  H2  UNL     1       8.579  -3.714  28.516  1.00  0.00     0.219 HD
ENDBRANCH  16  19
BRANCH  17  21
HETATM   21  N3  UNL     1       7.661  -1.738  27.537  1.00  0.00    -0.287 N
ATOM     22  H3  UNL     1       7.788  -1.606  28.540  1.00  0.00     0.188 HD
BRANCH  21  23
HETATM   23  C11 UNL     1       8.422  -0.930  26.669  1.00  0.00     0.106 C
HETATM   24  C12 UNL     1       7.947  -0.630  25.310  1.00  0.00     0.092 C
HETATM   25  N4  UNL     1       9.546  -0.459  27.095  1.00  0.00    -0.295 N
ATOM     26  H4  UNL     1       9.850  -0.684  28.042  1.00  0.00     0.187 HD
BRANCH  25  27
HETATM   27  N5  UNL     1      10.360   0.352  26.294  1.00  0.00    -0.344 N
ATOM     28  H52 UNL     1       9.996   0.652  25.389  1.00  0.00     0.176 HD
ATOM     29  H51 UNL     1      11.291   0.643  26.592  1.00  0.00     0.176 HD
ENDBRANCH  25  27
ENDBRANCH  21  23
ENDBRANCH  17  21
ENDBRANCH   1  16
TORSDOF 8
ENDMDL