MODEL 3
REMARK VINA RESULT: -7.083892827      1.383      1.587
REMARK  7 active torsions:
REMARK  status: ('A' for Active; 'I' for Inactive)
REMARK    1  A    between atoms: C2_2  and  C4_4
REMARK       I    between atoms: C4_4  and  N1_6
REMARK    2  A    between atoms: N1_6  and  C5_8
REMARK    3  A    between atoms: C5_8  and  C6_9
REMARK    4  A    between atoms: C6_9  and  O2_10
REMARK    5  A    between atoms: N2_12  and  O3_14
REMARK    6  A    between atoms: N3_18  and  C9_19
REMARK    7  A    between atoms: C9_19  and  C10_20
ROOT
HETATM    1  C5  UNL     1       4.569  -2.830  21.670  1.00  0.00     0.102 C
HETATM    2  C7  UNL     1       3.918  -3.220  22.949  1.00  0.00     0.059 C
HETATM    3  C8  UNL     1       4.808  -3.708  24.034  1.00  0.00     0.120 C
HETATM    4  N3  UNL     1       5.797  -4.622  23.595  1.00  0.00    -0.408 N
HETATM    5  C14 UNL     1       6.387  -4.398  22.324  1.00  0.00     0.120 C
HETATM    6  C15 UNL     1       6.031  -3.142  21.620  1.00  0.00     0.059 C
ENDROOT
BRANCH   1   7
HETATM    7  N1  UNL     1       4.398  -1.431  21.327  1.00  0.00    -0.344 N
HETATM    8  C4  UNL     1       3.176  -0.740  21.255  1.00  0.00     0.222 C
HETATM    9  O1  UNL     1       2.101  -1.317  21.491  1.00  0.00    -0.273 OA
ATOM     10  H1  UNL     1       5.243  -0.899  21.118  1.00  0.00     0.163 HD
BRANCH   8  11
HETATM   11  C2  UNL     1       3.159   0.687  20.894  1.00  0.00     0.070 C
HETATM   12  C1  UNL     1       4.239   1.471  21.611  1.00  0.00     0.019 C
HETATM   13  C3  UNL     1       3.336   0.897  19.405  1.00  0.00     0.019 C
ENDBRANCH   8  11
ENDBRANCH   1   7
BRANCH   1  14
HETATM   14  C6  UNL     1       3.899  -3.627  20.572  1.00  0.00     0.164 C
HETATM   15  N2  UNL     1       4.393  -3.713  19.395  1.00  0.00    -0.249 N
ATOM     16  H2  UNL     1       5.265  -3.236  19.166  1.00  0.00     0.196 HD
BRANCH  14  17
HETATM   17  O2  UNL     1       2.713  -4.281  20.858  1.00  0.00    -0.346 OA
ATOM     18  H2  UNL     1       1.948  -3.761  21.073  1.00  0.00     0.219 HD
ENDBRANCH  14  17
BRANCH  15  19
HETATM   19  O3  UNL     1       3.738  -4.450  18.445  1.00  0.00    -0.288 OA
ATOM     20  H3  UNL     1       4.238  -4.859  17.748  1.00  0.00     0.244 HD
ENDBRANCH  15  19
ENDBRANCH   1  14
BRANCH   4  21
HETATM   21  C9  UNL     1       6.764  -4.971  24.614  1.00  0.00     0.177 C
BRANCH  21  22
HETATM   22  C10 UNL     1       6.194  -4.653  25.968  1.00  0.00     0.276 C
HETATM   23  O4  UNL     1       6.987  -3.714  26.632  1.00  0.00    -0.360 OA
HETATM   24  C11 UNL     1       6.814  -3.783  27.992  1.00  0.00     0.173 C
HETATM   25  C12 UNL     1       7.295  -5.115  28.513  1.00  0.00     0.053 C
HETATM   26  C13 UNL     1       7.233  -6.095  27.339  1.00  0.00     0.173 C
HETATM   27  O5  UNL     1       6.037  -5.832  26.686  1.00  0.00    -0.360 OA
ENDBRANCH  21  22
ENDBRANCH   4  21
TORSDOF 7
ENDMDL