MODEL 2
REMARK VINA RESULT: -6.977519985      1.757      5.884
REMARK  6 active torsions:
REMARK  status: ('A' for Active; 'I' for Inactive)
REMARK    1  A    between atoms: C4_4  and  C5_5
REMARK    2  A    between atoms: C5_5  and  O1_6
REMARK    3  A    between atoms: O1_6  and  C6_7
REMARK    4  A    between atoms: C8_9  and  C9_10
REMARK    5  A    between atoms: C10_13  and  O4_14
REMARK    6  A    between atoms: C16_23  and  O7_24
ROOT
HETATM    1  C6  UNL     1       5.243  -4.818  23.144  1.00  0.00     0.179 C
HETATM    2  C7  UNL     1       5.572  -3.407  22.953  1.00  0.00     0.024 C
HETATM    3  C8  UNL     1       6.267  -2.702  23.803  1.00  0.00     0.051 C
HETATM    4  C10 UNL     1       6.783  -3.288  25.047  1.00  0.00     0.223 C
HETATM    5  C11 UNL     1       5.967  -4.486  25.528  1.00  0.00     0.224 C
HETATM    6  O5  UNL     1       4.692  -4.105  25.823  1.00  0.00    -0.350 OA
HETATM    7  C12 UNL     1       4.077  -4.922  26.738  1.00  0.00     0.174 C
HETATM    8  C13 UNL     1       4.837  -4.819  28.030  1.00  0.00     0.058 C
HETATM    9  C14 UNL     1       6.314  -5.011  27.787  1.00  0.00     0.123 C
HETATM   10  C15 UNL     1       7.082  -3.993  28.601  1.00  0.00     0.040 C
HETATM   11  O6  UNL     1       6.693  -5.105  26.489  1.00  0.00    -0.345 OA
HETATM   12  C16 UNL     1       5.920  -5.430  24.326  1.00  0.00     0.216 C
ENDROOT
BRANCH   1  13
HETATM   13  O1  UNL     1       3.857  -5.043  23.154  1.00  0.00    -0.376 OA
BRANCH  13  14
HETATM   14  C5  UNL     1       3.328  -4.597  21.985  1.00  0.00     0.196 C
BRANCH  14  15
HETATM   15  C4  UNL     1       3.309  -5.536  20.858  1.00  0.00     0.001 C
HETATM   16  C2  UNL     1       3.926  -5.454  19.714  1.00  0.00    -0.089 C
HETATM   17  C1  UNL     1       3.778  -6.512  18.696  1.00  0.00     0.042 C
HETATM   18  C3  UNL     1       4.790  -4.296  19.413  1.00  0.00     0.042 C
ENDBRANCH  14  15
ENDBRANCH  13  14
ENDBRANCH   1  13
BRANCH  12  19
HETATM   19  O7  UNL     1       7.264  -5.660  23.959  1.00  0.00    -0.387 OA
ATOM     20  H7  UNL     1       7.775  -5.659  24.759  1.00  0.00     0.210 HD
ENDBRANCH  12  19
BRANCH   3  21
HETATM   21  C9  UNL     1       6.565  -1.276  23.547  1.00  0.00     0.207 C
HETATM   22  O2  UNL     1       5.640  -0.502  23.165  1.00  0.00    -0.644 OA
HETATM   23  O3  UNL     1       7.851  -0.832  23.735  1.00  0.00    -0.644 OA
ENDBRANCH   3  21
BRANCH   4  24
HETATM   24  O4  UNL     1       6.805  -2.290  26.025  1.00  0.00    -0.385 OA
ATOM     25  H4  UNL     1       6.347  -2.614  26.791  1.00  0.00     0.210 HD
ENDBRANCH   4  24
TORSDOF 6
ENDMDL