MODEL 5
REMARK VINA RESULT: -7.326978219      4.549      7.417
REMARK  5 active torsions:
REMARK  status: ('A' for Active; 'I' for Inactive)
REMARK    1  A    between atoms: C6_6  and  N1_7
REMARK    2  A    between atoms: C8_9  and  C9_10
REMARK    3  A    between atoms: C11_12  and  O1_13
REMARK    4  A    between atoms: C12_15  and  C13_16
REMARK    5  A    between atoms: C13_16  and  S1_17
ROOT
HETATM    1  N1  UNL     1       6.126  -3.838  25.860  1.00  0.00    -0.280 N
HETATM    2  C7  UNL     1       5.732  -3.641  24.601  1.00  0.00     0.135 A
HETATM    3  C8  UNL     1       6.207  -2.440  24.136  1.00  0.00     0.045 A
HETATM    4  N2  UNL     1       6.909  -1.924  25.185  1.00  0.00    -0.286 N
ATOM      5  H2  UNL     1       7.401  -1.030  25.188  1.00  0.00     0.184 HD
HETATM    6  N3  UNL     1       6.844  -2.786  26.211  1.00  0.00    -0.020 NA
ENDROOT
BRANCH   3   7
HETATM    7  C9  UNL     1       6.007  -1.842  22.808  1.00  0.00     0.041 C
HETATM    8  C10 UNL     1       5.044  -0.691  22.819  1.00  0.00     0.043 C
HETATM    9  C11 UNL     1       3.799  -1.129  22.095  1.00  0.00     0.124 C
HETATM   10  C12 UNL     1       3.983  -2.561  21.717  1.00  0.00     0.032 C
HETATM   11  C14 UNL     1       5.460  -2.861  21.833  1.00  0.00     0.019 C
BRANCH   9  12
HETATM   12  O1  UNL     1       2.666  -0.913  22.889  1.00  0.00    -0.395 OA
ATOM     13  H1  UNL     1       1.874  -1.089  22.396  1.00  0.00     0.210 HD
ENDBRANCH   9  12
BRANCH  10  14
HETATM   14  C13 UNL     1       3.470  -2.819  20.317  1.00  0.00     0.172 C
BRANCH  14  15
HETATM   15  S1  UNL     1       1.858  -3.611  20.381  1.00  0.00     0.102 S
HETATM   16  O2  UNL     1       1.999  -4.909  21.137  1.00  0.00    -0.595 OA
HETATM   17  O3  UNL     1       1.379  -3.861  18.998  1.00  0.00    -0.595 OA
HETATM   18  O4  UNL     1       0.757  -2.595  21.135  1.00  0.00    -0.595 OA
ENDBRANCH  14  15
ENDBRANCH  10  14
ENDBRANCH   3   7
BRANCH   1  19
HETATM   19  C6  UNL     1       5.848  -4.960  26.711  1.00  0.00     0.109 C
HETATM   20  C2  UNL     1       4.588  -4.771  27.529  1.00  0.00     0.006 C
HETATM   21  C1  UNL     1       3.341  -5.097  26.785  1.00  0.00     0.012 C
HETATM   22  C3  UNL     1       4.860  -5.731  28.685  1.00  0.00     0.006 C
HETATM   23  C4  UNL     1       6.260  -5.284  29.082  1.00  0.00     0.002 C
HETATM   24  C5  UNL     1       6.944  -5.179  27.744  1.00  0.00     0.027 C
ENDBRANCH   1  19
TORSDOF 5
ENDMDL