MODEL 2
REMARK VINA RESULT: -7.253693263      1.602      5.815
REMARK  5 active torsions:
REMARK  status: ('A' for Active; 'I' for Inactive)
REMARK    1  A    between atoms: N1_2  and  C2_5
REMARK    2  A    between atoms: N2_7  and  C4_8
REMARK    3  A    between atoms: C6_10  and  N3_11
REMARK    4  A    between atoms: C11_19  and  N5_20
REMARK    5  A    between atoms: N5_20  and  C12_22
ROOT
HETATM    1  C4  UNL     1       5.646  -2.428  23.621  1.00  0.00     0.122 A
HETATM    2  C5  UNL     1       5.521  -3.418  24.587  1.00  0.00     0.097 A
HETATM    3  C6  UNL     1       6.268  -3.365  25.740  1.00  0.00     0.122 A
HETATM    4  N4  UNL     1       7.097  -2.352  25.890  1.00  0.00    -0.177 N
ATOM      5  H4  UNL     1       7.651  -2.317  26.746  1.00  0.00     0.185 HD
HETATM    6  C11 UNL     1       7.270  -1.336  24.975  1.00  0.00     0.681 A
HETATM    7  N6  UNL     1       6.515  -1.438  23.868  1.00  0.00    -0.177 N
ATOM      8  H6  UNL     1       6.610  -0.707  23.162  1.00  0.00     0.185 HD
ENDROOT
BRANCH   1   9
HETATM    9  N2  UNL     1       4.849  -2.523  22.446  1.00  0.00    -0.363 N
HETATM   10  C3  UNL     1       5.042  -2.890  21.073  1.00  0.00     0.159 C
HETATM   11  C2  UNL     1       3.886  -1.995  20.700  1.00  0.00     0.221 C
HETATM   12  C17 UNL     1       3.460  -2.274  22.148  1.00  0.00     0.159 C
BRANCH  11  13
HETATM   13  N1  UNL     1       2.980  -2.584  19.729  1.00  0.00    -0.072 N
HETATM   14  C1  UNL     1       2.565  -1.571  18.779  1.00  0.00     0.267 C
ATOM     15  H12 UNL     1       2.186  -3.046  20.172  1.00  0.00     0.277 HD
ATOM     16  H11 UNL     1       3.385  -3.400  19.269  1.00  0.00     0.277 HD
ENDBRANCH  11  13
ENDBRANCH   1   9
BRANCH   3  17
HETATM   17  N3  UNL     1       6.077  -4.437  26.672  1.00  0.00    -0.363 N
HETATM   18  C7  UNL     1       5.231  -4.282  27.837  1.00  0.00     0.150 C
HETATM   19  C8  UNL     1       5.091  -5.637  28.489  1.00  0.00     0.187 C
HETATM   20  O1  UNL     1       6.290  -6.200  28.836  1.00  0.00    -0.388 OA
HETATM   21  C9  UNL     1       7.267  -6.111  27.885  1.00  0.00     0.187 C
HETATM   22  C10 UNL     1       6.715  -5.722  26.514  1.00  0.00     0.150 C
ENDBRANCH   3  17
BRANCH   6  23
HETATM   23  N5  UNL     1       8.095  -0.464  25.284  1.00  0.00    -0.221 N
ATOM     24  H5  UNL     1       7.604   0.349  25.656  1.00  0.00     0.178 HD
BRANCH  23  25
HETATM   25  C12 UNL     1       9.453  -0.221  25.294  1.00  0.00     0.099 C
HETATM   26  C13 UNL     1       9.913   1.024  24.580  1.00  0.00     0.026 C
HETATM   27  C14 UNL     1      11.182   1.379  25.319  1.00  0.00     0.002 C
HETATM   28  C15 UNL     1      10.817   1.182  26.753  1.00  0.00     0.002 C
HETATM   29  C16 UNL     1       9.858   0.041  26.758  1.00  0.00     0.026 C
ENDBRANCH  23  25
ENDBRANCH   6  23
TORSDOF 5
ENDMDL