MODEL 3
REMARK VINA RESULT: -7.147293231      3.215      4.348
REMARK  6 active torsions:
REMARK  status: ('A' for Active; 'I' for Inactive)
REMARK    1  A    between atoms: C2_2  and  N1_3
REMARK    2  A    between atoms: C2_2  and  C11_18
REMARK       I    between atoms: N1_3  and  C3_5
REMARK    3  A    between atoms: C3_5  and  C4_7
REMARK    4  A    between atoms: C4_7  and  N2_9
REMARK       I    between atoms: N2_9  and  C6_11
REMARK       I    between atoms: C6_11  and  N3_13
REMARK       I    between atoms: C11_18  and  N4_20
REMARK    5  A    between atoms: N4_20  and  C12_22
REMARK    6  A    between atoms: C17_30  and  O4_31
ROOT
HETATM    1  C1  UNL     1      66.292   1.420  97.460  1.00  0.00     0.042 C
HETATM    2  C2  UNL     1      66.214   0.037  98.059  1.00  0.00     0.172 C
ENDROOT
BRANCH   2   3
HETATM    3  N1  UNL     1      66.350  -1.001  97.064  1.00  0.00    -0.346 N
HETATM    4  C3  UNL     1      65.371  -2.001  96.852  1.00  0.00     0.240 C
HETATM    5  O1  UNL     1      64.334  -1.996  97.556  1.00  0.00    -0.271 OA
ATOM      6  H1  UNL     1      67.191  -1.014  96.486  1.00  0.00     0.163 HD
BRANCH   4   7
HETATM    7  C4  UNL     1      65.524  -3.061  95.829  1.00  0.00     0.174 C
HETATM    8  C5  UNL     1      66.598  -4.038  96.302  1.00  0.00     0.042 C
BRANCH   7   9
HETATM    9  N2  UNL     1      64.299  -3.783  95.606  1.00  0.00    -0.330 N
HETATM   10  C6  UNL     1      63.587  -3.663  94.386  1.00  0.00     0.319 C
HETATM   11  O2  UNL     1      64.096  -2.885  93.514  1.00  0.00    -0.247 OA
HETATM   12  N3  UNL     1      62.386  -4.363  94.146  1.00  0.00    -0.334 N
HETATM   13  C7  UNL     1      61.584  -4.322  92.961  1.00  0.00     0.127 C
HETATM   14  C10 UNL     1      61.735  -5.255  95.054  1.00  0.00     0.127 C
HETATM   15  C8  UNL     1      61.356  -5.822  92.722  1.00  0.00     0.022 C
HETATM   16  C9  UNL     1      61.308  -6.387  94.127  1.00  0.00     0.022 C
ATOM     17  H2  UNL     1      63.937  -4.393  96.340  1.00  0.00     0.165 HD
ENDBRANCH   7   9
ENDBRANCH   4   7
ENDBRANCH   2   3
BRANCH   2  18
HETATM   18  C11 UNL     1      67.287  -0.053  99.091  1.00  0.00     0.240 C
HETATM   19  O3  UNL     1      67.991   0.956  99.289  1.00  0.00    -0.271 OA
HETATM   20  N4  UNL     1      67.479  -1.263  99.810  1.00  0.00    -0.352 N
ATOM     21  H4  UNL     1      66.893  -2.078  99.632  1.00  0.00     0.163 HD
BRANCH  20  22
HETATM   22  C12 UNL     1      68.528  -1.305 100.800  1.00  0.00     0.115 C
HETATM   23  C13 UNL     1      68.015  -1.165 102.217  1.00  0.00     0.061 C
HETATM   24  C14 UNL     1      69.238  -1.541 103.028  1.00  0.00     0.196 A
HETATM   25  N5  UNL     1      68.974  -2.497 104.084  1.00  0.00    -0.070 N
HETATM   26  C16 UNL     1      69.972  -2.537 102.188  1.00  0.00     0.073 A
HETATM   27  C15 UNL     1      69.598  -3.517 103.265  1.00  0.00     0.242 A
ATOM     28  H52 UNL     1      69.297  -2.324 105.035  1.00  0.00     0.277 HD
ATOM     29  H51 UNL     1      68.028  -2.626 104.444  1.00  0.00     0.277 HD
HETATM   30  C17 UNL     1      69.184  -2.683 100.898  1.00  0.00     0.148 C
BRANCH  30  31
HETATM   31  O4  UNL     1      68.162  -3.605 101.118  1.00  0.00    -0.393 OA
ATOM     32  H4  UNL     1      68.566  -4.385 101.480  1.00  0.00     0.210 HD
ENDBRANCH  30  31
ENDBRANCH  20  22
ENDBRANCH   2  18
TORSDOF 6
ENDMDL