MODEL 4
REMARK VINA RESULT: -7.440165069      2.225      3.367
REMARK  7 active torsions:
REMARK  status: ('A' for Active; 'I' for Inactive)
REMARK    1  A    between atoms: C2_3  and  C3_4
REMARK    2  A    between atoms: C4_6  and  N2_7
REMARK    3  A    between atoms: C9_12  and  C10_13
REMARK       I    between atoms: C10_13  and  N3_15
REMARK    4  A    between atoms: N3_15  and  C11_17
REMARK    5  A    between atoms: C13_19  and  N4_20
REMARK       I    between atoms: N4_20  and  C14_21
REMARK    6  A    between atoms: C16_24  and  O4_25
REMARK    7  A    between atoms: C17_27  and  O5_28
ROOT
HETATM    1  C1  UNL     1      65.178  -8.266 104.961  1.00  0.00     0.227 C
HETATM    2  N1  UNL     1      66.140  -7.812 105.333  1.00  0.00    -0.443 NA
HETATM    3  C2  UNL     1      67.353  -7.290 105.801  1.00  0.00     0.188 C
ENDROOT
BRANCH   3   4
HETATM    4  C3  UNL     1      68.059  -6.452 104.825  1.00  0.00     0.207 C
HETATM    5  O1  UNL     1      67.457  -5.301 104.415  1.00  0.00    -0.349 OA
HETATM    6  C4  UNL     1      68.311  -4.715 103.383  1.00  0.00     0.259 C
HETATM    7  C16 UNL     1      69.286  -5.780 103.074  1.00  0.00     0.199 C
HETATM    8  C17 UNL     1      68.463  -7.054 103.483  1.00  0.00     0.186 C
BRANCH   6   9
HETATM    9  N2  UNL     1      68.767  -3.540 103.916  1.00  0.00    -0.330 N
HETATM   10  C5  UNL     1      68.882  -3.316 105.300  1.00  0.00     0.067 C
HETATM   11  C6  UNL     1      70.259  -3.122 105.775  1.00  0.00     0.045 C
HETATM   12  C7  UNL     1      71.254  -2.612 104.847  1.00  0.00     0.011 C
HETATM   13  C8  UNL     1      70.951  -2.856 103.345  1.00  0.00     0.063 C
HETATM   14  C9  UNL     1      69.474  -2.553 103.217  1.00  0.00     0.081 C
BRANCH  14  15
HETATM   15  C10 UNL     1      69.014  -1.915 102.021  1.00  0.00     0.264 C
HETATM   16  O2  UNL     1      69.333  -2.397 100.913  1.00  0.00    -0.266 OA
HETATM   17  N3  UNL     1      68.207  -0.774 101.997  1.00  0.00    -0.348 N
ATOM     18  H3  UNL     1      68.013  -0.355 102.907  1.00  0.00     0.163 HD
BRANCH  17  19
HETATM   19  C11 UNL     1      67.624  -0.122 100.897  1.00  0.00     0.123 A
HETATM   20  C12 UNL     1      67.616   1.420 101.041  1.00  0.00     0.070 A
HETATM   21  C13 UNL     1      68.172   0.687  99.809  1.00  0.00     0.191 A
BRANCH  21  22
HETATM   22  N4  UNL     1      67.501   0.890  98.579  1.00  0.00    -0.408 NA
HETATM   23  C14 UNL     1      66.875   1.078  97.421  1.00  0.00     0.282 C
HETATM   24  C15 UNL     1      65.517   1.904  97.526  1.00  0.00     0.134 C
HETATM   25  O3  UNL     1      67.081   0.781  96.261  1.00  0.00    -0.258 OA
ENDBRANCH  21  22
ENDBRANCH  17  19
ENDBRANCH  14  15
ENDBRANCH   6   9
BRANCH   7  26
HETATM   26  O4  UNL     1      70.407  -5.836 103.848  1.00  0.00    -0.388 OA
ATOM     27  H4  UNL     1      70.508  -6.599 104.405  1.00  0.00     0.210 HD
ENDBRANCH   7  26
BRANCH   8  28
HETATM   28  O5  UNL     1      67.461  -7.164 102.566  1.00  0.00    -0.390 OA
ATOM     29  H5  UNL     1      66.860  -7.887 102.703  1.00  0.00     0.210 HD
ENDBRANCH   8  28
ENDBRANCH   3   4
TORSDOF 7
ENDMDL