MODEL 4
REMARK VINA RESULT: -6.551776516      3.611      4.877
REMARK  5 active torsions:
REMARK  status: ('A' for Active; 'I' for Inactive)
REMARK    1  A    between atoms: C1_2  and  C2_4
REMARK       I    between atoms: N2_8  and  C6_9
REMARK       I    between atoms: C6_9  and  N3_11
REMARK    2  A    between atoms: N3_11  and  C7_13
REMARK    3  A    between atoms: C7_13  and  C8_14
REMARK    4  A    between atoms: C12_20  and  C13_21
REMARK    5  A    between atoms: C12_20  and  C14_24
ROOT
HETATM    1  C7  UNL     1      69.937  -4.623 101.313  1.00  0.00     0.114 C
HETATM    2  C9  UNL     1      69.208  -5.318 102.399  1.00  0.00     0.041 C
HETATM    3  C10 UNL     1      69.247  -4.588 103.718  1.00  0.00     0.005 C
HETATM    4  C11 UNL     1      68.962  -3.139 103.603  1.00  0.00     0.030 C
HETATM    5  C12 UNL     1      69.666  -2.387 102.527  1.00  0.00     0.129 C
HETATM    6  C15 UNL     1      69.836  -3.142 101.263  1.00  0.00     0.070 C
ENDROOT
BRANCH   1   7
HETATM    7  N3  UNL     1      69.435  -5.112 100.020  1.00  0.00    -0.325 N
HETATM    8  C6  UNL     1      68.782  -6.349  99.825  1.00  0.00     0.320 C
HETATM    9  N2  UNL     1      68.330  -6.732  98.535  1.00  0.00    -0.321 N
HETATM   10  O2  UNL     1      68.565  -7.173 100.755  1.00  0.00    -0.247 OA
HETATM   11  C2  UNL     1      68.455  -5.987  97.282  1.00  0.00     0.178 C
HETATM   12  C5  UNL     1      67.652  -7.958  98.215  1.00  0.00     0.129 C
HETATM   13  C3  UNL     1      68.424  -7.022  96.194  1.00  0.00     0.036 C
HETATM   14  C4  UNL     1      68.318  -8.329  96.912  1.00  0.00     0.022 C
ATOM     15  H3  UNL     1      69.569  -4.515  99.204  1.00  0.00     0.165 HD
BRANCH  11  16
HETATM   16  C1  UNL     1      67.283  -5.091  97.099  1.00  0.00     0.254 C
HETATM   17  N1  UNL     1      66.090  -5.496  96.452  1.00  0.00    -0.060 NA
HETATM   18  O1  UNL     1      67.353  -3.921  97.538  1.00  0.00    -0.275 OA
ENDBRANCH  11  16
ENDBRANCH   1   7
BRANCH   1  19
HETATM   19  C8  UNL     1      71.362  -5.083 101.354  1.00  0.00     0.259 C
HETATM   20  N4  UNL     1      71.760  -6.081 102.254  1.00  0.00    -0.060 NA
HETATM   21  O3  UNL     1      72.182  -4.569 100.578  1.00  0.00    -0.274 OA
ENDBRANCH   1  19
BRANCH   5  22
HETATM   22  C13 UNL     1      68.797  -1.185 102.217  1.00  0.00     0.250 C
HETATM   23  N5  UNL     1      68.830  -0.526 100.970  1.00  0.00    -0.061 NA
HETATM   24  O4  UNL     1      68.016  -0.743 103.080  1.00  0.00    -0.275 OA
ENDBRANCH   5  22
BRANCH   5  25
HETATM   25  C14 UNL     1      70.941  -1.801 103.030  1.00  0.00     0.191 C
HETATM   26  O5  UNL     1      71.876  -1.521 102.283  1.00  0.00    -0.647 OA
HETATM   27  O6  UNL     1      71.045  -1.574 104.385  1.00  0.00    -0.647 OA
ENDBRANCH   5  25
TORSDOF 5
ENDMDL