MODEL 4
REMARK VINA RESULT: -6.690665692      4.230      5.943
REMARK  7 active torsions:
REMARK  status: ('A' for Active; 'I' for Inactive)
REMARK       I    between atoms: N1_3  and  C3_5
REMARK    1  A    between atoms: C3_5  and  C4_7
REMARK    2  A    between atoms: C4_7  and  N2_9
REMARK       I    between atoms: N2_9  and  C6_11
REMARK    3  A    between atoms: C6_11  and  C7_13
REMARK    4  A    between atoms: C9_15  and  N3_16
REMARK       I    between atoms: N4_21  and  C11_22
REMARK       I    between atoms: C11_22  and  N5_24
REMARK    5  A    between atoms: N5_24  and  C12_26
REMARK    6  A    between atoms: C12_26  and  C13_27
REMARK    7  A    between atoms: C12_26  and  C14_30
ROOT
HETATM    1  C1  UNL     1      61.663   4.218  94.811  1.00  0.00     0.037 C
HETATM    2  C2  UNL     1      61.900   3.102  95.231  1.00  0.00     0.002 C
HETATM    3  N1  UNL     1      62.154   1.834  95.756  1.00  0.00    -0.285 N
ATOM      4  H1  UNL     1      61.422   1.127  95.689  1.00  0.00     0.179 HD
HETATM    5  C3  UNL     1      63.380   1.477  96.379  1.00  0.00     0.251 C
HETATM    6  O1  UNL     1      64.321   2.309  96.515  1.00  0.00    -0.270 OA
ENDROOT
BRANCH   5   7
HETATM    7  C4  UNL     1      63.530   0.094  96.893  1.00  0.00     0.173 C
HETATM    8  C5  UNL     1      62.853  -0.853  95.884  1.00  0.00     0.042 C
BRANCH   7   9
HETATM    9  N2  UNL     1      64.905  -0.216  96.983  1.00  0.00    -0.346 N
HETATM   10  C6  UNL     1      65.438  -1.297  97.791  1.00  0.00     0.241 C
HETATM   11  O2  UNL     1      64.677  -2.076  98.348  1.00  0.00    -0.271 OA
ATOM     12  H2  UNL     1      65.563   0.352  96.449  1.00  0.00     0.163 HD
BRANCH  10  13
HETATM   13  C7  UNL     1      66.911  -1.323  97.871  1.00  0.00     0.183 C
HETATM   14  C8  UNL     1      67.349   0.194  98.054  1.00  0.00     0.069 C
HETATM   15  C9  UNL     1      67.772   0.226  99.486  1.00  0.00     0.204 C
HETATM   16  C10 UNL     1      66.990  -0.989 100.072  1.00  0.00     0.161 C
HETATM   17  N4  UNL     1      67.498  -1.910  99.025  1.00  0.00    -0.319 N
HETATM   18  C11 UNL     1      68.424  -2.939  99.210  1.00  0.00     0.319 C
HETATM   19  O3  UNL     1      68.919  -3.617  98.285  1.00  0.00    -0.247 OA
HETATM   20  N5  UNL     1      68.858  -3.227 100.569  1.00  0.00    -0.328 N
ATOM     21  H5  UNL     1      68.421  -2.748 101.356  1.00  0.00     0.165 HD
BRANCH  15  22
HETATM   22  N3  UNL     1      67.530   1.397 100.222  1.00  0.00    -0.073 N
ATOM     23  H33 UNL     1      67.337   2.163  99.576  1.00  0.00     0.274 HD
ATOM     24  H32 UNL     1      66.631   1.313 100.697  1.00  0.00     0.274 HD
ATOM     25  H31 UNL     1      68.236   1.697 100.894  1.00  0.00     0.274 HD
ENDBRANCH  15  22
BRANCH  20  26
HETATM   26  C12 UNL     1      69.906  -4.192 100.803  1.00  0.00     0.190 C
BRANCH  26  27
HETATM   27  C13 UNL     1      71.154  -3.459 100.912  1.00  0.00     0.197 C
HETATM   28  O4  UNL     1      71.450  -2.551 101.653  1.00  0.00    -0.646 OA
HETATM   29  O5  UNL     1      72.207  -3.887  99.999  1.00  0.00    -0.646 OA
ENDBRANCH  26  27
BRANCH  26  30
HETATM   30  C14 UNL     1      69.594  -4.868 102.121  1.00  0.00     0.011 C
HETATM   31  C15 UNL     1      68.387  -5.762 102.079  1.00  0.00     0.012 C
HETATM   32  C16 UNL     1      70.736  -5.496 102.815  1.00  0.00     0.012 C
ENDBRANCH  26  30
ENDBRANCH  20  26
ENDBRANCH  10  13
ENDBRANCH   7   9
ENDBRANCH   5   7
TORSDOF 7
ENDMDL