MODEL 1
REMARK VINA RESULT: -6.908046099      0.000      0.000
REMARK  8 active torsions:
REMARK  status: ('A' for Active; 'I' for Inactive)
REMARK    1  A    between atoms: C3_3  and  N1_4
REMARK    2  A    between atoms: N1_4  and  C4_6
REMARK    3  A    between atoms: C4_6  and  C5_10
REMARK       I    between atoms: N3_15  and  C10_16
REMARK       I    between atoms: C10_16  and  N4_18
REMARK    4  A    between atoms: C12_20  and  O2_21
REMARK    5  A    between atoms: C14_24  and  C15_25
REMARK       I    between atoms: C15_25  and  N5_27
REMARK    6  A    between atoms: N5_27  and  C16_29
REMARK    7  A    between atoms: C16_29  and  C17_30
REMARK    8  A    between atoms: C17_30  and  O4_31
ROOT
HETATM    1  C1  UNL     1      67.635   0.733 101.310  1.00  0.00     0.103 C
HETATM    2  C2  UNL     1      67.974  -0.302 101.877  1.00  0.00    -0.143 C
HETATM    3  C3  UNL     1      68.364  -1.561 102.527  1.00  0.00     0.140 C
ENDROOT
BRANCH   3   4
HETATM    4  N1  UNL     1      69.330  -1.347 103.528  1.00  0.00    -0.348 N
ATOM      5  H1  UNL     1      69.084  -0.717 104.291  1.00  0.00     0.167 HD
BRANCH   4   6
HETATM    6  C4  UNL     1      70.609  -1.933 103.560  1.00  0.00     0.098 C
HETATM    7  N2  UNL     1      71.497  -1.470 102.717  1.00  0.00    -0.387 N
ATOM      8  H22 UNL     1      71.238  -0.706 102.093  1.00  0.00     0.157 HD
ATOM      9  H21 UNL     1      72.424  -1.895 102.740  1.00  0.00     0.157 HD
BRANCH   6  10
HETATM   10  C5  UNL     1      70.991  -3.060 104.479  1.00  0.00     0.156 C
HETATM   11  C6  UNL     1      71.184  -2.697 105.884  1.00  0.00     0.033 C
HETATM   12  C7  UNL     1      70.587  -3.544 106.943  1.00  0.00     0.004 C
HETATM   13  C8  UNL     1      69.824  -4.743 106.480  1.00  0.00     0.020 C
HETATM   14  C9  UNL     1      69.010  -4.233 105.259  1.00  0.00     0.128 C
HETATM   15  N3  UNL     1      69.975  -4.111 104.224  1.00  0.00    -0.322 N
HETATM   16  C10 UNL     1      70.119  -4.824 103.057  1.00  0.00     0.325 C
HETATM   17  O1  UNL     1      71.167  -4.542 102.346  1.00  0.00    -0.247 OA
HETATM   18  N4  UNL     1      69.279  -5.822 102.523  1.00  0.00    -0.297 N
HETATM   19  C11 UNL     1      68.053  -6.294 103.030  1.00  0.00     0.101 C
HETATM   20  C14 UNL     1      69.637  -6.526 101.309  1.00  0.00     0.188 C
HETATM   21  C12 UNL     1      67.545  -7.318 102.012  1.00  0.00     0.159 C
HETATM   22  C13 UNL     1      68.861  -7.809 101.384  1.00  0.00     0.072 C
BRANCH  21  23
HETATM   23  O2  UNL     1      66.891  -8.329 102.678  1.00  0.00    -0.390 OA
ATOM     24  H2  UNL     1      65.954  -8.197 102.602  1.00  0.00     0.210 HD
ENDBRANCH  21  23
BRANCH  20  25
HETATM   25  C15 UNL     1      69.392  -5.744 100.075  1.00  0.00     0.241 C
HETATM   26  O3  UNL     1      69.166  -6.377  99.038  1.00  0.00    -0.271 OA
HETATM   27  N5  UNL     1      69.423  -4.349 100.116  1.00  0.00    -0.357 N
ATOM     28  H5  UNL     1      69.628  -3.909 101.013  1.00  0.00     0.162 HD
BRANCH  27  29
HETATM   29  C16 UNL     1      69.191  -3.500  99.004  1.00  0.00     0.148 C
BRANCH  29  30
HETATM   30  C17 UNL     1      68.004  -2.623  99.049  1.00  0.00     0.183 C
BRANCH  30  31
HETATM   31  O4  UNL     1      67.041  -2.751  98.100  1.00  0.00    -0.399 OA
ATOM     32  H4  UNL     1      66.217  -3.168  98.323  1.00  0.00     0.209 HD
ENDBRANCH  30  31
ENDBRANCH  29  30
ENDBRANCH  27  29
ENDBRANCH  20  25
ENDBRANCH   6  10
ENDBRANCH   4   6
ENDBRANCH   3   4
TORSDOF 8
ENDMDL