MODEL 3
REMARK VINA RESULT: -7.791050622      1.138      1.497
REMARK  6 active torsions:
REMARK  status: ('A' for Active; 'I' for Inactive)
REMARK       I    between atoms: C1_4  and  N3_6
REMARK    1  A    between atoms: C5_10  and  C6_11
REMARK       I    between atoms: C6_11  and  N4_13
REMARK    2  A    between atoms: N4_13  and  C7_15
REMARK    3  A    between atoms: C7_15  and  C8_16
REMARK    4  A    between atoms: C7_15  and  C9_19
REMARK    5  A    between atoms: C9_19  and  N6_21
REMARK    6  A    between atoms: N6_21  and  C10_23
ROOT
HETATM    1  C6  UNL     1      68.644  -3.025  99.908  1.00  0.00     0.224 C
HETATM    2  O1  UNL     1      68.380  -3.787  98.944  1.00  0.00    -0.273 OA
HETATM    3  N4  UNL     1      69.173  -3.567 101.105  1.00  0.00    -0.342 N
ATOM      4  H4  UNL     1      69.388  -2.951 101.889  1.00  0.00     0.163 HD
ENDROOT
BRANCH   3   5
HETATM    5  C7  UNL     1      69.411  -4.994 101.224  1.00  0.00     0.235 C
BRANCH   5   6
HETATM    6  C8  UNL     1      70.876  -5.235 101.397  1.00  0.00     0.260 C
HETATM    7  N5  UNL     1      71.394  -6.454 101.874  1.00  0.00    -0.060 NA
HETATM    8  O2  UNL     1      71.646  -4.263 101.083  1.00  0.00    -0.274 OA
ENDBRANCH   5   6
BRANCH   5   9
HETATM    9  C9  UNL     1      68.658  -5.579 102.354  1.00  0.00     0.105 C
HETATM   10  S1  UNL     1      67.993  -7.055 102.183  1.00  0.00    -0.063 SA
BRANCH   9  11
HETATM   11  N6  UNL     1      68.511  -4.889 103.555  1.00  0.00    -0.378 N
ATOM     12  H6  UNL     1      67.568  -4.636 103.848  1.00  0.00     0.160 HD
BRANCH  11  13
HETATM   13  C10 UNL     1      69.615  -4.508 104.416  1.00  0.00     0.086 C
HETATM   14  C11 UNL     1      69.530  -5.069 105.791  1.00  0.00     0.051 C
HETATM   15  C12 UNL     1      70.188  -4.073 106.745  1.00  0.00     0.169 C
HETATM   16  O3  UNL     1      71.380  -3.590 106.159  1.00  0.00    -0.391 OA
HETATM   17  C13 UNL     1      71.099  -2.704 105.134  1.00  0.00     0.169 C
HETATM   18  C14 UNL     1      69.756  -3.008 104.497  1.00  0.00     0.051 C
ENDBRANCH  11  13
ENDBRANCH   9  11
ENDBRANCH   5   9
ENDBRANCH   3   5
BRANCH   1  19
HETATM   19  C5  UNL     1      68.384  -1.579  99.736  1.00  0.00     0.096 C
HETATM   20  C4  UNL     1      68.248  -0.869 101.059  1.00  0.00     0.017 C
HETATM   21  C3  UNL     1      67.544   0.446 100.956  1.00  0.00     0.021 C
HETATM   22  C2  UNL     1      67.526   1.011  99.561  1.00  0.00     0.125 C
HETATM   23  N3  UNL     1      67.132   0.079  98.558  1.00  0.00    -0.355 N
HETATM   24  C1  UNL     1      66.667   0.538  97.301  1.00  0.00     0.183 C
HETATM   25  C15 UNL     1      67.210  -1.338  98.826  1.00  0.00     0.139 C
HETATM   26  N1  UNL     1      65.419   0.432  97.000  1.00  0.00    -0.374 N
HETATM   27  N2  UNL     1      67.554   1.117  96.359  1.00  0.00    -0.064 NA
ATOM     28  H12 UNL     1      65.085   0.762  96.095  1.00  0.00     0.158 HD
ATOM     29  H11 UNL     1      64.782   0.015  97.678  1.00  0.00     0.158 HD
ENDBRANCH   1  19
TORSDOF 6
ENDMDL