MODEL 4
REMARK VINA RESULT: -7.658519096      2.124      7.572
REMARK  7 active torsions:
REMARK  status: ('A' for Active; 'I' for Inactive)
REMARK       I    between atoms: C2_2  and  N1_4
REMARK    1  A    between atoms: N1_4  and  C3_6
REMARK    2  A    between atoms: C4_7  and  N2_8
REMARK    3  A    between atoms: N2_8  and  N3_10
REMARK    4  A    between atoms: C5_15  and  O2_16
REMARK    5  A    between atoms: C6_18  and  N5_19
REMARK       I    between atoms: N5_19  and  C7_21
REMARK    6  A    between atoms: C7_21  and  C8_23
REMARK    7  A    between atoms: C11_26  and  C12_27
REMARK       I    between atoms: N6_30  and  C13_31
ROOT
HETATM    1  C3  UNL     1      70.004  -3.476 103.172  1.00  0.00     0.136 C
HETATM    2  C4  UNL     1      70.985  -3.279 104.313  1.00  0.00     0.156 C
HETATM    3  C5  UNL     1      70.968  -1.799 103.996  1.00  0.00     0.169 C
HETATM    4  C6  UNL     1      69.642  -2.007 103.315  1.00  0.00     0.140 C
ENDROOT
BRANCH   4   5
HETATM    5  N5  UNL     1      69.571  -1.305 102.051  1.00  0.00    -0.350 N
HETATM    6  C7  UNL     1      68.373  -0.826 101.522  1.00  0.00     0.241 C
HETATM    7  O3  UNL     1      67.308  -1.025 102.184  1.00  0.00    -0.271 OA
ATOM      8  H5  UNL     1      70.432  -1.156 101.526  1.00  0.00     0.163 HD
BRANCH   6   9
HETATM    9  C8  UNL     1      68.223  -0.098 100.234  1.00  0.00     0.180 C
HETATM   10  C9  UNL     1      67.269   1.074 100.436  1.00  0.00     0.038 C
HETATM   11  C10 UNL     1      66.762   1.338  99.075  1.00  0.00     0.039 C
HETATM   12  C11 UNL     1      66.586  -0.066  98.493  1.00  0.00     0.189 C
HETATM   13  N6  UNL     1      67.578  -0.850  99.198  1.00  0.00    -0.324 N
HETATM   14  C13 UNL     1      67.939  -2.202  98.892  1.00  0.00     0.217 C
HETATM   15  C14 UNL     1      67.180  -2.997  97.908  1.00  0.00     0.117 C
HETATM   16  O6  UNL     1      68.920  -2.746  99.469  1.00  0.00    -0.274 OA
BRANCH  12  17
HETATM   17  C12 UNL     1      66.836   0.005  97.021  1.00  0.00     0.197 C
HETATM   18  O4  UNL     1      67.660   0.740  96.461  1.00  0.00    -0.646 OA
HETATM   19  O5  UNL     1      66.072  -0.832  96.214  1.00  0.00    -0.646 OA
ENDBRANCH  12  17
ENDBRANCH   6   9
ENDBRANCH   4   5
BRANCH   1  20
HETATM   20  N1  UNL     1      68.973  -4.393 103.537  1.00  0.00    -0.353 N
HETATM   21  C2  UNL     1      69.084  -5.754 103.207  1.00  0.00     0.214 C
HETATM   22  C1  UNL     1      68.030  -6.727 103.572  1.00  0.00     0.117 C
HETATM   23  O1  UNL     1      70.092  -6.165 102.591  1.00  0.00    -0.274 OA
ATOM     24  H1  UNL     1      68.151  -4.057 104.039  1.00  0.00     0.163 HD
ENDBRANCH   1  20
BRANCH   3  25
HETATM   25  O2  UNL     1      71.954  -1.544 103.018  1.00  0.00    -0.391 OA
ATOM     26  H2  UNL     1      71.529  -1.501 102.170  1.00  0.00     0.210 HD
ENDBRANCH   3  25
BRANCH   2  27
HETATM   27  N2  UNL     1      70.488  -3.623 105.614  1.00  0.00    -0.313 N
ATOM     28  H2  UNL     1      69.983  -4.503 105.724  1.00  0.00     0.182 HD
BRANCH  27  29
HETATM   29  N3  UNL     1      70.643  -2.905 106.613  1.00  0.00    -0.253 N
HETATM   30  N4  UNL     1      70.523  -2.486 107.751  1.00  0.00    -0.331 N
ATOM     31  H42 UNL     1      69.871  -3.200 108.075  1.00  0.00     0.178 HD
ATOM     32  H41 UNL     1      70.649  -1.894 108.572  1.00  0.00     0.178 HD
ATOM     33  H3  UNL     1      71.295  -2.216 106.237  1.00  0.00     0.207 HD
ENDBRANCH  27  29
ENDBRANCH   2  27
TORSDOF 7
ENDMDL