MODEL 2
REMARK VINA RESULT: -6.798776672      3.454      7.103
REMARK  6 active torsions:
REMARK  status: ('A' for Active; 'I' for Inactive)
REMARK    1  A    between atoms: C3_5  and  C4_6
REMARK    2  A    between atoms: C3_5  and  N4_17
REMARK    3  A    between atoms: C4_6  and  C5_8
REMARK    4  A    between atoms: C5_8  and  N3_9
REMARK    5  A    between atoms: C5_8  and  C8_14
REMARK       I    between atoms: N3_9  and  C6_11
REMARK       I    between atoms: N5_20  and  C13_21
REMARK    6  A    between atoms: C15_27  and  C16_28
ROOT
HETATM    1  C1  UNL     1      69.372  -5.261  98.000  1.00  0.00     0.037 C
HETATM    2  C2  UNL     1      68.784  -4.217  98.093  1.00  0.00     0.001 C
HETATM    3  N1  UNL     1      68.109  -3.040  98.171  1.00  0.00    -0.300 N
ATOM      4  H1  UNL     1      67.616  -2.781  97.317  1.00  0.00     0.177 HD
HETATM    5  C3  UNL     1      67.984  -2.206  99.118  1.00  0.00     0.138 C
ENDROOT
BRANCH   5   6
HETATM    6  C4  UNL     1      67.224  -0.957  99.093  1.00  0.00     0.117 C
HETATM    7  N2  UNL     1      67.861   0.016  99.989  1.00  0.00    -0.096 NA
BRANCH   6   8
HETATM    8  C5  UNL     1      66.719  -0.374  97.855  1.00  0.00     0.064 C
BRANCH   8   9
HETATM    9  N3  UNL     1      65.380  -0.907  97.533  1.00  0.00    -0.326 N
HETATM   10  C6  UNL     1      65.113  -1.835  96.529  1.00  0.00     0.218 C
HETATM   11  C7  UNL     1      63.734  -2.309  96.286  1.00  0.00     0.117 C
HETATM   12  O1  UNL     1      66.052  -2.278  95.823  1.00  0.00    -0.274 OA
ATOM     13  H3  UNL     1      64.591  -0.570  98.086  1.00  0.00     0.169 HD
ENDBRANCH   8   9
BRANCH   8  14
HETATM   14  C8  UNL     1      66.815   1.068  97.549  1.00  0.00    -0.059 C
HETATM   15  C9  UNL     1      67.844   1.479  96.545  1.00  0.00     0.045 C
HETATM   16  C10 UNL     1      65.540   1.827  97.539  1.00  0.00     0.045 C
ENDBRANCH   8  14
ENDBRANCH   6   8
ENDBRANCH   5   6
BRANCH   5  17
HETATM   17  N4  UNL     1      68.733  -2.549 100.328  1.00  0.00    -0.347 N
HETATM   18  C11 UNL     1      70.167  -2.412 100.360  1.00  0.00     0.145 C
HETATM   19  C12 UNL     1      70.842  -3.402 101.245  1.00  0.00     0.145 C
HETATM   20  N5  UNL     1      70.026  -4.375 101.879  1.00  0.00    -0.352 N
HETATM   21  C13 UNL     1      70.628  -5.342 102.768  1.00  0.00     0.184 C
HETATM   22  C14 UNL     1      68.616  -4.484 101.708  1.00  0.00     0.162 C
HETATM   23  N6  UNL     1      70.554  -5.246 104.048  1.00  0.00    -0.374 N
HETATM   24  N7  UNL     1      71.331  -6.447 102.218  1.00  0.00    -0.064 NA
ATOM     25  H62 UNL     1      70.049  -4.453 104.443  1.00  0.00     0.158 HD
ATOM     26  H61 UNL     1      70.978  -5.930 104.675  1.00  0.00     0.158 HD
HETATM   27  C15 UNL     1      68.087  -3.048 101.506  1.00  0.00     0.205 C
BRANCH  27  28
HETATM   28  C16 UNL     1      68.404  -2.337 102.750  1.00  0.00     0.198 C
HETATM   29  O2  UNL     1      68.823  -1.183 102.876  1.00  0.00    -0.646 OA
HETATM   30  O3  UNL     1      68.204  -3.060 103.942  1.00  0.00    -0.646 OA
ENDBRANCH  27  28
ENDBRANCH   5  17
TORSDOF 6
ENDMDL