MODEL 3
REMARK VINA RESULT: -6.814391751      1.870      3.018
REMARK  9 active torsions:
REMARK  status: ('A' for Active; 'I' for Inactive)
REMARK    1  A    between atoms: N1_2  and  C2_5
REMARK    2  A    between atoms: C4_7  and  C5_8
REMARK       I    between atoms: C5_8  and  N2_10
REMARK    3  A    between atoms: N2_10  and  C6_12
REMARK    4  A    between atoms: C6_12  and  C7_13
REMARK    5  A    between atoms: C7_13  and  N3_14
REMARK    6  A    between atoms: C14_21  and  C15_22
REMARK    7  A    between atoms: C15_22  and  O2_23
REMARK    8  A    between atoms: C17_27  and  O4_28
REMARK    9  A    between atoms: C18_30  and  O5_31
ROOT
HETATM    1  C2  UNL     1      69.428  -5.797 102.712  1.00  0.00     0.218 C
HETATM    2  C3  UNL     1      68.528  -4.682 102.234  1.00  0.00     0.060 C
HETATM    3  C4  UNL     1      69.175  -3.379 102.732  1.00  0.00     0.099 C
HETATM    4  C14 UNL     1      70.583  -3.403 102.172  1.00  0.00     0.166 C
HETATM    5  O3  UNL     1      71.347  -4.344 102.839  1.00  0.00    -0.372 OA
HETATM    6  C16 UNL     1      70.598  -5.292 103.508  1.00  0.00     0.183 C
HETATM    7  C17 UNL     1      69.996  -4.614 104.745  1.00  0.00     0.179 C
HETATM    8  C18 UNL     1      69.178  -3.465 104.247  1.00  0.00     0.170 C
ENDROOT
BRANCH   3   9
HETATM    9  C5  UNL     1      68.407  -2.211 102.280  1.00  0.00     0.231 C
HETATM   10  O1  UNL     1      68.204  -1.279 103.091  1.00  0.00    -0.273 OA
HETATM   11  N2  UNL     1      67.884  -2.083 100.973  1.00  0.00    -0.359 N
ATOM     12  H2  UNL     1      68.062  -2.856 100.332  1.00  0.00     0.162 HD
BRANCH  11  13
HETATM   13  C6  UNL     1      67.133  -0.982 100.456  1.00  0.00     0.150 C
BRANCH  13  14
HETATM   14  C7  UNL     1      66.142  -1.396  99.419  1.00  0.00     0.256 C
BRANCH  14  15
HETATM   15  N3  UNL     1      66.484  -0.837  98.098  1.00  0.00    -0.069 N
HETATM   16  C8  UNL     1      66.907  -1.968  97.249  1.00  0.00     0.272 C
HETATM   17  C9  UNL     1      65.284  -0.349  97.517  1.00  0.00     0.237 C
HETATM   18  C10 UNL     1      65.184   1.138  97.675  1.00  0.00     0.028 C
HETATM   19  C11 UNL     1      66.290   1.691  96.776  1.00  0.00     0.003 C
HETATM   20  C12 UNL     1      67.638   1.169  97.199  1.00  0.00     0.028 C
HETATM   21  C13 UNL     1      67.592   0.048  98.176  1.00  0.00     0.237 C
ENDBRANCH  14  15
ENDBRANCH  13  14
ENDBRANCH  11  13
ENDBRANCH   3   9
BRANCH   4  22
HETATM   22  C15 UNL     1      71.215  -2.038 102.158  1.00  0.00     0.197 C
BRANCH  22  23
HETATM   23  O2  UNL     1      72.008  -1.799 103.270  1.00  0.00    -0.398 OA
ATOM     24  H2  UNL     1      71.582  -2.034 104.086  1.00  0.00     0.209 HD
ENDBRANCH  22  23
ENDBRANCH   4  22
BRANCH   8  25
HETATM   25  O5  UNL     1      67.849  -3.696 104.626  1.00  0.00    -0.392 OA
ATOM     26  H5  UNL     1      67.427  -4.098 103.876  1.00  0.00     0.210 HD
ENDBRANCH   8  25
BRANCH   1  27
HETATM   27  N1  UNL     1      69.825  -6.683 101.640  1.00  0.00    -0.072 N
HETATM   28  C1  UNL     1      69.147  -6.315 100.411  1.00  0.00     0.267 C
ATOM     29  H12 UNL     1      69.676  -7.663 101.879  1.00  0.00     0.277 HD
ATOM     30  H11 UNL     1      70.838  -6.710 101.524  1.00  0.00     0.277 HD
ENDBRANCH   1  27
BRANCH   7  31
HETATM   31  O4  UNL     1      70.947  -4.276 105.671  1.00  0.00    -0.390 OA
ATOM     32  H4  UNL     1      70.654  -3.590 106.258  1.00  0.00     0.210 HD
ENDBRANCH   7  31
TORSDOF 9
ENDMDL