MODEL 2
REMARK VINA RESULT: -7.304178171      5.127      8.903
REMARK  6 active torsions:
REMARK  status: ('A' for Active; 'I' for Inactive)
REMARK       I    between atoms: C2_4  and  N2_5
REMARK       I    between atoms: C2_4  and  N3_8
REMARK    1  A    between atoms: N3_8  and  C4_10
REMARK    2  A    between atoms: C4_10  and  C5_11
REMARK    3  A    between atoms: C4_10  and  C7_14
REMARK       I    between atoms: C7_14  and  N4_16
REMARK    4  A    between atoms: C12_21  and  C13_22
REMARK       I    between atoms: C13_22  and  N5_24
REMARK    5  A    between atoms: N5_24  and  N6_26
REMARK    6  A    between atoms: N6_26  and  C14_28
ROOT
HETATM    1  C7  UNL     1      69.411  -2.501 102.005  1.00  0.00     0.251 C
HETATM    2  O2  UNL     1      69.347  -1.288 102.412  1.00  0.00    -0.271 OA
HETATM    3  N4  UNL     1      69.402  -3.547 102.973  1.00  0.00    -0.337 N
HETATM    4  C8  UNL     1      69.453  -4.943 102.682  1.00  0.00     0.127 C
HETATM    5  C9  UNL     1      68.316  -5.665 103.306  1.00  0.00     0.020 C
HETATM    6  C10 UNL     1      68.073  -5.281 104.714  1.00  0.00     0.004 C
HETATM    7  C11 UNL     1      68.930  -4.219 105.293  1.00  0.00     0.035 C
HETATM    8  C12 UNL     1      69.369  -3.152 104.369  1.00  0.00     0.181 C
ENDROOT
BRANCH   1   9
HETATM    9  C4  UNL     1      69.496  -2.664 100.548  1.00  0.00     0.260 C
BRANCH   9  10
HETATM   10  N3  UNL     1      68.168  -2.685  99.929  1.00  0.00    -0.206 N
HETATM   11  C2  UNL     1      67.636  -1.698  99.081  1.00  0.00     0.670 C
HETATM   12  N1  UNL     1      67.527  -0.453  99.303  1.00  0.00    -0.231 N
HETATM   13  N2  UNL     1      67.140  -2.141  97.791  1.00  0.00    -0.231 N
HETATM   14  C1  UNL     1      66.978   0.523  98.418  1.00  0.00     0.165 C
ATOM     15  H1  UNL     1      67.866  -0.116 100.204  1.00  0.00     0.177 HD
HETATM   16  C3  UNL     1      65.768  -2.047  97.391  1.00  0.00     0.165 C
ATOM     17  H2  UNL     1      67.807  -2.541  97.131  1.00  0.00     0.177 HD
ATOM     18  H3  UNL     1      67.575  -3.490 100.130  1.00  0.00     0.179 HD
ENDBRANCH   9  10
BRANCH   9  19
HETATM   19  C5  UNL     1      70.313  -3.808 100.083  1.00  0.00     0.155 C
HETATM   20  C6  UNL     1      69.800  -4.932  99.257  1.00  0.00     0.093 C
HETATM   21  O1  UNL     1      71.517  -3.906 100.359  1.00  0.00    -0.296 OA
ENDBRANCH   9  19
ENDBRANCH   1   9
BRANCH   8  22
HETATM   22  C13 UNL     1      70.771  -2.760 104.797  1.00  0.00     0.259 C
HETATM   23  O3  UNL     1      71.486  -3.569 105.436  1.00  0.00    -0.269 OA
HETATM   24  N5  UNL     1      71.294  -1.485 104.486  1.00  0.00    -0.266 N
ATOM     25  H5  UNL     1      70.734  -0.808 103.966  1.00  0.00     0.190 HD
BRANCH  24  26
HETATM   26  N6  UNL     1      72.584  -1.167 104.898  1.00  0.00    -0.276 N
ATOM     27  H6  UNL     1      72.838  -1.414 105.854  1.00  0.00     0.189 HD
BRANCH  26  28
HETATM   28  C14 UNL     1      73.569  -0.538 104.121  1.00  0.00     0.199 C
HETATM   29  N7  UNL     1      73.474  -0.416 102.712  1.00  0.00    -0.068 NA
HETATM   30  S1  UNL     1      74.888   0.078 104.842  1.00  0.00    -0.043 SA
ENDBRANCH  26  28
ENDBRANCH  24  26
ENDBRANCH   8  22
TORSDOF 6
ENDMDL