MODEL 2
REMARK VINA RESULT: -4.912609537      2.252      5.062
REMARK  5 active torsions:
REMARK  status: ('A' for Active; 'I' for Inactive)
REMARK    1  A    between atoms: O1_2  and  C2_3
REMARK    2  A    between atoms: C2_3  and  C3_5
REMARK    3  A    between atoms: C8_13  and  C9_14
REMARK       I    between atoms: N3_19  and  C13_20
REMARK    4  A    between atoms: C13_20  and  O5_22
REMARK    5  A    between atoms: O5_22  and  C14_23
ROOT
HETATM    1  C3  UNL     1     -15.227   2.053  10.082  1.00  0.00     0.204 C
HETATM    2  N1  UNL     1     -15.779   2.240   8.808  1.00  0.00    -0.380 N
ATOM      3  H1  UNL     1     -16.314   1.426   8.505  1.00  0.00     0.160 HD
HETATM    4  C4  UNL     1     -15.787   3.158   7.932  1.00  0.00    -0.001 C
HETATM    5  C5  UNL     1     -16.581   2.775   6.711  1.00  0.00     0.064 C
HETATM    6  C6  UNL     1     -15.160   4.482   7.942  1.00  0.00     0.167 C
HETATM    7  C7  UNL     1     -13.721   4.471   7.698  1.00  0.00     0.072 C
HETATM    8  N2  UNL     1     -12.580   4.444   7.510  1.00  0.00    -0.196 NA
HETATM    9  C8  UNL     1     -15.538   5.293   9.176  1.00  0.00     0.170 C
HETATM   10  N3  UNL     1     -15.719   4.369  10.309  1.00  0.00    -0.309 N
HETATM   11  C13 UNL     1     -16.899   4.478  11.057  1.00  0.00     0.364 C
HETATM   12  O4  UNL     1     -17.114   3.719  12.032  1.00  0.00    -0.238 OA
HETATM   13  C18 UNL     1     -14.736   3.374  10.658  1.00  0.00     0.118 C
HETATM   14  C19 UNL     1     -14.525   3.269  12.149  1.00  0.00     0.035 C
ENDROOT
BRANCH   9  15
HETATM   15  C9  UNL     1     -14.553   6.339   9.459  1.00  0.00     0.077 A
HETATM   16  C10 UNL     1     -14.526   7.590   8.882  1.00  0.00     0.037 A
HETATM   17  C11 UNL     1     -13.441   8.279   9.415  1.00  0.00     0.027 A
HETATM   18  C12 UNL     1     -12.867   7.385  10.299  1.00  0.00     0.142 A
HETATM   19  O3  UNL     1     -13.552   6.267  10.289  1.00  0.00    -0.325 OA
ENDBRANCH   9  15
BRANCH   1  20
HETATM   20  C2  UNL     1     -14.110   1.067  10.006  1.00  0.00     0.283 C
HETATM   21  O2  UNL     1     -14.174  -0.059  10.562  1.00  0.00    -0.263 OA
BRANCH  20  22
HETATM   22  O1  UNL     1     -12.974   1.391   9.312  1.00  0.00    -0.325 OA
HETATM   23  C1  UNL     1     -12.573   0.791   8.089  1.00  0.00     0.213 C
ENDBRANCH  20  22
ENDBRANCH   1  20
BRANCH  11  24
HETATM   24  O5  UNL     1     -17.898   5.414  10.786  1.00  0.00    -0.294 OA
BRANCH  24  25
HETATM   25  C14 UNL     1     -18.011   6.615  11.514  1.00  0.00     0.061 C
HETATM   26  C15 UNL     1     -19.253   6.651  12.376  1.00  0.00     0.046 C
HETATM   27  C16 UNL     1     -16.830   6.949  12.359  1.00  0.00     0.046 C
HETATM   28  C17 UNL     1     -18.179   7.737  10.486  1.00  0.00     0.046 C
ENDBRANCH  24  25
ENDBRANCH  11  24
TORSDOF 5
ENDMDL