MODEL 5
REMARK VINA RESULT: -5.468868813      3.161      7.037
REMARK  4 active torsions:
REMARK  status: ('A' for Active; 'I' for Inactive)
REMARK    1  A    between atoms: O1_2  and  C2_3
REMARK    2  A    between atoms: C2_3  and  C3_5
REMARK    3  A    between atoms: C17_22  and  O6_23
REMARK    4  A    between atoms: O6_23  and  C18_24
ROOT
HETATM    1  C3  UNL     1     -15.125  -6.440   5.073  1.00  0.00     0.018 C
HETATM    2  C4  UNL     1     -15.820  -5.213   5.674  1.00  0.00     0.055 C
HETATM    3  C5  UNL     1     -13.829  -6.440   4.944  1.00  0.00    -0.037 C
HETATM    4  C6  UNL     1     -13.072  -7.567   4.375  1.00  0.00     0.038 C
HETATM    5  C7  UNL     1     -12.889  -7.531   2.883  1.00  0.00     0.013 C
HETATM    6  C8  UNL     1     -11.441  -7.803   2.450  1.00  0.00    -0.047 C
HETATM    7  C9  UNL     1     -10.800  -8.840   3.300  1.00  0.00     0.015 C
HETATM    8  C10 UNL     1     -11.582  -8.470   1.055  1.00  0.00     0.015 C
HETATM    9  C11 UNL     1     -10.654  -6.537   2.263  1.00  0.00     0.018 C
HETATM   10  C12 UNL     1      -9.628  -6.245   3.299  1.00  0.00     0.112 C
HETATM   11  C13 UNL     1      -9.461  -4.758   3.508  1.00  0.00     0.261 C
HETATM   12  O3  UNL     1      -8.291  -4.327   3.380  1.00  0.00    -0.265 OA
HETATM   13  O4  UNL     1     -10.587  -4.059   3.807  1.00  0.00    -0.281 OA
HETATM   14  C14 UNL     1     -11.462  -4.186   4.859  1.00  0.00     0.199 C
HETATM   15  C15 UNL     1     -11.201  -3.323   6.078  1.00  0.00     0.082 C
HETATM   16  O5  UNL     1     -11.732  -5.489   5.285  1.00  0.00    -0.340 OA
HETATM   17  C16 UNL     1     -13.117  -5.200   5.451  1.00  0.00     0.190 C
HETATM   18  C17 UNL     1     -12.950  -4.136   4.435  1.00  0.00     0.227 C
ENDROOT
BRANCH   1  19
HETATM   19  C2  UNL     1     -15.965  -7.546   4.676  1.00  0.00     0.288 C
HETATM   20  O2  UNL     1     -16.190  -8.542   5.368  1.00  0.00    -0.260 OA
BRANCH  19  21
HETATM   21  O1  UNL     1     -16.594  -7.529   3.409  1.00  0.00    -0.323 OA
HETATM   22  C1  UNL     1     -17.758  -8.316   3.173  1.00  0.00     0.213 C
ENDBRANCH  19  21
ENDBRANCH   1  19
BRANCH  18  23
HETATM   23  O6  UNL     1     -13.399  -2.835   4.724  1.00  0.00    -0.308 OA
BRANCH  23  24
HETATM   24  C18 UNL     1     -14.278  -2.174   3.888  1.00  0.00     0.255 C
HETATM   25  C19 UNL     1     -14.378  -0.701   4.015  1.00  0.00     0.126 C
HETATM   26  O7  UNL     1     -14.929  -2.876   3.080  1.00  0.00    -0.266 OA
ENDBRANCH  23  24
ENDBRANCH  18  23
TORSDOF 4
ENDMDL