MODEL 5
REMARK VINA RESULT: -5.198329675      5.418      7.355
REMARK  7 active torsions:
REMARK  status: ('A' for Active; 'I' for Inactive)
REMARK    1  A    between atoms: O1_2  and  C2_3
REMARK       I    between atoms: C2_3  and  N1_5
REMARK    2  A    between atoms: N1_5  and  C3_6
REMARK    3  A    between atoms: N1_5  and  C13_21
REMARK    4  A    between atoms: C3_6  and  S2_8
REMARK    5  A    between atoms: S2_8  and  C4_9
REMARK    6  A    between atoms: C10_16  and  O3_17
REMARK    7  A    between atoms: O3_17  and  C11_18
ROOT
HETATM    1  C4  UNL     1     -13.715  -6.047   4.444  1.00  0.00     0.118 C
HETATM    2  C5  UNL     1     -13.804  -4.927   5.437  1.00  0.00     0.007 C
HETATM    3  C6  UNL     1     -14.391  -3.727   4.736  1.00  0.00     0.036 C
HETATM    4  C7  UNL     1     -15.482  -4.221   3.811  1.00  0.00     0.276 C
HETATM    5  N2  UNL     1     -16.067  -5.417   4.429  1.00  0.00     0.118 N
HETATM    6  C8  UNL     1     -16.176  -5.225   5.882  1.00  0.00     0.276 C
HETATM    7  C9  UNL     1     -14.806  -5.327   6.517  1.00  0.00     0.036 C
HETATM    8  C10 UNL     1     -15.114  -6.505   4.147  1.00  0.00     0.381 C
ENDROOT
BRANCH   1   9
HETATM    9  S2  UNL     1     -12.629  -7.388   4.916  1.00  0.00    -0.090 SA
BRANCH   9  10
HETATM   10  C3  UNL     1     -10.905  -7.045   4.451  1.00  0.00     0.146 C
HETATM   11  S1  UNL     1      -9.818  -8.044   5.137  1.00  0.00    -0.052 SA
BRANCH  10  12
HETATM   12  N1  UNL     1     -10.583  -6.008   3.584  1.00  0.00    -0.270 N
HETATM   13  C2  UNL     1     -10.661  -6.336   2.153  1.00  0.00     0.368 C
HETATM   14  O2  UNL     1     -10.982  -7.450   1.724  1.00  0.00    -0.238 OA
BRANCH  13  15
HETATM   15  O1  UNL     1     -10.364  -5.362   1.245  1.00  0.00    -0.309 OA
HETATM   16  C1  UNL     1      -9.436  -5.519   0.195  1.00  0.00     0.215 C
ENDBRANCH  13  15
BRANCH  12  17
HETATM   17  C13 UNL     1     -10.186  -4.679   3.930  1.00  0.00     0.033 C
HETATM   18  C14 UNL     1     -10.264  -4.492   5.465  1.00  0.00     0.038 C
HETATM   19  C15 UNL     1      -8.688  -4.476   3.629  1.00  0.00     0.038 C
HETATM   20  C16 UNL     1     -11.000  -3.599   3.353  1.00  0.00     0.038 C
ENDBRANCH  12  17
ENDBRANCH  10  12
ENDBRANCH   9  10
ENDBRANCH   1   9
BRANCH   8  21
HETATM   21  O3  UNL     1     -15.519  -7.605   4.928  1.00  0.00    -0.284 OA
BRANCH  21  22
HETATM   22  C11 UNL     1     -16.298  -8.596   4.329  1.00  0.00     0.256 C
HETATM   23  C12 UNL     1     -16.410  -8.739   2.856  1.00  0.00     0.126 C
HETATM   24  O4  UNL     1     -16.924  -9.394   5.066  1.00  0.00    -0.266 OA
ENDBRANCH  21  22
ENDBRANCH   8  21
TORSDOF 7
ENDMDL