MODEL 3
REMARK VINA RESULT: -6.576207713      1.420      1.701
REMARK  1 active torsions:
REMARK  status: ('A' for Active; 'I' for Inactive)
REMARK    1  A    between atoms: O1_2  and  C2_3
ROOT
HETATM    1  C2  UNL     1     -11.443   0.453   6.828  1.00  0.00     0.131 C
HETATM    2  C3  UNL     1     -10.909   0.507   8.227  1.00  0.00     0.035 C
HETATM    3  C4  UNL     1     -10.409   1.951   8.274  1.00  0.00     0.035 C
HETATM    4  C5  UNL     1     -11.402   2.717   7.382  1.00  0.00     0.135 C
HETATM    5  O2  UNL     1     -11.999   3.629   8.179  1.00  0.00    -0.349 OA
HETATM    6  C6  UNL     1     -12.804   4.578   7.650  1.00  0.00     0.340 C
HETATM    7  O3  UNL     1     -12.205   5.828   7.939  1.00  0.00    -0.202 OA
HETATM    8  O4  UNL     1     -13.133   6.710   8.033  1.00  0.00    -0.202 OA
HETATM    9  C7  UNL     1     -14.280   6.159   8.521  1.00  0.00     0.343 C
HETATM   10  O5  UNL     1     -14.563   6.483   9.848  1.00  0.00    -0.317 OA
HETATM   11  C8  UNL     1     -15.456   5.476  10.283  1.00  0.00     0.196 C
HETATM   12  C9  UNL     1     -15.949   5.948  11.660  1.00  0.00     0.082 C
HETATM   13  C10 UNL     1     -16.630   5.474   9.375  1.00  0.00     0.071 C
HETATM   14  C11 UNL     1     -16.518   4.724   8.118  1.00  0.00     0.014 C
HETATM   15  C12 UNL     1     -15.240   3.974   7.886  1.00  0.00     0.038 C
HETATM   16  C13 UNL     1     -15.439   2.561   8.270  1.00  0.00    -0.011 C
HETATM   17  C14 UNL     1     -16.422   1.944   7.263  1.00  0.00     0.010 C
HETATM   18  C15 UNL     1     -14.196   1.683   8.206  1.00  0.00     0.005 C
HETATM   19  C16 UNL     1     -13.616   1.564   6.865  1.00  0.00     0.014 C
HETATM   20  C17 UNL     1     -12.183   1.765   6.629  1.00  0.00     0.008 C
HETATM   21  C18 UNL     1     -12.026   2.037   5.118  1.00  0.00     0.020 C
HETATM   22  C19 UNL     1     -14.058   4.654   8.496  1.00  0.00     0.204 C
HETATM   23  O6  UNL     1     -13.748   4.241   9.770  1.00  0.00    -0.215 OA
HETATM   24  O7  UNL     1     -14.849   4.269  10.480  1.00  0.00    -0.200 OA
ENDROOT
BRANCH   1  25
HETATM   25  O1  UNL     1     -12.225  -0.650   6.576  1.00  0.00    -0.390 OA
HETATM   26  C1  UNL     1     -11.496  -1.851   6.721  1.00  0.00     0.202 C
ENDBRANCH   1  25
TORSDOF 1
ENDMDL