MODEL 3
REMARK VINA RESULT: -6.690586072      0.870      1.347
REMARK  4 active torsions:
REMARK  status: ('A' for Active; 'I' for Inactive)
REMARK    1  A    between atoms: C2_2  and  O1_4
REMARK    2  A    between atoms: O1_4  and  C4_5
REMARK    3  A    between atoms: C4_5  and  O3_7
REMARK    4  A    between atoms: O3_7  and  C5_8
ROOT
HETATM    1  C5  UNL     1     -15.207   2.281   6.748  1.00  0.00     0.174 C
HETATM    2  C6  UNL     1     -15.850   1.895   8.049  1.00  0.00     0.046 C
HETATM    3  C7  UNL     1     -15.174   2.225   9.364  1.00  0.00     0.054 C
HETATM    4  C8  UNL     1     -16.097   2.933  10.331  1.00  0.00     0.016 C
HETATM    5  C9  UNL     1     -14.018   3.013   9.002  1.00  0.00     0.228 C
HETATM    6  O4  UNL     1     -14.617   4.130   8.452  1.00  0.00    -0.343 OA
HETATM    7  C10 UNL     1     -13.724   5.158   8.133  1.00  0.00     0.243 C
HETATM    8  C11 UNL     1     -12.606   4.229   7.574  1.00  0.00     0.216 C
HETATM    9  C12 UNL     1     -11.584   5.231   7.005  1.00  0.00     0.084 C
HETATM   10  O5  UNL     1     -12.075   3.723   8.709  1.00  0.00    -0.195 OA
HETATM   11  O6  UNL     1     -12.981   3.468   9.694  1.00  0.00    -0.192 OA
HETATM   12  O7  UNL     1     -13.164   3.590   6.572  1.00  0.00    -0.332 OA
HETATM   13  C13 UNL     1     -13.735   2.320   6.685  1.00  0.00     0.127 C
HETATM   14  C14 UNL     1     -13.380   2.014   8.091  1.00  0.00     0.018 C
HETATM   15  C15 UNL     1     -12.620   0.976   8.152  1.00  0.00    -0.014 C
HETATM   16  C16 UNL     1     -12.334   0.403   6.813  1.00  0.00     0.040 C
HETATM   17  C17 UNL     1     -12.952   1.415   5.872  1.00  0.00    -0.006 C
HETATM   18  C18 UNL     1     -11.724   2.134   5.258  1.00  0.00     0.018 C
HETATM   19  C19 UNL     1     -13.547   0.621   4.763  1.00  0.00     0.018 C
ENDROOT
BRANCH   1  20
HETATM   20  O3  UNL     1     -15.847   1.459   5.788  1.00  0.00    -0.289 OA
BRANCH  20  21
HETATM   21  C4  UNL     1     -16.692   1.892   4.796  1.00  0.00     0.407 C
HETATM   22  O2  UNL     1     -16.903   1.123   3.833  1.00  0.00    -0.229 OA
BRANCH  21  23
HETATM   23  O1  UNL     1     -17.321   3.126   4.796  1.00  0.00    -0.293 OA
BRANCH  23  24
HETATM   24  C2  UNL     1     -18.672   3.211   4.394  1.00  0.00     0.126 C
HETATM   25  C1  UNL     1     -18.850   3.992   3.113  1.00  0.00     0.040 C
HETATM   26  C3  UNL     1     -19.554   3.840   5.445  1.00  0.00     0.040 C
ENDBRANCH  23  24
ENDBRANCH  21  23
ENDBRANCH  20  21
ENDBRANCH   1  20
TORSDOF 4
ENDMDL