MODEL 5
REMARK VINA RESULT: -5.346372498      2.960      5.327
REMARK  4 active torsions:
REMARK  status: ('A' for Active; 'I' for Inactive)
REMARK    1  A    between atoms: O1_2  and  C2_3
REMARK    2  A    between atoms: C2_3  and  C3_5
REMARK    3  A    between atoms: C19_24  and  O6_25
REMARK    4  A    between atoms: C19_24  and  O7_27
ROOT
HETATM    1  C3  UNL     1     -13.133   1.358  10.629  1.00  0.00     0.206 C
HETATM    2  C4  UNL     1     -14.163   0.256  10.443  1.00  0.00     0.066 C
HETATM    3  O3  UNL     1     -11.854   0.908  10.526  1.00  0.00    -0.213 OA
HETATM    4  O4  UNL     1     -11.328   1.244   9.384  1.00  0.00    -0.223 OA
HETATM    5  C5  UNL     1     -11.857   2.493   9.050  1.00  0.00     0.122 C
HETATM    6  C6  UNL     1     -11.001   3.479   9.873  1.00  0.00     0.055 C
HETATM    7  C7  UNL     1     -13.207   2.381   9.560  1.00  0.00     0.002 C
HETATM    8  C8  UNL     1     -14.284   3.051   9.166  1.00  0.00     0.006 C
HETATM    9  C9  UNL     1     -14.525   4.071   8.147  1.00  0.00     0.082 C
HETATM   10  C10 UNL     1     -13.563   4.101   7.022  1.00  0.00     0.028 C
HETATM   11  C11 UNL     1     -12.883   2.748   6.851  1.00  0.00     0.009 C
HETATM   12  C12 UNL     1     -11.612   2.790   7.639  1.00  0.00     0.023 C
HETATM   13  C13 UNL     1     -10.807   4.042   7.364  1.00  0.00     0.013 C
HETATM   14  C14 UNL     1     -14.997   5.376   8.586  1.00  0.00     0.074 C
HETATM   15  C15 UNL     1     -14.648   6.621   8.819  1.00  0.00    -0.056 C
HETATM   16  C16 UNL     1     -13.258   7.098   8.619  1.00  0.00     0.045 C
HETATM   17  C17 UNL     1     -15.620   7.663   9.307  1.00  0.00     0.045 C
HETATM   18  O5  UNL     1     -16.267   4.771   8.729  1.00  0.00    -0.311 OA
HETATM   19  C18 UNL     1     -15.934   4.018   7.611  1.00  0.00     0.130 C
HETATM   20  C19 UNL     1     -16.592   3.532   6.610  1.00  0.00     0.210 C
ENDROOT
BRANCH  20  21
HETATM   21  O6  UNL     1     -15.946   2.804   5.631  1.00  0.00    -0.339 OA
ATOM     22  H6  UNL     1     -15.819   1.867   5.729  1.00  0.00     0.220 HD
ENDBRANCH  20  21
BRANCH  20  23
HETATM   23  O7  UNL     1     -17.950   3.729   6.497  1.00  0.00    -0.334 OA
HETATM   24  C20 UNL     1     -18.656   3.730   5.271  1.00  0.00     0.212 C
ENDBRANCH  20  23
BRANCH   1  25
HETATM   25  C2  UNL     1     -13.393   1.901  11.976  1.00  0.00     0.301 C
HETATM   26  O2  UNL     1     -12.411   2.237  12.681  1.00  0.00    -0.261 OA
BRANCH  25  27
HETATM   27  O1  UNL     1     -14.655   2.062  12.513  1.00  0.00    -0.324 OA
HETATM   28  C1  UNL     1     -15.144   3.359  12.807  1.00  0.00     0.213 C
ENDBRANCH  25  27
ENDBRANCH   1  25
TORSDOF 4
ENDMDL