MODEL 5
REMARK VINA RESULT: -5.202888655      7.963      9.745
REMARK  3 active torsions:
REMARK  status: ('A' for Active; 'I' for Inactive)
REMARK    1  A    between atoms: O1_2  and  C2_3
REMARK    2  A    between atoms: C15_17  and  C16_18
REMARK    3  A    between atoms: C18_25  and  S1_26
ROOT
HETATM    1  C2  UNL     1     -15.217  -4.117   4.903  1.00  0.00     0.215 C
HETATM    2  C3  UNL     1     -14.337  -5.174   5.499  1.00  0.00     0.018 C
HETATM    3  C4  UNL     1     -13.039  -4.838   5.338  1.00  0.00    -0.047 C
HETATM    4  C5  UNL     1     -11.876  -5.646   5.803  1.00  0.00     0.082 C
HETATM    5  C6  UNL     1     -12.037  -7.114   5.367  1.00  0.00     0.022 C
HETATM    6  C7  UNL     1     -11.688  -5.619   7.273  1.00  0.00     0.141 C
HETATM    7  O2  UNL     1     -11.064  -6.505   7.829  1.00  0.00    -0.297 OA
HETATM    8  C8  UNL     1     -12.241  -4.534   8.113  1.00  0.00     0.096 C
HETATM    9  C9  UNL     1     -12.780  -5.050   9.432  1.00  0.00     0.021 C
HETATM   10  C10 UNL     1     -11.235  -3.459   8.447  1.00  0.00     0.149 A
HETATM   11  C11 UNL     1     -11.623  -2.201   7.705  1.00  0.00     0.049 C
HETATM   12  C12 UNL     1     -11.383  -2.285   6.218  1.00  0.00     0.010 C
HETATM   13  C13 UNL     1     -12.662  -2.354   5.465  1.00  0.00     0.009 C
HETATM   14  C14 UNL     1     -12.789  -1.153   4.510  1.00  0.00     0.012 C
HETATM   15  C15 UNL     1     -12.891  -3.562   4.635  1.00  0.00     0.103 C
HETATM   16  C17 UNL     1     -14.264  -3.386   4.026  1.00  0.00     0.179 C
HETATM   17  O4  UNL     1     -14.584  -2.784   3.028  1.00  0.00    -0.293 OA
HETATM   18  O5  UNL     1     -11.020  -3.213   9.790  1.00  0.00    -0.261 OA
HETATM   19  N1  UNL     1      -9.738  -3.576   9.692  1.00  0.00    -0.260 N
ATOM     20  H1  UNL     1      -8.966  -3.631  10.356  1.00  0.00     0.195 HD
HETATM   21  C18 UNL     1      -9.849  -3.823   8.466  1.00  0.00     0.106 A
ENDROOT
BRANCH  21  22
HETATM   22  S1  UNL     1      -8.670  -4.410   7.253  1.00  0.00    -0.116 SA
HETATM   23  C19 UNL     1      -7.748  -3.079   6.485  1.00  0.00     0.097 C
ENDBRANCH  21  22
BRANCH  15  24
HETATM   24  C16 UNL     1     -11.926  -3.589   3.520  1.00  0.00     0.253 C
HETATM   25  O3  UNL     1     -11.910  -4.534   2.736  1.00  0.00    -0.305 OA
ENDBRANCH  15  24
BRANCH   1  26
HETATM   26  O1  UNL     1     -16.166  -4.698   4.063  1.00  0.00    -0.379 OA
HETATM   27  C1  UNL     1     -16.045  -6.084   4.026  1.00  0.00     0.202 C
ENDBRANCH   1  26
TORSDOF 3
ENDMDL