MODEL 5
REMARK VINA RESULT: -6.704080952      5.682      8.520
REMARK  5 active torsions:
REMARK  status: ('A' for Active; 'I' for Inactive)
REMARK    1  A    between atoms: C2_2  and  O1_5
REMARK    2  A    between atoms: O1_5  and  C5_6
REMARK    3  A    between atoms: C5_6  and  C6_8
REMARK    4  A    between atoms: C6_8  and  C7_9
REMARK    5  A    between atoms: C7_9  and  C8_11
ROOT
HETATM    1  C8  UNL     1     -13.816  -2.161   3.651  1.00  0.00     0.126 C
HETATM    2  C9  UNL     1     -12.849  -2.884   4.602  1.00  0.00     0.026 C
HETATM    3  C10 UNL     1     -13.502  -4.269   4.683  1.00  0.00     0.019 C
HETATM    4  C11 UNL     1     -14.954  -3.803   4.883  1.00  0.00     0.131 C
HETATM    5  C12 UNL     1     -15.744  -5.050   4.817  1.00  0.00     0.141 C
HETATM    6  O4  UNL     1     -16.558  -5.329   3.984  1.00  0.00    -0.297 OA
HETATM    7  C13 UNL     1     -15.457  -6.026   5.928  1.00  0.00     0.115 C
HETATM    8  C14 UNL     1     -14.169  -5.766   6.615  1.00  0.00     0.178 C
HETATM    9  O5  UNL     1     -13.613  -6.995   6.972  1.00  0.00    -0.233 OA
HETATM   10  O6  UNL     1     -12.355  -7.000   6.675  1.00  0.00    -0.229 OA
HETATM   11  C15 UNL     1     -12.259  -6.327   5.432  1.00  0.00     0.099 C
HETATM   12  C16 UNL     1     -10.843  -5.989   5.103  1.00  0.00     0.050 C
HETATM   13  C17 UNL     1     -12.872  -7.234   4.425  1.00  0.00     0.050 C
HETATM   14  C18 UNL     1     -13.092  -5.114   5.786  1.00  0.00     0.024 C
HETATM   15  C19 UNL     1     -12.245  -4.298   6.773  1.00  0.00     0.022 C
HETATM   16  C20 UNL     1     -15.076  -2.930   3.705  1.00  0.00     0.149 C
HETATM   17  O7  UNL     1     -16.007  -2.862   2.949  1.00  0.00    -0.296 OA
ENDROOT
BRANCH   1  18
HETATM   18  C7  UNL     1     -14.092  -0.791   4.152  1.00  0.00     0.147 C
HETATM   19  O3  UNL     1     -14.932  -0.092   3.613  1.00  0.00    -0.297 OA
BRANCH  18  20
HETATM   20  C6  UNL     1     -13.353  -0.249   5.317  1.00  0.00     0.190 C
BRANCH  20  21
HETATM   21  C5  UNL     1     -13.236   1.203   5.328  1.00  0.00     0.266 C
HETATM   22  O2  UNL     1     -12.209   1.757   4.884  1.00  0.00    -0.265 OA
BRANCH  21  23
HETATM   23  O1  UNL     1     -14.255   1.983   5.826  1.00  0.00    -0.311 OA
BRANCH  23  24
HETATM   24  C2  UNL     1     -14.530   2.207   7.189  1.00  0.00     0.060 C
HETATM   25  C1  UNL     1     -15.937   1.796   7.574  1.00  0.00     0.045 C
HETATM   26  C3  UNL     1     -14.505   3.737   7.352  1.00  0.00     0.045 C
HETATM   27  C4  UNL     1     -13.502   1.653   8.123  1.00  0.00     0.045 C
ENDBRANCH  23  24
ENDBRANCH  21  23
ENDBRANCH  20  21
ENDBRANCH  18  20
ENDBRANCH   1  18
TORSDOF 5
ENDMDL