MODEL 3
REMARK VINA RESULT: -7.081059798      3.103      6.965
REMARK  4 active torsions:
REMARK  status: ('A' for Active; 'I' for Inactive)
REMARK    1  A    between atoms: C2_2  and  O1_3
REMARK    2  A    between atoms: O1_3  and  C3_4
REMARK    3  A    between atoms: C3_4  and  C4_6
REMARK       I    between atoms: N2_12  and  C8_13
REMARK    4  A    between atoms: C8_13  and  O4_15
ROOT
HETATM    1  C4  UNL     1     -16.428   1.994   5.316  1.00  0.00     0.109 C
HETATM    2  C5  UNL     1     -15.276   2.371   6.208  1.00  0.00    -0.002 C
HETATM    3  C6  UNL     1     -15.389   3.397   7.044  1.00  0.00    -0.024 C
HETATM    4  C7  UNL     1     -16.636   4.101   7.045  1.00  0.00     0.033 C
HETATM    5  N1  UNL     1     -17.150   4.902   7.934  1.00  0.00    -0.292 N
ATOM      6  H1  UNL     1     -18.065   5.314   7.751  1.00  0.00     0.187 HD
HETATM    7  N2  UNL     1     -16.478   5.227   9.161  1.00  0.00    -0.180 N
HETATM    8  C8  UNL     1     -17.290   5.274  10.302  1.00  0.00     0.387 C
HETATM    9  O3  UNL     1     -16.868   5.207  11.453  1.00  0.00    -0.236 OA
HETATM   10  C10 UNL     1     -15.080   5.427   9.281  1.00  0.00     0.158 A
HETATM   11  C11 UNL     1     -14.065   4.681   8.709  1.00  0.00     0.026 A
HETATM   12  C12 UNL     1     -12.921   5.266   9.149  1.00  0.00     0.033 A
HETATM   13  C13 UNL     1     -11.500   4.962   8.929  1.00  0.00     0.070 C
HETATM   14  N3  UNL     1     -13.275   6.320   9.945  1.00  0.00    -0.301 N
ATOM     15  H3  UNL     1     -12.612   6.940  10.410  1.00  0.00     0.187 HD
HETATM   16  N4  UNL     1     -14.592   6.428  10.030  1.00  0.00    -0.279 N
HETATM   17  C14 UNL     1     -15.324   7.457  10.743  1.00  0.00     0.179 C
HETATM   18  C15 UNL     1     -14.092   3.529   7.788  1.00  0.00     0.014 C
HETATM   19  C16 UNL     1     -13.062   3.769   6.675  1.00  0.00     0.025 C
HETATM   20  C17 UNL     1     -13.858   2.215   8.496  1.00  0.00     0.025 C
HETATM   21  C18 UNL     1     -17.639   4.013   5.926  1.00  0.00     0.060 C
HETATM   22  C19 UNL     1     -17.011   3.296   4.781  1.00  0.00     0.024 C
ENDROOT
BRANCH   1  23
HETATM   23  C3  UNL     1     -15.986   1.101   4.244  1.00  0.00     0.266 C
HETATM   24  O2  UNL     1     -16.857   0.606   3.478  1.00  0.00    -0.265 OA
BRANCH  23  25
HETATM   25  O1  UNL     1     -14.676   0.753   4.000  1.00  0.00    -0.321 OA
BRANCH  25  26
HETATM   26  C2  UNL     1     -14.083  -0.463   4.394  1.00  0.00     0.174 C
HETATM   27  C1  UNL     1     -12.795  -0.283   5.143  1.00  0.00     0.034 C
ENDBRANCH  25  26
ENDBRANCH  23  25
ENDBRANCH   1  23
BRANCH   8  28
HETATM   28  O4  UNL     1     -18.663   5.404  10.125  1.00  0.00    -0.307 OA
HETATM   29  C9  UNL     1     -19.424   6.424  10.730  1.00  0.00     0.215 C
ENDBRANCH   8  28
TORSDOF 4
ENDMDL