MODEL 1
REMARK VINA RESULT: -6.683697247      0.000      0.000
REMARK  4 active torsions:
REMARK  status: ('A' for Active; 'I' for Inactive)
REMARK    1  A    between atoms: C2_2  and  O2_4
REMARK    2  A    between atoms: O2_4  and  C3_5
REMARK    3  A    between atoms: C14_17  and  O4_18
REMARK    4  A    between atoms: O4_18  and  C15_19
ROOT
HETATM    1  C3  UNL     1     -16.089   2.100   5.473  1.00  0.00     0.110 A
HETATM    2  C4  UNL     1     -15.853   1.457   4.275  1.00  0.00     0.180 A
HETATM    3  O3  UNL     1     -14.574   1.251   4.210  1.00  0.00    -0.323 OA
HETATM    4  C5  UNL     1     -13.944   1.721   5.296  1.00  0.00     0.070 A
HETATM    5  C6  UNL     1     -14.891   2.272   6.126  1.00  0.00     0.013 A
HETATM    6  C7  UNL     1     -14.876   2.936   7.457  1.00  0.00     0.028 C
HETATM    7  C8  UNL     1     -15.466   4.342   7.401  1.00  0.00     0.016 C
HETATM    8  C9  UNL     1     -13.487   3.124   8.016  1.00  0.00     0.024 C
HETATM    9  C10 UNL     1     -12.778   4.100   7.148  1.00  0.00    -0.024 C
HETATM   10  C11 UNL     1     -11.910   3.618   6.276  1.00  0.00    -0.024 C
HETATM   11  C12 UNL     1     -11.623   2.199   6.131  1.00  0.00     0.033 C
HETATM   12  C13 UNL     1     -12.485   1.465   5.184  1.00  0.00     0.089 C
HETATM   13  C14 UNL     1     -12.154   0.017   5.504  1.00  0.00     0.212 C
HETATM   14  C17 UNL     1     -12.092   0.018   6.986  1.00  0.00     0.162 C
HETATM   15  O6  UNL     1     -12.287  -0.956   7.675  1.00  0.00    -0.295 OA
HETATM   16  C18 UNL     1     -11.756   1.401   7.395  1.00  0.00     0.075 C
HETATM   17  C19 UNL     1     -12.740   1.901   8.366  1.00  0.00    -0.029 C
HETATM   18  C20 UNL     1     -13.737   0.874   8.876  1.00  0.00     0.016 C
HETATM   19  C21 UNL     1     -11.922   2.244   9.642  1.00  0.00     0.016 C
ENDROOT
BRANCH   1  20
HETATM   20  O2  UNL     1     -17.345   2.487   5.906  1.00  0.00    -0.277 OA
BRANCH  20  21
HETATM   21  C2  UNL     1     -18.226   3.236   5.172  1.00  0.00     0.260 C
HETATM   22  C1  UNL     1     -19.361   2.664   4.401  1.00  0.00     0.126 C
HETATM   23  O1  UNL     1     -18.046   4.465   5.164  1.00  0.00    -0.265 OA
ENDBRANCH  20  21
ENDBRANCH   1  20
BRANCH  13  24
HETATM   24  O4  UNL     1     -13.090  -0.872   4.980  1.00  0.00    -0.308 OA
BRANCH  24  25
HETATM   25  C15 UNL     1     -12.815  -2.028   4.296  1.00  0.00     0.255 C
HETATM   26  C16 UNL     1     -11.751  -2.993   4.681  1.00  0.00     0.126 C
HETATM   27  O5  UNL     1     -13.507  -2.293   3.276  1.00  0.00    -0.266 OA
ENDBRANCH  24  25
ENDBRANCH  13  24
TORSDOF 4
ENDMDL