MODEL 5
REMARK VINA RESULT: -6.897479630      2.352      2.836
REMARK  4 active torsions:
REMARK  status: ('A' for Active; 'I' for Inactive)
REMARK    1  A    between atoms: C8_8  and  N1_9
REMARK    2  A    between atoms: C11_13  and  C12_14
REMARK    3  A    between atoms: C12_14  and  N2_15
REMARK    4  A    between atoms: C12_14  and  O1_19
ROOT
HETATM    1  N1  UNL     1      44.566  74.288  42.167  1.00  0.00    -0.359 N
HETATM    2  C9  UNL     1      44.646  73.299  43.076  1.00  0.00     0.115 A
HETATM    3  C10 UNL     1      44.654  72.094  42.404  1.00  0.00     0.061 A
HETATM    4 CL1  UNL     1      44.744  70.509  43.113  1.00  0.00    -0.082 Cl
HETATM    5  C11 UNL     1      44.578  72.363  41.059  1.00  0.00     0.036 A
HETATM    6  C13 UNL     1      44.525  73.732  40.943  1.00  0.00     0.104 A
ENDROOT
BRANCH   1   7
HETATM    7  C8  UNL     1      44.535  75.694  42.529  1.00  0.00     0.089 C
HETATM    8  C7  UNL     1      43.363  75.922  43.423  1.00  0.00     0.026 C
HETATM    9  C6  UNL     1      43.695  77.031  44.381  1.00  0.00     0.002 C
HETATM   10  C5  UNL     1      43.575  78.396  43.807  1.00  0.00     0.001 C
HETATM   11  C4  UNL     1      43.308  78.432  42.331  1.00  0.00     0.009 C
HETATM   12  C2  UNL     1      44.463  77.975  41.493  1.00  0.00    -0.046 C
HETATM   13  C1  UNL     1      44.291  78.632  40.116  1.00  0.00     0.015 C
HETATM   14  C3  UNL     1      45.798  78.481  42.008  1.00  0.00     0.015 C
HETATM   15  C14 UNL     1      44.479  76.490  41.250  1.00  0.00     0.034 C
ENDBRANCH   1   7
BRANCH   5  16
HETATM   16  C12 UNL     1      44.556  71.415  39.932  1.00  0.00     0.353 C
BRANCH  16  17
HETATM   17  N2  UNL     1      43.315  70.677  39.852  1.00  0.00    -0.049 N
ATOM     18  H23 UNL     1      42.756  70.983  39.056  1.00  0.00     0.277 HD
ATOM     19  H22 UNL     1      43.480  69.710  39.574  1.00  0.00     0.277 HD
ATOM     20  H21 UNL     1      42.777  70.722  40.718  1.00  0.00     0.277 HD
ENDBRANCH  16  17
BRANCH  16  21
HETATM   21  O1  UNL     1      44.729  72.063  38.717  1.00  0.00    -0.366 OA
ATOM     22  H1  UNL     1      45.255  72.848  38.812  1.00  0.00     0.212 HD
ENDBRANCH  16  21
ENDBRANCH   5  16
TORSDOF 4
ENDMDL