MODEL 2
REMARK VINA RESULT: -6.725223496      2.339      3.245
REMARK  4 active torsions:
REMARK  status: ('A' for Active; 'I' for Inactive)
REMARK    1  A    between atoms: C4_6  and  O1_7
REMARK    2  A    between atoms: C5_9  and  N2_10
REMARK    3  A    between atoms: N2_10  and  C6_12
REMARK    4  A    between atoms: C6_12  and  C7_16
ROOT
HETATM    1  N2  UNL     1      45.069  74.482  43.613  1.00  0.00    -0.341 N
ATOM      2  H2  UNL     1      46.021  74.813  43.774  1.00  0.00     0.167 HD
ENDROOT
BRANCH   1   3
HETATM    3  C5  UNL     1      44.860  73.110  43.211  1.00  0.00     0.107 A
HETATM    4  C4  UNL     1      44.873  72.119  44.161  1.00  0.00     0.169 A
HETATM    5  N1  UNL     1      44.680  70.846  43.786  1.00  0.00    -0.345 N
HETATM    6  C3  UNL     1      44.467  70.450  42.523  1.00  0.00     0.098 A
ATOM      7  H1  UNL     1      44.695  70.129  44.511  1.00  0.00     0.167 HD
HETATM    8  C2  UNL     1      44.455  71.455  41.578  1.00  0.00    -0.022 A
HETATM    9  C1  UNL     1      44.227  71.112  40.150  1.00  0.00     0.051 C
HETATM   10  C13 UNL     1      44.648  72.777  41.899  1.00  0.00     0.072 A
HETATM   11 CL1  UNL     1      44.630  74.037  40.677  1.00  0.00    -0.081 Cl
BRANCH   4  12
HETATM   12  O1  UNL     1      45.090  72.434  45.522  1.00  0.00    -0.344 OA
ATOM     13  H1  UNL     1      44.715  73.224  45.895  1.00  0.00     0.219 HD
ENDBRANCH   4  12
ENDBRANCH   1   3
BRANCH   1  14
HETATM   14  C6  UNL     1      43.985  75.382  43.789  1.00  0.00     0.079 C
HETATM   15  N3  UNL     1      42.819  74.947  44.098  1.00  0.00    -0.389 N
ATOM     16  H32 UNL     1      42.628  73.954  44.228  1.00  0.00     0.157 HD
ATOM     17  H31 UNL     1      42.040  75.594  44.223  1.00  0.00     0.157 HD
BRANCH  14  18
HETATM   18  C7  UNL     1      44.262  76.828  43.599  1.00  0.00     0.053 C
HETATM   19  C8  UNL     1      45.627  76.972  43.006  1.00  0.00     0.012 C
HETATM   20  C9  UNL     1      45.711  78.208  42.110  1.00  0.00     0.001 C
HETATM   21  C10 UNL     1      44.834  77.951  40.922  1.00  0.00     0.000 C
HETATM   22  C11 UNL     1      43.481  77.406  41.288  1.00  0.00     0.001 C
HETATM   23  C12 UNL     1      43.208  77.512  42.771  1.00  0.00     0.012 C
ENDBRANCH  14  18
ENDBRANCH   1  14
TORSDOF 4
ENDMDL