MODEL 1
REMARK VINA RESULT: -6.071166851      0.000      0.000
REMARK  3 active torsions:
REMARK  status: ('A' for Active; 'I' for Inactive)
REMARK    1  A    between atoms: O1_1  and  C1_3
REMARK    2  A    between atoms: C4_12  and  C5_13
REMARK    3  A    between atoms: C5_13  and  C6_14
ROOT
HETATM    1  C1  UNL     1      43.550  73.972  42.944  1.00  0.00     0.151 A
HETATM    2  N1  UNL     1      43.648  72.641  43.065  1.00  0.00    -0.313 N
ATOM      3  H1  UNL     1      43.075  72.146  43.749  1.00  0.00     0.170 HD
HETATM    4  C2  UNL     1      44.503  71.958  42.284  1.00  0.00     0.178 A
HETATM    5  S1  UNL     1      44.646  70.318  42.412  1.00  0.00    -0.040 SA
HETATM    6  N2  UNL     1      45.259  72.609  41.381  1.00  0.00    -0.323 N
ATOM      7  H2  UNL     1      45.906  72.089  40.789  1.00  0.00     0.169 HD
HETATM    8  C3  UNL     1      45.160  73.971  41.255  1.00  0.00     0.113 A
HETATM    9  S2  UNL     1      46.102  74.670  40.119  1.00  0.00    -0.060 SA
HETATM   10  C4  UNL     1      44.293  74.687  42.042  1.00  0.00     0.031 A
ENDROOT
BRANCH  10  11
HETATM   11  C5  UNL     1      44.154  76.123  41.926  1.00  0.00     0.051 C
BRANCH  11  12
HETATM   12  C6  UNL     1      45.051  76.970  42.743  1.00  0.00    -0.010 C
HETATM   13  C7  UNL     1      44.197  77.809  43.696  1.00  0.00     0.005 C
HETATM   14  C8  UNL     1      45.290  78.677  44.323  1.00  0.00     0.000 C
HETATM   15  C9  UNL     1      46.133  79.052  43.147  1.00  0.00     0.000 C
HETATM   16  C10 UNL     1      45.816  78.035  42.040  1.00  0.00     0.005 C
ENDBRANCH  11  12
ENDBRANCH  10  11
BRANCH   1  17
HETATM   17  O1  UNL     1      42.663  74.645  43.762  1.00  0.00    -0.346 OA
ATOM     18  H1  UNL     1      42.304  75.471  43.460  1.00  0.00     0.219 HD
ENDBRANCH   1  17
TORSDOF 3
ENDMDL