MODEL 4
REMARK VINA RESULT: -7.539036421      1.103      1.542
REMARK  4 active torsions:
REMARK  status: ('A' for Active; 'I' for Inactive)
REMARK    1  A    between atoms: C2_2  and  N2_7
REMARK    2  A    between atoms: N1_3  and  O1_5
REMARK    3  A    between atoms: N2_7  and  C3_9
REMARK    4  A    between atoms: C3_9  and  C10_16
ROOT
HETATM    1  C3  UNL     1      44.129  76.822  42.127  1.00  0.00     0.049 C
HETATM    2  C4  UNL     1      44.330  75.495  42.180  1.00  0.00    -0.052 C
HETATM    3  C5  UNL     1      43.569  74.528  41.350  1.00  0.00     0.036 C
HETATM    4  C6  UNL     1      42.834  73.530  42.190  1.00  0.00     0.004 C
HETATM    5  C7  UNL     1      43.552  73.060  43.395  1.00  0.00     0.001 C
HETATM    6  C8  UNL     1      44.930  73.527  43.608  1.00  0.00     0.004 C
HETATM    7  C9  UNL     1      45.306  74.883  43.093  1.00  0.00     0.036 C
ENDROOT
BRANCH   1   8
HETATM    8  N2  UNL     1      43.119  77.239  41.216  1.00  0.00    -0.344 N
ATOM      9  H2  UNL     1      42.547  76.494  40.819  1.00  0.00     0.167 HD
BRANCH   8  10
HETATM   10  C2  UNL     1      42.807  78.533  40.795  1.00  0.00     0.098 C
HETATM   11  C1  UNL     1      43.645  79.083  39.660  1.00  0.00     0.091 C
HETATM   12  N1  UNL     1      41.887  79.301  41.252  1.00  0.00    -0.257 N
ATOM     13  H1  UNL     1      41.289  78.987  42.016  1.00  0.00     0.195 HD
BRANCH  12  14
HETATM   14  O1  UNL     1      41.713  80.542  40.708  1.00  0.00    -0.288 OA
ATOM     15  H1  UNL     1      40.959  81.061  40.959  1.00  0.00     0.244 HD
ENDBRANCH  12  14
ENDBRANCH   8  10
ENDBRANCH   1   8
BRANCH   1  16
HETATM   16  C10 UNL     1      44.950  77.777  42.871  1.00  0.00     0.029 A
HETATM   17  C11 UNL     1      44.541  78.166  44.157  1.00  0.00     0.017 A
HETATM   18  C12 UNL     1      45.257  79.078  44.898  1.00  0.00     0.001 A
HETATM   19  C13 UNL     1      46.407  79.655  44.422  1.00  0.00     0.003 A
HETATM   20  C14 UNL     1      46.819  79.283  43.167  1.00  0.00     0.043 A
HETATM   21  C15 UNL     1      46.102  78.357  42.399  1.00  0.00     0.128 A
HETATM   22  F1  UNL     1      46.585  78.067  41.173  1.00  0.00    -0.205 F
ENDBRANCH   1  16
TORSDOF 4
ENDMDL