MODEL 5
REMARK VINA RESULT: -6.884254548      3.744      7.781
REMARK  4 active torsions:
REMARK  status: ('A' for Active; 'I' for Inactive)
REMARK    1  A    between atoms: C1_4  and  N2_5
REMARK    2  A    between atoms: C1_4  and  S1_15
REMARK    3  A    between atoms: N2_5  and  C2_7
REMARK    4  A    between atoms: S1_15  and  C8_16
ROOT
HETATM    1  N1  UNL     1      45.741  77.437  40.524  1.00  0.00    -0.380 N
ATOM      2  H11 UNL     1      46.049  76.482  40.338  1.00  0.00     0.158 HD
ATOM      3  H12 UNL     1      45.918  78.131  39.798  1.00  0.00     0.158 HD
HETATM    4  C1  UNL     1      45.164  77.697  41.629  1.00  0.00     0.138 C
ENDROOT
BRANCH   4   5
HETATM    5  N2  UNL     1      44.737  79.022  41.886  1.00  0.00    -0.337 N
ATOM      6  H2  UNL     1      45.293  79.599  42.517  1.00  0.00     0.168 HD
BRANCH   5   7
HETATM    7  C2  UNL     1      43.571  79.585  41.307  1.00  0.00     0.037 A
HETATM    8  C3  UNL     1      42.327  79.007  41.436  1.00  0.00     0.031 A
HETATM    9  C4  UNL     1      41.202  79.559  40.870  1.00  0.00     0.032 A
HETATM   10  C5  UNL     1      41.275  80.720  40.149  1.00  0.00     0.085 A
HETATM   11  N3  UNL     1      40.106  81.306  39.553  1.00  0.00    -0.099 NA
HETATM   12  C6  UNL     1      42.515  81.315  40.008  1.00  0.00     0.142 A
HETATM   13  F1  UNL     1      42.596  82.465  39.294  1.00  0.00    -0.204 F
HETATM   14  C7  UNL     1      43.644  80.764  40.573  1.00  0.00     0.073 A
ENDBRANCH   5   7
ENDBRANCH   4   5
BRANCH   4  15
HETATM   15  S1  UNL     1      44.855  76.485  42.897  1.00  0.00    -0.089 SA
BRANCH  15  16
HETATM   16  C8  UNL     1      44.572  74.846  42.212  1.00  0.00     0.055 C
HETATM   17  C9  UNL     1      45.754  73.959  42.253  1.00  0.00     0.015 C
HETATM   18  C10 UNL     1      45.513  72.570  42.738  1.00  0.00     0.001 C
HETATM   19  C11 UNL     1      44.203  71.975  42.443  1.00  0.00     0.000 C
HETATM   20  C12 UNL     1      43.128  72.933  42.024  1.00  0.00     0.001 C
HETATM   21  C13 UNL     1      43.331  74.208  42.850  1.00  0.00     0.015 C
ENDBRANCH  15  16
ENDBRANCH   4  15
TORSDOF 4
ENDMDL