MODEL 5
REMARK VINA RESULT: -6.463660165      1.919      3.104
REMARK  5 active torsions:
REMARK  status: ('A' for Active; 'I' for Inactive)
REMARK    1  A    between atoms: C4_4  and  N1_5
REMARK    2  A    between atoms: N1_5  and  C5_7
REMARK    3  A    between atoms: C5_7  and  S1_11
REMARK    4  A    between atoms: S1_11  and  C6_12
REMARK    5  A    between atoms: C12_19  and  O1_20
ROOT
HETATM    1  C1  UNL     1      43.655  71.197  39.822  1.00  0.00     0.051 C
HETATM    2  C2  UNL     1      44.253  71.963  40.925  1.00  0.00    -0.026 A
HETATM    3  C3  UNL     1      44.586  73.290  40.702  1.00  0.00     0.042 A
HETATM    4  C4  UNL     1      45.151  74.084  41.678  1.00  0.00     0.074 A
HETATM    5  C9  UNL     1      45.377  73.503  42.903  1.00  0.00     0.151 A
HETATM    6  F1  UNL     1      45.924  74.244  43.876  1.00  0.00    -0.203 F
HETATM    7  C10 UNL     1      45.065  72.183  43.180  1.00  0.00     0.013 A
HETATM    8  C11 UNL     1      45.319  71.574  44.517  1.00  0.00     0.054 C
HETATM    9  C12 UNL     1      44.502  71.426  42.176  1.00  0.00     0.080 A
ENDROOT
BRANCH   4  10
HETATM   10  N1  UNL     1      45.487  75.450  41.432  1.00  0.00    -0.335 N
ATOM     11  H1  UNL     1      46.332  75.669  40.905  1.00  0.00     0.168 HD
BRANCH  10  12
HETATM   12  C5  UNL     1      44.675  76.498  41.902  1.00  0.00     0.138 C
HETATM   13  N2  UNL     1      43.569  76.759  41.336  1.00  0.00    -0.380 N
ATOM     14  H22 UNL     1      43.255  76.214  40.532  1.00  0.00     0.158 HD
ATOM     15  H21 UNL     1      42.980  77.519  41.676  1.00  0.00     0.158 HD
BRANCH  12  16
HETATM   16  S1  UNL     1      45.218  77.441  43.293  1.00  0.00    -0.090 SA
BRANCH  16  17
HETATM   17  C6  UNL     1      45.988  78.994  42.754  1.00  0.00     0.047 C
HETATM   18  C7  UNL     1      47.165  79.339  43.641  1.00  0.00     0.021 C
HETATM   19  C8  UNL     1      44.982  80.099  42.698  1.00  0.00     0.021 C
ENDBRANCH  16  17
ENDBRANCH  12  16
ENDBRANCH  10  12
ENDBRANCH   4  10
BRANCH   9  20
HETATM   20  O1  UNL     1      44.175  70.108  42.406  1.00  0.00    -0.360 OA
ATOM     21  H1  UNL     1      44.631  69.433  41.917  1.00  0.00     0.217 HD
ENDBRANCH   9  20
TORSDOF 5
ENDMDL