MODEL 5
REMARK VINA RESULT: -6.735001491      2.066      4.867
REMARK  4 active torsions:
REMARK  status: ('A' for Active; 'I' for Inactive)
REMARK    1  A    between atoms: C4_7  and  C5_8
REMARK    2  A    between atoms: C5_8  and  C6_13
REMARK    3  A    between atoms: N2_9  and  O1_11
REMARK    4  A    between atoms: C12_19  and  O2_20
ROOT
HETATM    1  C5  UNL     1      43.355  74.898  43.937  1.00  0.00     0.052 C
HETATM    2  N2  UNL     1      42.471  74.828  44.865  1.00  0.00    -0.272 N
ATOM      3  H2  UNL     1      42.018  73.918  44.949  1.00  0.00     0.194 HD
ENDROOT
BRANCH   1   4
HETATM    4  C4  UNL     1      43.561  73.677  43.166  1.00  0.00     0.062 A
HETATM    5  C3  UNL     1      44.077  72.488  43.694  1.00  0.00     0.119 A
HETATM    6  N1  UNL     1      44.193  71.556  42.751  1.00  0.00    -0.347 N
HETATM    7 CL1  UNL     1      44.523  72.215  45.363  1.00  0.00    -0.063 Cl
HETATM    8  C2  UNL     1      43.767  72.107  41.621  1.00  0.00     0.041 A
ATOM      9  H1  UNL     1      44.540  70.605  42.873  1.00  0.00     0.167 HD
HETATM   10  C1  UNL     1      43.699  71.459  40.268  1.00  0.00     0.071 C
HETATM   11  C12 UNL     1      43.363  73.433  41.837  1.00  0.00     0.103 A
BRANCH  11  12
HETATM   12  O2  UNL     1      42.898  74.188  40.826  1.00  0.00    -0.358 OA
ATOM     13  H2  UNL     1      42.838  73.840  39.943  1.00  0.00     0.217 HD
ENDBRANCH  11  12
ENDBRANCH   1   4
BRANCH   1  14
HETATM   14  C6  UNL     1      43.995  76.184  43.681  1.00  0.00     0.038 C
HETATM   15  C7  UNL     1      45.315  76.014  42.956  1.00  0.00     0.011 C
HETATM   16  C8  UNL     1      45.551  77.131  41.943  1.00  0.00     0.001 C
HETATM   17  C9  UNL     1      45.251  78.431  42.638  1.00  0.00     0.000 C
HETATM   18  C10 UNL     1      43.851  78.545  43.132  1.00  0.00     0.001 C
HETATM   19  C11 UNL     1      43.157  77.177  42.906  1.00  0.00     0.011 C
ENDBRANCH   1  14
BRANCH   2  20
HETATM   20  O1  UNL     1      42.044  75.739  45.735  1.00  0.00    -0.290 OA
ATOM     21  H1  UNL     1      41.889  75.684  46.670  1.00  0.00     0.244 HD
ENDBRANCH   2  20
TORSDOF 4
ENDMDL