MODEL 2
REMARK VINA RESULT: -6.820166207      1.618      3.025
REMARK  5 active torsions:
REMARK  status: ('A' for Active; 'I' for Inactive)
REMARK    1  A    between atoms: C2_2  and  C4_4
REMARK    2  A    between atoms: C5_7  and  O1_8
REMARK    3  A    between atoms: C6_10  and  C7_11
REMARK    4  A    between atoms: N2_12  and  C8_14
REMARK    5  A    between atoms: C14_20  and  O2_21
ROOT
HETATM    1  C4  UNL     1      44.517  72.738  42.223  1.00  0.00     0.049 A
HETATM    2  N1  UNL     1      43.533  72.760  43.173  1.00  0.00    -0.337 N
ATOM      3  H1  UNL     1      43.031  71.942  43.519  1.00  0.00     0.168 HD
HETATM    4  C5  UNL     1      43.327  74.035  43.583  1.00  0.00     0.155 A
HETATM    5  C6  UNL     1      44.209  74.885  42.889  1.00  0.00     0.065 A
HETATM    6  C14 UNL     1      44.919  74.043  42.065  1.00  0.00     0.104 A
ENDROOT
BRANCH   5   7
HETATM    7  C7  UNL     1      44.346  76.319  43.033  1.00  0.00     0.102 C
HETATM    8  N2  UNL     1      45.428  76.969  43.041  1.00  0.00    -0.393 N
ATOM      9  H2  UNL     1      46.316  76.476  42.938  1.00  0.00     0.159 HD
BRANCH   8  10
HETATM   10  C8  UNL     1      45.420  78.383  43.193  1.00  0.00     0.081 C
HETATM   11  C9  UNL     1      45.396  78.948  44.559  1.00  0.00     0.025 C
HETATM   12  C10 UNL     1      45.779  80.422  44.418  1.00  0.00     0.002 C
HETATM   13  C11 UNL     1      45.053  81.185  43.401  1.00  0.00     0.000 C
HETATM   14  C12 UNL     1      44.476  80.423  42.252  1.00  0.00     0.002 C
HETATM   15  C13 UNL     1      44.182  79.009  42.512  1.00  0.00     0.025 C
ENDBRANCH   8  10
ENDBRANCH   5   7
BRANCH   4  16
HETATM   16  O1  UNL     1      42.409  74.450  44.526  1.00  0.00    -0.345 OA
ATOM     17  H1  UNL     1      41.583  74.885  44.352  1.00  0.00     0.219 HD
ENDBRANCH   4  16
BRANCH   6  18
HETATM   18  O2  UNL     1      45.928  74.380  41.161  1.00  0.00    -0.358 OA
ATOM     19  H2  UNL     1      46.089  75.285  40.923  1.00  0.00     0.217 HD
ENDBRANCH   6  18
BRANCH   1  20
HETATM   20  C2  UNL     1      44.853  71.552  41.413  1.00  0.00     0.030 C
HETATM   21  C1  UNL     1      44.462  70.298  42.246  1.00  0.00     0.016 C
HETATM   22  C3  UNL     1      43.803  71.522  40.224  1.00  0.00     0.016 C
ENDBRANCH   1  20
TORSDOF 5
ENDMDL