MODEL 4
REMARK VINA RESULT: -7.202137410      2.636      3.449
REMARK  2 active torsions:
REMARK  status: ('A' for Active; 'I' for Inactive)
REMARK    1  A    between atoms: C5_11  and  N3_12
REMARK    2  A    between atoms: N3_12  and  N4_14
ROOT
HETATM    1  N3  UNL     1      44.465  77.483  42.833  1.00  0.00    -0.297 N
ATOM      2  H3  UNL     1      45.453  77.427  43.081  1.00  0.00     0.187 HD
ENDROOT
BRANCH   1   3
HETATM    3  C5  UNL     1      44.046  78.549  42.030  1.00  0.00     0.091 A
HETATM    4  C1  UNL     1      44.495  79.821  42.291  1.00  0.00     0.128 A
HETATM    5  N1  UNL     1      45.314  80.035  43.292  1.00  0.00    -0.384 N
HETATM    6  N2  UNL     1      44.070  80.818  41.495  1.00  0.00    -0.332 N
ATOM      7  H12 UNL     1      45.647  80.979  43.486  1.00  0.00     0.157 HD
ATOM      8  H11 UNL     1      45.637  79.278  43.896  1.00  0.00     0.157 HD
HETATM    9  C2  UNL     1      43.234  80.624  40.467  1.00  0.00     0.105 A
ATOM     10  H2  UNL     1      44.398  81.765  41.683  1.00  0.00     0.168 HD
HETATM   11 CL1  UNL     1      42.732  81.987  39.479  1.00  0.00    -0.065 Cl
HETATM   12  C3  UNL     1      42.763  79.364  40.172  1.00  0.00     0.045 A
HETATM   13  C4  UNL     1      43.185  78.319  40.977  1.00  0.00     0.038 A
ENDBRANCH   1   3
BRANCH   1  14
HETATM   14  N4  UNL     1      43.604  76.489  43.317  1.00  0.00    -0.308 N
HETATM   15  C6  UNL     1      44.048  75.296  43.400  1.00  0.00     0.004 C
HETATM   16  C7  UNL     1      45.433  75.157  42.961  1.00  0.00     0.054 C
HETATM   17  C13 UNL     1      43.017  74.376  43.927  1.00  0.00     0.054 C
HETATM   18  C8  UNL     1      45.493  74.773  41.495  1.00  0.00     0.006 C
HETATM   19  C9  UNL     1      45.622  73.299  41.330  1.00  0.00     0.000 C
HETATM   20  C10 UNL     1      44.361  72.548  41.171  1.00  0.00     0.000 C
HETATM   21  C11 UNL     1      43.143  73.181  41.741  1.00  0.00     0.000 C
HETATM   22  C12 UNL     1      43.134  73.011  43.259  1.00  0.00     0.006 C
ATOM     23  H4  UNL     1      42.648  76.713  43.595  1.00  0.00     0.186 HD
ENDBRANCH   1  14
TORSDOF 2
ENDMDL