MODEL 4
REMARK VINA RESULT: -7.516738419      2.424      3.561
REMARK  5 active torsions:
REMARK  status: ('A' for Active; 'I' for Inactive)
REMARK    1  A    between atoms: C7_7  and  N1_8
REMARK    2  A    between atoms: N1_8  and  C8_10
REMARK    3  A    between atoms: C10_12  and  C11_13
REMARK    4  A    between atoms: C11_13  and  O1_14
REMARK    5  A    between atoms: N2_16  and  O2_18
ROOT
HETATM    1  C8  UNL     1      45.198  73.674  41.344  1.00  0.00     0.102 A
HETATM    2  C9  UNL     1      45.224  73.210  42.640  1.00  0.00     0.064 A
HETATM    3  C10 UNL     1      45.025  71.866  42.993  1.00  0.00     0.021 A
HETATM    4  C12 UNL     1      44.797  70.989  41.988  1.00  0.00     0.033 A
HETATM    5  C13 UNL     1      44.770  71.457  40.677  1.00  0.00     0.090 A
HETATM    6  N3  UNL     1      44.964  72.733  40.410  1.00  0.00    -0.353 N
ATOM      7  H3  UNL     1      44.935  73.026  39.433  1.00  0.00     0.166 HD
ENDROOT
BRANCH   1   8
HETATM    8  N1  UNL     1      45.392  75.044  41.031  1.00  0.00    -0.371 N
ATOM      9  H1  UNL     1      45.678  75.281  40.080  1.00  0.00     0.161 HD
BRANCH   8  10
HETATM   10  C7  UNL     1      45.213  76.109  41.954  1.00  0.00     0.086 C
HETATM   11  C2  UNL     1      45.619  77.432  41.320  1.00  0.00     0.004 C
HETATM   12  C1  UNL     1      44.577  77.994  40.410  1.00  0.00     0.012 C
HETATM   13  C3  UNL     1      45.826  78.412  42.456  1.00  0.00     0.006 C
HETATM   14  C4  UNL     1      44.476  78.627  43.097  1.00  0.00     0.001 C
HETATM   15  C5  UNL     1      43.810  77.365  43.511  1.00  0.00     0.002 C
HETATM   16  C6  UNL     1      43.816  76.258  42.506  1.00  0.00     0.025 C
ENDBRANCH   8  10
ENDBRANCH   1   8
BRANCH   3  17
HETATM   17  C11 UNL     1      45.075  71.488  44.397  1.00  0.00     0.170 C
HETATM   18  N2  UNL     1      44.452  72.046  45.304  1.00  0.00    -0.247 N
ATOM     19  H2  UNL     1      44.633  71.619  46.213  1.00  0.00     0.196 HD
BRANCH  17  20
HETATM   20  O1  UNL     1      45.896  70.395  44.788  1.00  0.00    -0.344 OA
ATOM     21  H1  UNL     1      46.483  70.501  45.527  1.00  0.00     0.219 HD
ENDBRANCH  17  20
BRANCH  18  22
HETATM   22  O2  UNL     1      43.605  73.063  45.392  1.00  0.00    -0.288 OA
ATOM     23  H2  UNL     1      42.907  73.321  45.982  1.00  0.00     0.244 HD
ENDBRANCH  18  22
ENDBRANCH   3  17
TORSDOF 5
ENDMDL