MODEL 2
REMARK VINA RESULT: -6.926557415      0.971      2.643
REMARK  3 active torsions:
REMARK  status: ('A' for Active; 'I' for Inactive)
REMARK    1  A    between atoms: C3_7  and  C4_8
REMARK    2  A    between atoms: C4_8  and  N3_9
REMARK    3  A    between atoms: N3_9  and  C5_11
ROOT
HETATM    1  C5  UNL     1     -21.308  -0.577 -25.131  1.00  0.00    -0.018 C
HETATM    2  C6  UNL     1     -21.410   0.975 -25.106  1.00  0.00     0.052 C
HETATM    3  C7  UNL     1     -21.373   1.251 -23.662  1.00  0.00     0.006 C
HETATM    4  C8  UNL     1     -21.107   2.495 -22.970  1.00  0.00     0.000 C
HETATM    5  C9  UNL     1     -20.912   2.054 -21.494  1.00  0.00     0.000 C
HETATM    6  C10 UNL     1     -21.800   0.961 -21.027  1.00  0.00     0.000 C
HETATM    7  C11 UNL     1     -21.261  -0.428 -20.964  1.00  0.00     0.000 C
HETATM    8  C12 UNL     1     -22.117  -1.498 -21.658  1.00  0.00     0.000 C
HETATM    9  C13 UNL     1     -21.552  -1.910 -22.996  1.00  0.00     0.006 C
HETATM   10  C14 UNL     1     -22.217  -1.284 -24.207  1.00  0.00     0.052 C
ENDROOT
BRANCH   1  11
HETATM   11  N3  UNL     1     -21.178  -1.013 -26.459  1.00  0.00    -0.392 N
ATOM     12  H3  UNL     1     -20.307  -1.430 -26.787  1.00  0.00     0.159 HD
BRANCH  11  13
HETATM   13  C4  UNL     1     -22.282  -0.860 -27.336  1.00  0.00     0.160 C
BRANCH  13  14
HETATM   14  C3  UNL     1     -21.770  -0.357 -28.654  1.00  0.00    -0.007 A
HETATM   15  C1  UNL     1     -20.651   0.458 -28.762  1.00  0.00     0.117 A
HETATM   16  N1  UNL     1     -20.457   0.731 -30.049  1.00  0.00    -0.312 N
HETATM   17  N2  UNL     1     -21.404   0.123 -30.759  1.00  0.00    -0.312 N
ATOM     18  H1  UNL     1     -19.707   1.309 -30.428  1.00  0.00     0.186 HD
HETATM   19  C2  UNL     1     -22.232  -0.559 -29.914  1.00  0.00     0.117 A
ATOM     20  H2  UNL     1     -21.497   0.160 -31.774  1.00  0.00     0.186 HD
ENDBRANCH  13  14
ENDBRANCH  11  13
ENDBRANCH   1  11
TORSDOF 3
ENDMDL