MODEL 1
REMARK VINA RESULT: -5.871607034      0.000      0.000
REMARK  5 active torsions:
REMARK  status: ('A' for Active; 'I' for Inactive)
REMARK    1  A    between atoms: C2_2  and  N1_3
REMARK    2  A    between atoms: C2_2  and  C3_7
REMARK    3  A    between atoms: C3_7  and  C4_8
REMARK    4  A    between atoms: C4_8  and  O1_9
REMARK    5  A    between atoms: C9_15  and  C10_16
ROOT
HETATM    1  C4  UNL     1     -22.028  -0.827 -27.971  1.00  0.00     0.065 C
HETATM    2  C5  UNL     1     -22.191   0.398 -28.843  1.00  0.00     0.047 C
HETATM    3  C6  UNL     1     -21.791   1.242 -27.650  1.00  0.00    -0.038 C
HETATM    4  C7  UNL     1     -22.746   2.407 -27.387  1.00  0.00     0.015 C
HETATM    5  C8  UNL     1     -20.428   1.793 -27.878  1.00  0.00     0.015 C
HETATM    6  C9  UNL     1     -22.051   0.106 -26.790  1.00  0.00     0.032 C
ENDROOT
BRANCH   1   7
HETATM    7  C3  UNL     1     -23.207  -1.775 -28.054  1.00  0.00     0.070 C
BRANCH   7   8
HETATM    8  C2  UNL     1     -23.747  -1.822 -29.450  1.00  0.00     0.182 C
HETATM    9  C1  UNL     1     -25.223  -2.165 -29.483  1.00  0.00     0.039 C
BRANCH   8  10
HETATM   10  N1  UNL     1     -23.063  -2.771 -30.296  1.00  0.00    -0.075 N
ATOM     11  H13 UNL     1     -22.758  -3.604 -29.794  1.00  0.00     0.274 HD
ATOM     12  H12 UNL     1     -23.685  -3.234 -30.958  1.00  0.00     0.274 HD
ATOM     13  H11 UNL     1     -22.295  -2.277 -30.750  1.00  0.00     0.274 HD
ENDBRANCH   8  10
ENDBRANCH   7   8
ENDBRANCH   1   7
BRANCH   1  14
HETATM   14  O1  UNL     1     -20.845  -1.525 -28.156  1.00  0.00    -0.389 OA
ATOM     15  H1  UNL     1     -20.354  -1.146 -28.875  1.00  0.00     0.210 HD
ENDBRANCH   1  14
BRANCH   6  16
HETATM   16  C10 UNL     1     -21.255  -0.264 -25.609  1.00  0.00    -0.007 C
HETATM   17  C11 UNL     1     -22.156  -1.019 -24.651  1.00  0.00     0.005 C
HETATM   18  C12 UNL     1     -21.295  -2.029 -23.925  1.00  0.00     0.000 C
HETATM   19  C13 UNL     1     -19.982  -1.361 -23.560  1.00  0.00     0.000 C
HETATM   20  C14 UNL     1     -20.143   0.146 -23.483  1.00  0.00     0.000 C
HETATM   21  C15 UNL     1     -20.489   0.732 -24.861  1.00  0.00     0.005 C
ENDBRANCH   6  16
TORSDOF 5
ENDMDL