MODEL 5
REMARK VINA RESULT: -5.319844101      2.165      3.666
REMARK  5 active torsions:
REMARK  status: ('A' for Active; 'I' for Inactive)
REMARK    1  A    between atoms: C2_2  and  C3_3
REMARK    2  A    between atoms: C3_3  and  C4_4
REMARK    3  A    between atoms: C7_7  and  C9_9
REMARK    4  A    between atoms: C9_9  and  O1_10
REMARK    5  A    between atoms: C14_16  and  O2_18
ROOT
HETATM    1  C4  UNL     1     -20.865  -0.656 -26.568  1.00  0.00     0.006 C
HETATM    2  C5  UNL     1     -20.499  -2.091 -26.284  1.00  0.00     0.007 C
HETATM    3  C6  UNL     1     -19.967  -1.968 -24.865  1.00  0.00     0.012 C
HETATM    4  C7  UNL     1     -21.012  -1.029 -24.246  1.00  0.00    -0.015 C
HETATM    5  C8  UNL     1     -20.517  -0.435 -22.961  1.00  0.00     0.018 C
HETATM    6  C10 UNL     1     -21.198   0.039 -25.323  1.00  0.00    -0.034 C
HETATM    7  C11 UNL     1     -20.138   1.144 -25.059  1.00  0.00     0.016 C
HETATM    8  C12 UNL     1     -22.501   0.708 -25.178  1.00  0.00     0.016 C
ENDROOT
BRANCH   1   9
HETATM    9  C3  UNL     1     -21.797  -0.492 -27.758  1.00  0.00    -0.003 A
HETATM   10  C13 UNL     1     -22.278   0.866 -28.030  1.00  0.00     0.051 A
HETATM   11  C14 UNL     1     -21.127   0.326 -28.877  1.00  0.00     0.063 A
HETATM   12  C15 UNL     1     -21.426   0.155 -30.304  1.00  0.00     0.046 C
BRANCH   9  13
HETATM   13  C2  UNL     1     -22.494  -1.719 -28.218  1.00  0.00     0.008 C
HETATM   14  C1  UNL     1     -23.944  -1.646 -28.507  1.00  0.00     0.006 C
ENDBRANCH   9  13
BRANCH  11  15
HETATM   15  O2  UNL     1     -19.843   0.839 -28.572  1.00  0.00    -0.389 OA
ATOM     16  H2  UNL     1     -19.421   1.328 -29.270  1.00  0.00     0.210 HD
ENDBRANCH  11  15
ENDBRANCH   1   9
BRANCH   4  17
HETATM   17  C9  UNL     1     -22.215  -1.853 -23.965  1.00  0.00     0.173 C
BRANCH  17  18
HETATM   18  O1  UNL     1     -21.859  -2.719 -22.896  1.00  0.00    -0.400 OA
ATOM     19  H1  UNL     1     -21.632  -3.550 -23.294  1.00  0.00     0.209 HD
ENDBRANCH  17  18
ENDBRANCH   4  17
TORSDOF 5
ENDMDL