MODEL 4
REMARK VINA RESULT: -5.686317766      1.914      4.528
REMARK  5 active torsions:
REMARK  status: ('A' for Active; 'I' for Inactive)
REMARK    1  A    between atoms: C2_2  and  C4_4
REMARK    2  A    between atoms: C4_4  and  C5_5
REMARK    3  A    between atoms: C5_5  and  C6_6
REMARK    4  A    between atoms: C6_6  and  O1_7
REMARK    5  A    between atoms: C11_13  and  O2_14
ROOT
HETATM    1  C4  UNL     1     -21.454   0.850 -27.137  1.00  0.00    -0.035 C
HETATM    2  C7  UNL     1     -22.671   0.043 -26.642  1.00  0.00     0.011 C
HETATM    3  C8  UNL     1     -22.210  -1.045 -25.706  1.00  0.00     0.013 C
HETATM    4  C9  UNL     1     -21.862  -0.419 -24.375  1.00  0.00    -0.014 C
HETATM    5  C10 UNL     1     -23.089  -0.441 -23.513  1.00  0.00     0.018 C
HETATM    6  C11 UNL     1     -20.681  -1.078 -23.721  1.00  0.00     0.126 C
HETATM    7  C12 UNL     1     -19.740   0.011 -23.291  1.00  0.00     0.033 C
HETATM    8  C13 UNL     1     -20.534   1.309 -23.452  1.00  0.00     0.008 C
HETATM    9  C14 UNL     1     -21.370   0.980 -24.672  1.00  0.00    -0.003 C
HETATM   10  C15 UNL     1     -20.534   0.947 -25.924  1.00  0.00     0.015 C
ENDROOT
BRANCH   1  11
HETATM   11  C2  UNL     1     -20.814   0.056 -28.208  1.00  0.00    -0.014 C
HETATM   12  C1  UNL     1     -19.634   0.691 -28.899  1.00  0.00     0.010 C
HETATM   13  C3  UNL     1     -21.802  -0.475 -29.227  1.00  0.00     0.010 C
ENDBRANCH   1  11
BRANCH   1  14
HETATM   14  C5  UNL     1     -21.950   2.203 -27.440  1.00  0.00     0.036 C
BRANCH  14  15
HETATM   15  C6  UNL     1     -23.370   2.531 -27.173  1.00  0.00     0.165 C
BRANCH  15  16
HETATM   16  O1  UNL     1     -23.405   3.545 -26.172  1.00  0.00    -0.401 OA
ATOM     17  H1  UNL     1     -23.511   3.119 -25.330  1.00  0.00     0.209 HD
ENDBRANCH  15  16
ENDBRANCH  14  15
ENDBRANCH   1  14
BRANCH   6  18
HETATM   18  O2  UNL     1     -20.084  -2.049 -24.487  1.00  0.00    -0.395 OA
ATOM     19  H2  UNL     1     -19.234  -2.330 -24.166  1.00  0.00     0.210 HD
ENDBRANCH   6  18
TORSDOF 5
ENDMDL