MODEL 3
REMARK VINA RESULT: -6.715539868      2.066      2.747
REMARK  4 active torsions:
REMARK  status: ('A' for Active; 'I' for Inactive)
REMARK    1  A    between atoms: C2_2  and  C4_4
REMARK    2  A    between atoms: C11_11  and  N1_12
REMARK    3  A    between atoms: N1_12  and  C12_15
REMARK    4  A    between atoms: C12_15  and  O1_16
ROOT
HETATM    1  C4  UNL     1     -21.398   0.365 -25.415  1.00  0.00    -0.034 C
HETATM    2  C5  UNL     1     -22.738   1.068 -25.382  1.00  0.00     0.014 C
HETATM    3  C6  UNL     1     -23.238   1.164 -23.945  1.00  0.00    -0.011 C
HETATM    4  C7  UNL     1     -22.240   1.962 -23.152  1.00  0.00     0.014 C
HETATM    5  C8  UNL     1     -20.936   1.193 -23.120  1.00  0.00    -0.041 C
HETATM    6  C9  UNL     1     -19.933   1.994 -22.321  1.00  0.00     0.015 C
HETATM    7  C10 UNL     1     -21.145  -0.189 -22.566  1.00  0.00     0.048 C
HETATM    8  C11 UNL     1     -22.070  -0.947 -23.466  1.00  0.00     0.130 C
HETATM    9  C13 UNL     1     -23.417  -0.233 -23.424  1.00  0.00     0.043 C
HETATM   10  C14 UNL     1     -21.593  -1.022 -24.897  1.00  0.00     0.049 C
HETATM   11  C15 UNL     1     -20.399   1.066 -24.518  1.00  0.00     0.019 C
ENDROOT
BRANCH   8  12
HETATM   12  N1  UNL     1     -22.324  -2.296 -23.042  1.00  0.00    -0.045 N
ATOM     13  H12 UNL     1     -23.310  -2.528 -23.171  1.00  0.00     0.280 HD
ATOM     14  H11 UNL     1     -21.900  -2.957 -23.692  1.00  0.00     0.280 HD
BRANCH  12  15
HETATM   15  C12 UNL     1     -21.917  -2.590 -21.700  1.00  0.00     0.397 C
BRANCH  15  16
HETATM   16  O1  UNL     1     -23.091  -2.739 -20.943  1.00  0.00    -0.375 OA
ATOM     17  H1  UNL     1     -23.108  -2.024 -20.318  1.00  0.00     0.211 HD
ENDBRANCH  15  16
ENDBRANCH  12  15
ENDBRANCH   8  12
BRANCH   1  18
HETATM   18  C2  UNL     1     -20.850   0.443 -26.808  1.00  0.00    -0.014 C
HETATM   19  C1  UNL     1     -20.736  -0.889 -27.493  1.00  0.00     0.010 C
HETATM   20  C3  UNL     1     -21.562   1.449 -27.679  1.00  0.00     0.010 C
ENDBRANCH   1  18
TORSDOF 4
ENDMDL