MODEL 3
REMARK VINA RESULT: -7.044265273      1.294      2.437
REMARK  4 active torsions:
REMARK  status: ('A' for Active; 'I' for Inactive)
REMARK    1  A    between atoms: C2_2  and  N2_6
REMARK    2  A    between atoms: N2_6  and  N3_8
REMARK    3  A    between atoms: C3_10  and  C4_11
REMARK    4  A    between atoms: C4_11  and  C5_12
ROOT
HETATM    1  C4  UNL     1     -22.187   1.181 -26.520  1.00  0.00     0.055 C
ENDROOT
BRANCH   1   2
HETATM    2  C3  UNL     1     -21.186   0.874 -27.555  1.00  0.00     0.081 C
HETATM    3  N3  UNL     1     -20.905   1.765 -28.447  1.00  0.00    -0.314 N
ATOM      4  H3  UNL     1     -21.392   2.660 -28.401  1.00  0.00     0.185 HD
BRANCH   3   5
HETATM    5  N2  UNL     1     -19.979   1.574 -29.464  1.00  0.00    -0.290 N
ATOM      6  H2  UNL     1     -20.292   1.183 -30.353  1.00  0.00     0.188 HD
BRANCH   5   7
HETATM    7  C2  UNL     1     -18.615   1.907 -29.300  1.00  0.00     0.085 C
HETATM    8  C1  UNL     1     -17.575   1.342 -30.220  1.00  0.00     0.090 C
HETATM    9  N1  UNL     1     -18.201   2.702 -28.365  1.00  0.00    -0.388 N
ATOM     10  H12 UNL     1     -17.217   2.942 -28.247  1.00  0.00     0.157 HD
ATOM     11  H11 UNL     1     -18.908   3.086 -27.740  1.00  0.00     0.157 HD
ENDBRANCH   5   7
ENDBRANCH   3   5
ENDBRANCH   1   2
BRANCH   1  12
HETATM   12  C5  UNL     1     -21.826   0.648 -25.162  1.00  0.00    -0.035 C
HETATM   13  C6  UNL     1     -22.647   1.322 -24.069  1.00  0.00     0.014 C
HETATM   14  C7  UNL     1     -22.305   0.669 -22.758  1.00  0.00    -0.013 C
HETATM   15  C8  UNL     1     -20.835   0.794 -22.424  1.00  0.00     0.009 C
HETATM   16  C12 UNL     1     -22.638  -0.806 -22.736  1.00  0.00     0.009 C
HETATM   17  C9  UNL     1     -20.037   0.157 -23.546  1.00  0.00    -0.013 C
HETATM   18  C10 UNL     1     -20.356  -1.303 -23.641  1.00  0.00     0.009 C
HETATM   19  C14 UNL     1     -20.378   0.852 -24.827  1.00  0.00     0.014 C
HETATM   20  C11 UNL     1     -21.846  -1.473 -23.836  1.00  0.00    -0.013 C
HETATM   21  C13 UNL     1     -22.217  -0.821 -25.139  1.00  0.00     0.014 C
ENDBRANCH   1  12
TORSDOF 4
ENDMDL