MODEL 3
REMARK VINA RESULT: -7.147667642      1.366      1.507
REMARK  3 active torsions:
REMARK  status: ('A' for Active; 'I' for Inactive)
REMARK    1  A    between atoms: C2_4  and  C3_5
REMARK    2  A    between atoms: C3_5  and  N2_6
REMARK    3  A    between atoms: N2_6  and  C4_8
ROOT
HETATM    1  C4  UNL     1     -21.879   1.095 -24.307  1.00  0.00     0.026 C
HETATM    2  C5  UNL     1     -21.981   2.454 -23.665  1.00  0.00     0.031 C
HETATM    3  C6  UNL     1     -21.122   2.588 -22.424  1.00  0.00     0.003 C
HETATM    4  C7  UNL     1     -21.577   1.574 -21.412  1.00  0.00     0.005 C
HETATM    5  C8  UNL     1     -21.291   0.184 -21.701  1.00  0.00    -0.006 C
HETATM    6  C9  UNL     1     -20.322  -0.143 -22.785  1.00  0.00    -0.007 C
HETATM    7  C10 UNL     1     -21.132  -1.447 -22.932  1.00  0.00     0.010 C
HETATM    8  C11 UNL     1     -22.322  -0.575 -22.483  1.00  0.00    -0.007 C
HETATM    9  C12 UNL     1     -22.857   0.113 -23.683  1.00  0.00     0.035 C
HETATM   10  C13 UNL     1     -20.478   0.589 -24.067  1.00  0.00     0.035 C
ENDROOT
BRANCH   1  11
HETATM   11  N2  UNL     1     -22.218   1.196 -25.685  1.00  0.00    -0.407 N
ATOM     12  H2  UNL     1     -22.660   2.038 -26.055  1.00  0.00     0.154 HD
BRANCH  11  13
HETATM   13  C3  UNL     1     -21.926   0.101 -26.529  1.00  0.00     0.173 C
BRANCH  13  14
HETATM   14  C2  UNL     1     -21.189   0.608 -27.719  1.00  0.00     0.043 A
HETATM   15  N1  UNL     1     -21.179   1.861 -28.201  1.00  0.00    -0.353 N
HETATM   16  C1  UNL     1     -20.373   1.902 -29.301  1.00  0.00     0.180 A
ATOM     17  H1  UNL     1     -21.690   2.652 -27.809  1.00  0.00     0.166 HD
HETATM   18  N3  UNL     1     -19.865   0.671 -29.525  1.00  0.00    -0.360 N
HETATM   19  C14 UNL     1     -20.372  -0.131 -28.541  1.00  0.00     0.115 A
ATOM     20  H3  UNL     1     -19.231   0.396 -30.275  1.00  0.00     0.166 HD
ENDBRANCH  13  14
ENDBRANCH  11  13
ENDBRANCH   1  11
TORSDOF 3
ENDMDL