MODEL 5
REMARK VINA RESULT: -6.470755449      1.331      2.561
REMARK  3 active torsions:
REMARK  status: ('A' for Active; 'I' for Inactive)
REMARK    1  A    between atoms: C2_2  and  C3_3
REMARK    2  A    between atoms: C3_3  and  N1_4
REMARK    3  A    between atoms: C5_6  and  C6_7
ROOT
HETATM    1  N1  UNL     1     -21.389   0.058 -29.156  1.00  0.00    -0.192 N
HETATM    2  C4  UNL     1     -20.681   0.244 -28.044  1.00  0.00     0.135 A
HETATM    3  C5  UNL     1     -21.319  -0.365 -26.979  1.00  0.00     0.047 A
HETATM    4  N2  UNL     1     -22.430  -0.923 -27.490  1.00  0.00    -0.194 N
ATOM      5  H2  UNL     1     -23.127  -1.453 -26.966  1.00  0.00     0.184 HD
HETATM    6  C14 UNL     1     -22.470  -0.664 -28.810  1.00  0.00     0.678 A
HETATM    7  N3  UNL     1     -23.400  -1.045 -29.636  1.00  0.00    -0.234 N
ATOM      8  H31 UNL     1     -24.220  -1.592 -29.374  1.00  0.00     0.174 HD
ATOM      9  H32 UNL     1     -23.430  -0.849 -30.637  1.00  0.00     0.174 HD
ENDROOT
BRANCH   3  10
HETATM   10  C6  UNL     1     -20.931  -0.435 -25.573  1.00  0.00     0.038 C
HETATM   11  C7  UNL     1     -21.998  -1.088 -24.726  1.00  0.00     0.016 C
HETATM   12  C8  UNL     1     -22.585  -0.013 -23.849  1.00  0.00    -0.010 C
HETATM   13  C9  UNL     1     -22.990  -0.682 -22.539  1.00  0.00     0.011 C
HETATM   14  C10 UNL     1     -21.436   0.947 -23.643  1.00  0.00    -0.044 C
HETATM   15  C11 UNL     1     -20.607   0.526 -22.474  1.00  0.00     0.015 C
HETATM   16  C12 UNL     1     -21.965   2.345 -23.356  1.00  0.00     0.015 C
HETATM   17  C13 UNL     1     -20.661   0.908 -24.949  1.00  0.00     0.020 C
ENDBRANCH   3  10
BRANCH   1  18
HETATM   18  C3  UNL     1     -21.099   0.522 -30.509  1.00  0.00     0.146 C
BRANCH  18  19
HETATM   19  C2  UNL     1     -19.947   1.481 -30.415  1.00  0.00     0.016 C
HETATM   20  C1  UNL     1     -19.847   2.403 -31.596  1.00  0.00     0.006 C
ENDBRANCH  18  19
ENDBRANCH   1  18
TORSDOF 3
ENDMDL