MODEL 3
REMARK VINA RESULT: -6.072066093      2.181      5.624
REMARK  6 active torsions:
REMARK  status: ('A' for Active; 'I' for Inactive)
REMARK    1  A    between atoms: C2_2  and  C3_3
REMARK    2  A    between atoms: C3_3  and  O1_5
REMARK    3  A    between atoms: C3_3  and  C5_7
REMARK    4  A    between atoms: C5_7  and  C6_8
REMARK    5  A    between atoms: C6_8  and  C8_10
REMARK    6  A    between atoms: C15_17  and  N1_18
ROOT
HETATM    1  C8  UNL     1     -22.116   0.571 -26.109  1.00  0.00     0.020 C
HETATM    2  C9  UNL     1     -22.441   1.261 -27.411  1.00  0.00     0.007 C
HETATM    3  C10 UNL     1     -22.911   0.254 -28.452  1.00  0.00     0.001 C
HETATM    4  C11 UNL     1     -22.203  -1.041 -28.271  1.00  0.00     0.011 C
HETATM    5  C12 UNL     1     -20.844  -0.826 -27.699  1.00  0.00    -0.019 C
HETATM    6  C13 UNL     1     -20.184  -2.223 -27.674  1.00  0.00     0.017 C
HETATM    7  C14 UNL     1     -19.958   0.026 -28.571  1.00  0.00     0.017 C
HETATM    8  C15 UNL     1     -20.887  -0.298 -26.253  1.00  0.00     0.195 C
ENDROOT
BRANCH   1   9
HETATM    9  C6  UNL     1     -22.209   1.365 -24.893  1.00  0.00    -0.010 C
HETATM   10  C7  UNL     1     -23.172   2.571 -25.149  1.00  0.00     0.010 C
BRANCH   9  11
HETATM   11  C5  UNL     1     -22.450   0.909 -23.551  1.00  0.00     0.042 C
BRANCH  11  12
HETATM   12  C3  UNL     1     -21.444   0.612 -22.523  1.00  0.00     0.054 C
HETATM   13  C4  UNL     1     -22.038  -0.650 -21.779  1.00  0.00     0.045 C
BRANCH  12  14
HETATM   14  C2  UNL     1     -21.272   1.590 -21.409  1.00  0.00     0.033 C
HETATM   15  C1  UNL     1     -20.822   2.947 -21.909  1.00  0.00     0.008 C
ENDBRANCH  12  14
BRANCH  12  16
HETATM   16  O1  UNL     1     -20.229   0.091 -22.962  1.00  0.00    -0.390 OA
ATOM     17  H1  UNL     1     -20.344  -0.632 -23.567  1.00  0.00     0.210 HD
ENDBRANCH  12  16
ENDBRANCH  11  12
ENDBRANCH   9  11
ENDBRANCH   1   9
BRANCH   8  18
HETATM   18  N1  UNL     1     -21.096  -1.480 -25.452  1.00  0.00    -0.074 N
ATOM     19  H13 UNL     1     -20.583  -1.459 -24.571  1.00  0.00     0.274 HD
ATOM     20  H12 UNL     1     -22.036  -1.532 -25.059  1.00  0.00     0.274 HD
ATOM     21  H11 UNL     1     -20.862  -2.288 -26.031  1.00  0.00     0.274 HD
ENDBRANCH   8  18
TORSDOF 6
ENDMDL