MODEL 3
REMARK VINA RESULT: -7.621043971      1.106      1.468
REMARK  4 active torsions:
REMARK  status: ('A' for Active; 'I' for Inactive)
REMARK    1  A    between atoms: C2_2  and  C11_18
REMARK    2  A    between atoms: N1_3  and  N2_5
REMARK    3  A    between atoms: N2_5  and  C3_7
REMARK    4  A    between atoms: C3_7  and  C4_11
ROOT
HETATM    1  N2  UNL     1     -19.909  -2.092 -24.478  1.00  0.00    -0.289 N
ATOM      2  H2  UNL     1     -18.969  -1.900 -24.130  1.00  0.00     0.188 HD
ENDROOT
BRANCH   1   3
HETATM    3  N1  UNL     1     -20.920  -2.213 -23.653  1.00  0.00    -0.303 N
HETATM    4  C2  UNL     1     -21.688  -1.603 -22.928  1.00  0.00     0.035 C
HETATM    5  C1  UNL     1     -22.747  -2.411 -22.161  1.00  0.00     0.070 C
ATOM      6  H1  UNL     1     -21.158  -3.203 -23.596  1.00  0.00     0.186 HD
BRANCH   4   7
HETATM    7  C11 UNL     1     -21.675  -0.149 -22.736  1.00  0.00     0.026 A
HETATM    8  C12 UNL     1     -22.024   0.714 -23.763  1.00  0.00     0.016 A
HETATM    9  C13 UNL     1     -22.026   2.111 -23.627  1.00  0.00     0.001 A
HETATM   10  C14 UNL     1     -21.674   2.700 -22.441  1.00  0.00     0.003 A
HETATM   11  C15 UNL     1     -21.327   1.858 -21.419  1.00  0.00     0.043 A
HETATM   12  C16 UNL     1     -21.323   0.459 -21.547  1.00  0.00     0.128 A
HETATM   13  F1  UNL     1     -20.968  -0.285 -20.486  1.00  0.00    -0.205 F
ENDBRANCH   4   7
ENDBRANCH   1   3
BRANCH   1  14
HETATM   14  C3  UNL     1     -20.163  -2.241 -25.909  1.00  0.00     0.093 C
HETATM   15  N3  UNL     1     -19.667  -3.269 -26.467  1.00  0.00    -0.388 N
ATOM     16  H32 UNL     1     -19.113  -3.998 -26.018  1.00  0.00     0.157 HD
ATOM     17  H31 UNL     1     -19.844  -3.372 -27.466  1.00  0.00     0.157 HD
BRANCH  14  18
HETATM   18  C4  UNL     1     -20.957  -1.196 -26.552  1.00  0.00     0.054 C
HETATM   19  C5  UNL     1     -21.344  -1.669 -27.950  1.00  0.00     0.013 C
HETATM   20  C6  UNL     1     -22.451  -0.731 -28.432  1.00  0.00     0.005 C
HETATM   21  C7  UNL     1     -21.948   0.677 -28.380  1.00  0.00    -0.019 C
HETATM   22  C8  UNL     1     -22.852   1.549 -27.532  1.00  0.00     0.010 C
HETATM   23  C9  UNL     1     -20.526   0.794 -27.909  1.00  0.00     0.005 C
HETATM   24  C10 UNL     1     -20.283   0.147 -26.575  1.00  0.00     0.013 C
ENDBRANCH  14  18
ENDBRANCH   1  14
TORSDOF 4
ENDMDL