MODEL 5
REMARK VINA RESULT: -6.382239648      3.010      4.319
REMARK  3 active torsions:
REMARK  status: ('A' for Active; 'I' for Inactive)
REMARK    1  A    between atoms: C4_5  and  N1_6
REMARK    2  A    between atoms: N1_6  and  C5_8
REMARK    3  A    between atoms: C11_14  and  N2_15
ROOT
HETATM    1  F1  UNL     1     -19.079  -3.757 -26.414  1.00  0.00    -0.206 F
HETATM    2  C1  UNL     1     -19.728  -2.623 -25.998  1.00  0.00     0.118 A
HETATM    3  C2  UNL     1     -19.496  -2.075 -24.759  1.00  0.00     0.044 A
HETATM    4  C3  UNL     1     -20.172  -0.919 -24.363  1.00  0.00     0.034 A
HETATM    5  C4  UNL     1     -21.084  -0.322 -25.228  1.00  0.00     0.055 A
HETATM    6  C11 UNL     1     -21.312  -0.878 -26.472  1.00  0.00     0.063 A
HETATM    7  C16 UNL     1     -20.633  -2.027 -26.853  1.00  0.00     0.074 A
ENDROOT
BRANCH   5   8
HETATM    8  N1  UNL     1     -21.805   0.836 -24.872  1.00  0.00    -0.383 N
ATOM      9  H1  UNL     1     -21.777   1.627 -25.516  1.00  0.00     0.160 HD
BRANCH   8  10
HETATM   10  C5  UNL     1     -22.593   0.987 -23.646  1.00  0.00     0.081 C
HETATM   11  C6  UNL     1     -21.688   1.464 -22.579  1.00  0.00     0.025 C
HETATM   12  C7  UNL     1     -21.802   0.831 -21.241  1.00  0.00     0.002 C
HETATM   13  C8  UNL     1     -21.661  -0.681 -21.476  1.00  0.00     0.000 C
HETATM   14  C9  UNL     1     -22.916  -1.074 -22.181  1.00  0.00     0.002 C
HETATM   15  C10 UNL     1     -23.262  -0.321 -23.399  1.00  0.00     0.025 C
ENDBRANCH   8  10
ENDBRANCH   5   8
BRANCH   6  16
HETATM   16  N2  UNL     1     -22.227  -0.273 -27.337  1.00  0.00    -0.344 N
HETATM   17  C12 UNL     1     -22.764  -0.814 -28.364  1.00  0.00     0.077 C
HETATM   18  C13 UNL     1     -23.734  -0.145 -29.264  1.00  0.00     0.078 C
HETATM   19  N3  UNL     1     -22.574  -2.116 -28.869  1.00  0.00    -0.380 N
HETATM   20  C14 UNL     1     -24.553  -1.320 -29.757  1.00  0.00     0.027 C
HETATM   21  C15 UNL     1     -23.447  -2.343 -30.030  1.00  0.00     0.121 C
ATOM     22  H3  UNL     1     -21.925  -2.803 -28.484  1.00  0.00     0.160 HD
ATOM     23  H2  UNL     1     -22.492   0.690 -27.129  1.00  0.00     0.167 HD
ENDBRANCH   6  16
TORSDOF 3
ENDMDL