MODEL 5
REMARK VINA RESULT: -7.072026968      1.230      2.009
REMARK  4 active torsions:
REMARK  status: ('A' for Active; 'I' for Inactive)
REMARK    1  A    between atoms: C1_4  and  N2_5
REMARK    2  A    between atoms: C1_4  and  C11_16
REMARK    3  A    between atoms: N2_5  and  C2_7
REMARK    4  A    between atoms: C2_7  and  C3_8
ROOT
HETATM    1  N2  UNL     1     -20.706   0.840 -27.773  1.00  0.00    -0.354 N
ATOM      2  H2  UNL     1     -20.315   1.710 -27.410  1.00  0.00     0.166 HD
ENDROOT
BRANCH   1   3
HETATM    3  C1  UNL     1     -20.774   0.734 -29.174  1.00  0.00     0.115 C
HETATM    4  N1  UNL     1     -21.764   0.111 -29.684  1.00  0.00    -0.384 N
ATOM      5  H12 UNL     1     -22.467  -0.285 -29.061  1.00  0.00     0.157 HD
ATOM      6  H11 UNL     1     -21.813   0.035 -30.700  1.00  0.00     0.157 HD
BRANCH   3   7
HETATM    7  C11 UNL     1     -19.753   1.309 -30.079  1.00  0.00     0.050 A
HETATM    8  C12 UNL     1     -19.953   1.950 -31.270  1.00  0.00     0.025 A
HETATM    9  C13 UNL     1     -18.876   2.391 -31.926  1.00  0.00     0.033 A
HETATM   10  C14 UNL     1     -17.651   2.167 -31.355  1.00  0.00     0.075 A
HETATM   11 CL1  UNL     1     -16.061   2.612 -31.952  1.00  0.00    -0.076 Cl
HETATM   12  S1  UNL     1     -18.054   1.348 -29.919  1.00  0.00    -0.074 SA
ENDBRANCH   3   7
ENDBRANCH   1   3
BRANCH   1  13
HETATM   13  C2  UNL     1     -21.110  -0.100 -26.808  1.00  0.00     0.072 C
BRANCH  13  14
HETATM   14  C3  UNL     1     -21.588   0.355 -25.517  1.00  0.00    -0.007 C
HETATM   15  C4  UNL     1     -22.487  -0.735 -24.910  1.00  0.00     0.020 C
HETATM   16  C5  UNL     1     -23.169   0.006 -23.777  1.00  0.00    -0.009 C
HETATM   17  C6  UNL     1     -22.174   0.091 -22.610  1.00  0.00     0.010 C
HETATM   18  C9  UNL     1     -22.895   1.459 -24.006  1.00  0.00    -0.005 C
HETATM   19  C7  UNL     1     -21.552   1.270 -23.373  1.00  0.00    -0.009 C
HETATM   20  C8  UNL     1     -20.614   0.729 -24.465  1.00  0.00     0.020 C
HETATM   21  C10 UNL     1     -22.545   1.515 -25.500  1.00  0.00     0.020 C
ENDBRANCH  13  14
ENDBRANCH   1  13
TORSDOF 4
ENDMDL