MODEL 5
REMARK VINA RESULT: -7.837686240      1.589      2.552
REMARK  4 active torsions:
REMARK  status: ('A' for Active; 'I' for Inactive)
REMARK    1  A    between atoms: O1_1  and  N1_3
REMARK    2  A    between atoms: C1_5  and  C2_6
REMARK    3  A    between atoms: C1_5  and  C13_18
REMARK    4  A    between atoms: C2_6  and  C3_7
ROOT
HETATM    1  C2  UNL     1     -22.478   1.275 -26.681  1.00  0.00     0.069 C
ENDROOT
BRANCH   1   2
HETATM    2  C1  UNL     1     -21.961   0.810 -27.966  1.00  0.00     0.044 C
HETATM    3  N1  UNL     1     -21.022   1.412 -28.550  1.00  0.00    -0.273 N
ATOM      4  H1  UNL     1     -20.686   2.226 -28.036  1.00  0.00     0.194 HD
BRANCH   3   5
HETATM    5  O1  UNL     1     -20.376   1.215 -29.691  1.00  0.00    -0.290 OA
ATOM      6  H1  UNL     1     -19.719   1.709 -30.167  1.00  0.00     0.244 HD
ENDBRANCH   3   5
BRANCH   2   7
HETATM    7  C13 UNL     1     -22.559  -0.371 -28.574  1.00  0.00     0.005 A
HETATM    8  C14 UNL     1     -23.759  -0.509 -29.206  1.00  0.00     0.032 A
HETATM    9  C15 UNL     1     -23.912  -1.839 -29.632  1.00  0.00     0.088 A
HETATM   10  N2  UNL     1     -22.806  -2.483 -29.253  1.00  0.00    -0.374 N
HETATM   11  C16 UNL     1     -21.977  -1.646 -28.622  1.00  0.00     0.101 A
ATOM     12  H2  UNL     1     -22.620  -3.471 -29.420  1.00  0.00     0.164 HD
ENDBRANCH   2   7
ENDBRANCH   1   2
BRANCH   1  13
HETATM   13  C3  UNL     1     -22.046   0.547 -25.451  1.00  0.00    -0.031 C
HETATM   14  C4  UNL     1     -22.569  -0.852 -25.318  1.00  0.00     0.014 C
HETATM   15  C5  UNL     1     -22.245  -1.385 -23.934  1.00  0.00    -0.010 C
HETATM   16  C6  UNL     1     -22.876  -0.593 -22.834  1.00  0.00     0.009 C
HETATM   17  C10 UNL     1     -20.747  -1.410 -23.736  1.00  0.00     0.048 C
HETATM   18  C7  UNL     1     -22.358   0.827 -22.955  1.00  0.00    -0.010 C
HETATM   19  C8  UNL     1     -20.854   0.861 -22.781  1.00  0.00     0.048 C
HETATM   20  C12 UNL     1     -22.702   1.345 -24.300  1.00  0.00     0.014 C
HETATM   21  C9  UNL     1     -20.255   0.008 -23.866  1.00  0.00     0.105 C
HETATM   22  F1  UNL     1     -18.870  -0.032 -23.716  1.00  0.00    -0.243 F
HETATM   23  C11 UNL     1     -20.555   0.543 -25.235  1.00  0.00     0.053 C
ENDBRANCH   1  13
TORSDOF 4
ENDMDL