MODEL 5
REMARK VINA RESULT: -5.873948036      1.928      2.241
REMARK  3 active torsions:
REMARK  status: ('A' for Active; 'I' for Inactive)
REMARK    1  A    between atoms: C1_2  and  C2_3
REMARK    2  A    between atoms: C1_2  and  C8_9
REMARK    3  A    between atoms: C2_3  and  C3_4
ROOT
HETATM    1  C8  UNL     1     -21.686   0.005 -26.017  1.00  0.00    -0.028 A
HETATM    2  C9  UNL     1     -22.517   0.557 -25.033  1.00  0.00     0.012 A
HETATM    3  C10 UNL     1     -22.606  -0.034 -23.791  1.00  0.00     0.038 A
HETATM    4  C11 UNL     1     -21.891  -1.163 -23.487  1.00  0.00     0.079 A
HETATM    5 BR1  UNL     1     -22.018  -1.985 -21.748  1.00  0.00    -0.031 Br
HETATM    6  N1  UNL     1     -21.099  -1.679 -24.441  1.00  0.00    -0.360 N
ATOM      7  H1  UNL     1     -20.562  -2.520 -24.231  1.00  0.00     0.166 HD
HETATM    8  C12 UNL     1     -20.988  -1.130 -25.663  1.00  0.00     0.097 A
ENDROOT
BRANCH   1   9
HETATM    9  C1  UNL     1     -21.596   0.607 -27.377  1.00  0.00     0.093 C
HETATM   10  S1  UNL     1     -22.136  -0.736 -28.552  1.00  0.00    -0.087 SA
BRANCH   9  11
HETATM   11  C2  UNL     1     -20.256   1.090 -27.779  1.00  0.00     0.025 C
BRANCH  11  12
HETATM   12  C3  UNL     1     -19.990   1.278 -29.213  1.00  0.00    -0.013 C
HETATM   13  C4  UNL     1     -18.458   1.180 -29.472  1.00  0.00     0.005 C
HETATM   14  C5  UNL     1     -18.287   1.756 -30.830  1.00  0.00     0.000 C
HETATM   15  C6  UNL     1     -19.602   2.364 -31.237  1.00  0.00     0.000 C
HETATM   16  C7  UNL     1     -20.270   2.589 -29.855  1.00  0.00     0.005 C
ENDBRANCH  11  12
ENDBRANCH   9  11
ENDBRANCH   1   9
TORSDOF 3
ENDMDL