MODEL 1
REMARK VINA RESULT: -6.573374486      0.000      0.000
REMARK  5 active torsions:
REMARK  status: ('A' for Active; 'I' for Inactive)
REMARK    1  A    between atoms: C2_2  and  C3_3
REMARK    2  A    between atoms: C3_3  and  C4_4
REMARK    3  A    between atoms: C4_4  and  C5_5
REMARK    4  A    between atoms: C11_12  and  O1_13
REMARK    5  A    between atoms: C12_15  and  O2_16
ROOT
HETATM    1  C5  UNL     1     -21.175   0.528 -23.630  1.00  0.00    -0.016 A
HETATM    2  C6  UNL     1     -20.829  -0.396 -24.577  1.00  0.00    -0.045 A
HETATM    3  C7  UNL     1     -19.961  -1.567 -24.390  1.00  0.00     0.049 C
HETATM    4  C8  UNL     1     -21.310  -0.209 -25.884  1.00  0.00    -0.035 A
HETATM    5  C9  UNL     1     -20.953  -1.191 -26.946  1.00  0.00     0.050 C
HETATM    6  C10 UNL     1     -22.102   0.848 -26.248  1.00  0.00     0.053 A
HETATM    7 BR1  UNL     1     -22.761   1.114 -28.011  1.00  0.00    -0.047 Br
HETATM    8  C11 UNL     1     -22.429   1.767 -25.250  1.00  0.00     0.117 A
HETATM    9  C12 UNL     1     -21.985   1.629 -23.964  1.00  0.00     0.107 A
ENDROOT
BRANCH   1  10
HETATM   10  C4  UNL     1     -20.784   0.428 -22.236  1.00  0.00     0.042 C
BRANCH  10  11
HETATM   11  C3  UNL     1     -21.654  -0.291 -21.289  1.00  0.00     0.004 C
BRANCH  11  12
HETATM   12  C2  UNL     1     -21.601  -1.761 -21.202  1.00  0.00    -0.004 C
HETATM   13  C1  UNL     1     -22.752  -2.414 -21.993  1.00  0.00     0.005 C
ENDBRANCH  11  12
ENDBRANCH  10  11
ENDBRANCH   1  10
BRANCH   9  14
HETATM   14  O2  UNL     1     -22.339   2.570 -23.013  1.00  0.00    -0.357 OA
ATOM     15  H2  UNL     1     -22.975   3.248 -23.208  1.00  0.00     0.217 HD
ENDBRANCH   9  14
BRANCH   8  16
HETATM   16  O1  UNL     1     -23.233   2.874 -25.542  1.00  0.00    -0.357 OA
ATOM     17  H1  UNL     1     -23.742   3.293 -24.857  1.00  0.00     0.218 HD
ENDBRANCH   8  16
TORSDOF 5
ENDMDL