MODEL 4
REMARK VINA RESULT: -5.457853199      2.323      4.431
REMARK  6 active torsions:
REMARK  status: ('A' for Active; 'I' for Inactive)
REMARK    1  A    between atoms: C2_2  and  C3_3
REMARK    2  A    between atoms: C3_3  and  C4_4
REMARK    3  A    between atoms: C4_4  and  O1_5
REMARK    4  A    between atoms: C4_4  and  C5_7
REMARK    5  A    between atoms: C7_9  and  O2_10
REMARK    6  A    between atoms: C12_17  and  C13_18
ROOT
HETATM    1  C5  UNL     1     -21.511   0.833 -26.048  1.00  0.00    -0.024 C
HETATM    2  C6  UNL     1     -20.691   1.482 -27.183  1.00  0.00     0.076 C
HETATM    3  C7  UNL     1     -21.434   1.704 -28.435  1.00  0.00     0.156 C
HETATM    4  C8  UNL     1     -21.908   0.529 -29.172  1.00  0.00     0.199 C
HETATM    5  F1  UNL     1     -23.298   0.388 -29.022  1.00  0.00    -0.247 F
HETATM    6  C9  UNL     1     -21.315  -0.804 -28.813  1.00  0.00     0.040 C
HETATM    7  C10 UNL     1     -22.040  -1.495 -27.703  1.00  0.00     0.007 C
HETATM    8  C11 UNL     1     -21.335  -1.669 -26.429  1.00  0.00     0.036 C
HETATM    9  C12 UNL     1     -20.903  -0.404 -25.671  1.00  0.00    -0.064 C
ENDROOT
BRANCH   1  10
HETATM   10  C4  UNL     1     -22.199   1.860 -25.312  1.00  0.00     0.050 C
BRANCH  10  11
HETATM   11  C3  UNL     1     -22.553   1.679 -23.856  1.00  0.00     0.064 C
BRANCH  11  12
HETATM   12  C2  UNL     1     -21.673   2.649 -23.023  1.00  0.00     0.002 C
HETATM   13  C1  UNL     1     -21.490   2.112 -21.636  1.00  0.00     0.005 C
ENDBRANCH  11  12
ENDBRANCH  10  11
BRANCH  10  14
HETATM   14  O1  UNL     1     -23.274   2.511 -25.891  1.00  0.00    -0.364 OA
ATOM     15  H1  UNL     1     -23.550   3.171 -25.266  1.00  0.00     0.217 HD
ENDBRANCH  10  14
ENDBRANCH   1  10
BRANCH   9  16
HETATM   16  C13 UNL     1     -20.680  -0.925 -24.289  1.00  0.00    -0.027 C
HETATM   17  C14 UNL     1     -19.659  -0.204 -23.469  1.00  0.00     0.019 C
HETATM   18  C15 UNL     1     -21.928  -1.281 -23.532  1.00  0.00     0.019 C
HETATM   19  C16 UNL     1     -19.999  -2.290 -24.509  1.00  0.00     0.019 C
ENDBRANCH   9  16
BRANCH   3  20
HETATM   20  O2  UNL     1     -20.623   2.522 -29.248  1.00  0.00    -0.392 OA
ATOM     21  H2  UNL     1     -19.724   2.250 -29.098  1.00  0.00     0.210 HD
ENDBRANCH   3  20
TORSDOF 6
ENDMDL