MODEL 2
REMARK VINA RESULT: -6.437678244      1.981      3.755
REMARK  3 active torsions:
REMARK  status: ('A' for Active; 'I' for Inactive)
REMARK    1  A    between atoms: C6_8  and  C7_9
REMARK    2  A    between atoms: C12_14  and  N2_15
REMARK    3  A    between atoms: N2_15  and  C13_17
ROOT
HETATM    1  C7  UNL     1     -21.439   1.216 -25.128  1.00  0.00     0.043 C
HETATM    2  C8  UNL     1     -19.989   1.154 -24.553  1.00  0.00     0.011 C
HETATM    3  C9  UNL     1     -19.942   1.640 -23.115  1.00  0.00     0.001 C
HETATM    4  C10 UNL     1     -21.000   2.653 -22.820  1.00  0.00     0.002 C
HETATM    5  C11 UNL     1     -22.366   2.052 -23.121  1.00  0.00     0.025 C
HETATM    6  C12 UNL     1     -22.193   0.750 -23.903  1.00  0.00     0.085 C
ENDROOT
BRANCH   1   7
HETATM    7  C6  UNL     1     -21.511   0.438 -26.325  1.00  0.00    -0.028 A
HETATM    8  C1  UNL     1     -22.387   0.941 -27.323  1.00  0.00     0.056 A
HETATM    9  N1  UNL     1     -22.916   2.267 -27.207  1.00  0.00    -0.102 NA
HETATM   10  C2  UNL     1     -22.672   0.215 -28.427  1.00  0.00     0.069 A
HETATM   11  C3  UNL     1     -22.117  -1.060 -28.639  1.00  0.00     0.118 A
HETATM   12  F1  UNL     1     -22.465  -1.753 -29.774  1.00  0.00    -0.206 F
HETATM   13  C4  UNL     1     -21.265  -1.565 -27.688  1.00  0.00     0.043 A
HETATM   14  C5  UNL     1     -20.978  -0.807 -26.548  1.00  0.00     0.012 A
ENDBRANCH   1   7
BRANCH   6  15
HETATM   15  N2  UNL     1     -23.339  -0.003 -23.897  1.00  0.00    -0.412 N
ATOM     16  H2  UNL     1     -24.186   0.289 -24.386  1.00  0.00     0.154 HD
BRANCH  15  17
HETATM   17  C13 UNL     1     -23.266  -1.251 -23.144  1.00  0.00     0.077 C
HETATM   18  C14 UNL     1     -22.647  -2.433 -23.756  1.00  0.00     0.024 C
HETATM   19  C15 UNL     1     -21.223  -2.405 -23.143  1.00  0.00     0.002 C
HETATM   20  C16 UNL     1     -21.593  -2.189 -21.678  1.00  0.00     0.002 C
HETATM   21  C17 UNL     1     -22.723  -1.189 -21.759  1.00  0.00     0.024 C
ENDBRANCH  15  17
ENDBRANCH   6  15
TORSDOF 3
ENDMDL