MODEL 5
REMARK VINA RESULT: -5.372946993      2.420      3.976
REMARK  5 active torsions:
REMARK  status: ('A' for Active; 'I' for Inactive)
REMARK    1  A    between atoms: C2_2  and  C3_3
REMARK    2  A    between atoms: C4_8  and  C5_9
REMARK    3  A    between atoms: C5_9  and  N3_11
REMARK    4  A    between atoms: N3_11  and  C6_13
REMARK    5  A    between atoms: C9_16  and  C10_17
ROOT
HETATM    1  C3  UNL     1     -20.559  -1.510 -25.343  1.00  0.00     0.038 A
HETATM    2  N1  UNL     1     -20.530  -2.164 -26.552  1.00  0.00    -0.303 N
ATOM      3  H1  UNL     1     -20.363  -3.163 -26.673  1.00  0.00     0.186 HD
HETATM    4  N2  UNL     1     -20.747  -1.330 -27.511  1.00  0.00    -0.297 N
ATOM      5  H2  UNL     1     -20.777  -1.564 -28.504  1.00  0.00     0.187 HD
HETATM    6  C4  UNL     1     -20.928  -0.102 -26.994  1.00  0.00     0.098 A
HETATM    7  C9  UNL     1     -20.811  -0.198 -25.603  1.00  0.00     0.020 A
ENDROOT
BRANCH   6   8
HETATM    8  C5  UNL     1     -21.214   1.100 -27.789  1.00  0.00     0.126 C
HETATM    9  S1  UNL     1     -22.684   1.780 -27.860  1.00  0.00    -0.058 SA
BRANCH   8  10
HETATM   10  N3  UNL     1     -20.145   1.687 -28.501  1.00  0.00    -0.375 N
ATOM     11  H3  UNL     1     -19.750   2.555 -28.139  1.00  0.00     0.161 HD
BRANCH  10  12
HETATM   12  C6  UNL     1     -19.577   1.140 -29.705  1.00  0.00     0.074 C
HETATM   13  C7  UNL     1     -18.090   1.280 -29.704  1.00  0.00     0.031 C
HETATM   14  C8  UNL     1     -20.221   1.824 -30.895  1.00  0.00     0.031 C
ENDBRANCH  10  12
ENDBRANCH   8  10
ENDBRANCH   6   8
BRANCH   7  15
HETATM   15  C10 UNL     1     -20.963   0.901 -24.697  1.00  0.00     0.035 C
HETATM   16  C11 UNL     1     -21.945   1.327 -23.960  1.00  0.00     0.009 C
HETATM   17  C12 UNL     1     -21.727   2.578 -23.105  1.00  0.00     0.062 C
HETATM   18 CL1  UNL     1     -23.529   0.618 -23.738  1.00  0.00    -0.089 Cl
ENDBRANCH   7  15
BRANCH   1  19
HETATM   19  C2  UNL     1     -20.317  -2.291 -24.118  1.00  0.00     0.055 C
HETATM   20  C1  UNL     1     -21.577  -2.432 -23.313  1.00  0.00     0.011 C
ENDBRANCH   1  19
TORSDOF 5
ENDMDL