MODEL 5
REMARK VINA RESULT: -8.061271728      1.445      2.686
REMARK  5 active torsions:
REMARK  status: ('A' for Active; 'I' for Inactive)
REMARK    1  A    between atoms: C10_10  and  C11_11
REMARK    2  A    between atoms: C11_11  and  C12_13
REMARK    3  A    between atoms: C12_13  and  C13_14
REMARK    4  A    between atoms: C13_14  and  O1_15
REMARK    5  A    between atoms: N1_17  and  O2_19
ROOT
HETATM    1  C1  UNL     1     -22.217  -2.711 -22.769  1.00  0.00     0.015 C
HETATM    2  C2  UNL     1     -21.733  -1.290 -22.784  1.00  0.00    -0.040 C
HETATM    3  C3  UNL     1     -21.505  -0.860 -21.359  1.00  0.00     0.015 C
HETATM    4  C4  UNL     1     -20.425  -1.129 -23.521  1.00  0.00    -0.005 C
HETATM    5  C5  UNL     1     -20.029   0.334 -23.399  1.00  0.00     0.010 C
HETATM    6  C6  UNL     1     -21.065   1.227 -24.020  1.00  0.00    -0.013 C
HETATM    7  C7  UNL     1     -22.433   1.038 -23.420  1.00  0.00     0.010 C
HETATM    8  C8  UNL     1     -22.754  -0.431 -23.449  1.00  0.00    -0.005 C
HETATM    9  C9  UNL     1     -22.893  -0.822 -24.918  1.00  0.00     0.018 C
HETATM   10  C10 UNL     1     -21.599  -0.546 -25.645  1.00  0.00    -0.008 C
HETATM   11  C14 UNL     1     -21.149   0.875 -25.496  1.00  0.00     0.017 C
HETATM   12  C15 UNL     1     -20.543  -1.439 -24.982  1.00  0.00     0.018 C
ENDROOT
BRANCH  10  13
HETATM   13  C11 UNL     1     -21.718  -0.918 -27.093  1.00  0.00     0.186 C
HETATM   14  F1  UNL     1     -20.522  -1.325 -27.638  1.00  0.00    -0.248 F
BRANCH  13  15
HETATM   15  C12 UNL     1     -22.257   0.183 -27.946  1.00  0.00     0.123 C
BRANCH  15  16
HETATM   16  C13 UNL     1     -21.356   0.411 -29.090  1.00  0.00     0.138 C
HETATM   17  N1  UNL     1     -21.618  -0.076 -30.246  1.00  0.00    -0.251 N
ATOM     18  H1  UNL     1     -20.981   0.096 -31.024  1.00  0.00     0.196 HD
BRANCH  16  19
HETATM   19  O1  UNL     1     -20.211   1.161 -28.923  1.00  0.00    -0.348 OA
ATOM     20  H1  UNL     1     -19.377   0.823 -29.226  1.00  0.00     0.219 HD
ENDBRANCH  16  19
BRANCH  17  21
HETATM   21  O2  UNL     1     -22.752  -0.828 -30.443  1.00  0.00    -0.288 OA
ATOM     22  H2  UNL     1     -23.422  -0.874 -29.771  1.00  0.00     0.244 HD
ENDBRANCH  17  21
ENDBRANCH  15  16
ENDBRANCH  13  15
ENDBRANCH  10  13
TORSDOF 5
ENDMDL