MODEL 4
REMARK VINA RESULT: -7.636221964      2.883      3.795
REMARK  3 active torsions:
REMARK  status: ('A' for Active; 'I' for Inactive)
REMARK    1  A    between atoms: C2_7  and  C3_8
REMARK    2  A    between atoms: C3_8  and  C4_11
REMARK    3  A    between atoms: C4_11  and  N3_13
ROOT
HETATM    1  N3  UNL     1      -3.473 -19.567 -17.573  1.00  0.00    -0.331 N
HETATM    2  C5  UNL     1      -3.654 -20.855 -16.889  1.00  0.00     0.200 C
HETATM    3  S1  UNL     1      -2.569 -20.890 -15.405  1.00  0.00    -0.148 SA
HETATM    4  C6  UNL     1      -3.393 -20.172 -13.962  1.00  0.00     0.093 C
HETATM    5  C7  UNL     1      -2.778 -18.781 -13.739  1.00  0.00     0.084 C
HETATM    6  C8  UNL     1      -1.403 -18.996 -13.166  1.00  0.00     0.193 C
HETATM    7  O1  UNL     1      -0.918 -18.000 -12.346  1.00  0.00    -0.334 OA
HETATM    8  C9  UNL     1      -1.366 -16.773 -11.996  1.00  0.00     0.150 A
HETATM    9  N4  UNL     1      -1.946 -16.431 -10.817  1.00  0.00    -0.346 N
ATOM     10  H4  UNL     1      -2.057 -17.169 -10.122  1.00  0.00     0.167 HD
HETATM   11  C10 UNL     1      -2.379 -15.228 -10.488  1.00  0.00     0.090 A
HETATM   12  C11 UNL     1      -2.260 -14.193 -11.379  1.00  0.00     0.018 A
HETATM   13  C12 UNL     1      -1.685 -14.449 -12.600  1.00  0.00     0.015 A
HETATM   14  C13 UNL     1      -1.241 -15.732 -12.907  1.00  0.00     0.017 A
HETATM   15  C14 UNL     1      -0.626 -15.901 -14.240  1.00  0.00     0.219 C
HETATM   16  O2  UNL     1      -1.668 -15.699 -15.207  1.00  0.00    -0.340 OA
HETATM   17  C15 UNL     1      -2.159 -16.716 -15.999  1.00  0.00     0.105 A
HETATM   18  S2  UNL     1      -2.640 -18.058 -15.331  1.00  0.00    -0.105 SA
HETATM   19  C16 UNL     1      -2.928 -18.352 -17.049  1.00  0.00     0.071 A
HETATM   20  C17 UNL     1      -2.465 -17.130 -17.385  1.00  0.00     0.080 A
ENDROOT
BRANCH   1  21
HETATM   21  C4  UNL     1      -3.894 -19.524 -18.947  1.00  0.00     0.348 C
HETATM   22  F3  UNL     1      -3.818 -20.782 -19.565  1.00  0.00    -0.220 F
BRANCH  21  23
HETATM   23  C3  UNL     1      -5.303 -19.044 -19.150  1.00  0.00     0.311 C
HETATM   24  F1  UNL     1      -5.938 -18.762 -17.969  1.00  0.00    -0.199 F
HETATM   25  F2  UNL     1      -6.072 -20.043 -19.762  1.00  0.00    -0.199 F
BRANCH  23  26
HETATM   26  C2  UNL     1      -5.297 -17.880 -20.097  1.00  0.00     0.170 C
HETATM   27  N2  UNL     1      -4.043 -17.800 -20.774  1.00  0.00    -0.360 N
HETATM   28  C1  UNL     1      -3.889 -16.602 -21.524  1.00  0.00     0.134 C
ATOM     29  H2  UNL     1      -3.331 -18.528 -20.726  1.00  0.00     0.162 HD
HETATM   30  N1  UNL     1      -3.208 -16.368 -22.590  1.00  0.00    -0.380 N
HETATM   31  S3  UNL     1      -4.906 -15.404 -20.619  1.00  0.00    -0.092 SA
ATOM     32  H12 UNL     1      -2.636 -17.042 -23.100  1.00  0.00     0.158 HD
ATOM     33  H11 UNL     1      -3.097 -15.509 -23.128  1.00  0.00     0.158 HD
HETATM   34  C18 UNL     1      -5.533 -16.582 -19.349  1.00  0.00     0.113 C
ENDBRANCH  23  26
ENDBRANCH  21  23
ENDBRANCH   1  21
TORSDOF 3
ENDMDL