MODEL 1
REMARK VINA RESULT: -8.788789460      0.000      0.000
REMARK  4 active torsions:
REMARK  status: ('A' for Active; 'I' for Inactive)
REMARK    1  A    between atoms: C5_8  and  C6_9
REMARK    2  A    between atoms: C10_13  and  N1_14
REMARK    3  A    between atoms: C12_21  and  N4_22
REMARK    4  A    between atoms: N4_22  and  C13_24
ROOT
HETATM    1  N1  UNL     1      -5.590 -17.351 -20.787  1.00  0.00    -0.364 N
ATOM      2  H1  UNL     1      -6.437 -17.509 -20.242  1.00  0.00     0.162 HD
HETATM    3  C11 UNL     1      -4.881 -16.402 -20.296  1.00  0.00     0.163 A
HETATM    4  N2  UNL     1      -3.721 -15.853 -20.655  1.00  0.00    -0.278 N
ATOM      5  H2  UNL     1      -3.226 -16.197 -21.478  1.00  0.00     0.189 HD
HETATM    6  N3  UNL     1      -3.229 -14.895 -19.968  1.00  0.00    -0.277 N
ATOM      7  H3  UNL     1      -2.341 -14.471 -20.239  1.00  0.00     0.189 HD
HETATM    8  C12 UNL     1      -3.882 -14.455 -18.896  1.00  0.00     0.169 A
HETATM    9  S2  UNL     1      -5.256 -15.456 -18.876  1.00  0.00    -0.015 SA
ENDROOT
BRANCH   1  10
HETATM   10  C10 UNL     1      -5.505 -18.215 -21.861  1.00  0.00     0.092 C
HETATM   11  C6  UNL     1      -6.097 -19.569 -21.398  1.00  0.00     0.041 C
HETATM   12  C7  UNL     1      -6.196 -20.335 -22.675  1.00  0.00     0.011 C
HETATM   13  C8  UNL     1      -6.297 -19.324 -23.790  1.00  0.00     0.003 C
HETATM   14  C9  UNL     1      -6.318 -17.959 -23.085  1.00  0.00     0.026 C
BRANCH  11  15
HETATM   15  C5  UNL     1      -5.246 -20.198 -20.387  1.00  0.00    -0.049 A
HETATM   16  C4  UNL     1      -4.318 -21.145 -20.807  1.00  0.00     0.010 A
HETATM   17  C3  UNL     1      -3.473 -21.795 -19.946  1.00  0.00     0.040 A
HETATM   18  C2  UNL     1      -3.541 -21.499 -18.596  1.00  0.00     0.111 A
HETATM   19  O1  UNL     1      -2.825 -21.993 -17.538  1.00  0.00    -0.256 OA
HETATM   20  C19 UNL     1      -4.455 -20.559 -18.143  1.00  0.00     0.112 A
HETATM   21  C1  UNL     1      -3.079 -21.159 -16.425  1.00  0.00     0.498 C
HETATM   22  F1  UNL     1      -2.015 -20.290 -16.320  1.00  0.00    -0.147 F
HETATM   23  F2  UNL     1      -3.216 -21.951 -15.303  1.00  0.00    -0.147 F
HETATM   24  O3  UNL     1      -4.266 -20.501 -16.771  1.00  0.00    -0.256 OA
HETATM   25  C18 UNL     1      -5.286 -19.930 -19.049  1.00  0.00     0.047 A
ENDBRANCH  11  15
ENDBRANCH   1  10
BRANCH   8  26
HETATM   26  N4  UNL     1      -3.530 -13.484 -18.072  1.00  0.00    -0.301 N
ATOM     27  H4  UNL     1      -3.034 -12.666 -18.427  1.00  0.00     0.171 HD
BRANCH  26  28
HETATM   28  C13 UNL     1      -3.843 -13.585 -16.693  1.00  0.00     0.222 C
HETATM   29  N5  UNL     1      -3.122 -14.392 -15.987  1.00  0.00    -0.342 N
HETATM   30  C14 UNL     1      -3.360 -14.560 -14.588  1.00  0.00     0.154 C
ATOM     31  H5  UNL     1      -2.371 -14.917 -16.435  1.00  0.00     0.164 HD
HETATM   32  S1  UNL     1      -3.117 -13.088 -13.563  1.00  0.00    -0.143 SA
HETATM   33  C16 UNL     1      -4.834 -14.491 -14.255  1.00  0.00     0.052 C
HETATM   34  C15 UNL     1      -4.417 -14.148 -12.819  1.00  0.00     0.085 C
HETATM   35  C17 UNL     1      -5.479 -13.272 -14.871  1.00  0.00     0.187 C
HETATM   36  O2  UNL     1      -4.847 -12.888 -16.074  1.00  0.00    -0.322 OA
ENDBRANCH  26  28
ENDBRANCH   8  26
TORSDOF 4
ENDMDL