MODEL 5
REMARK VINA RESULT: -7.103616680      3.614      8.791
REMARK  7 active torsions:
REMARK  status: ('A' for Active; 'I' for Inactive)
REMARK    1  A    between atoms: C2_2  and  O2_4
REMARK    2  A    between atoms: O2_4  and  C3_5
REMARK    3  A    between atoms: C10_12  and  O3_13
REMARK    4  A    between atoms: O3_13  and  C11_14
REMARK       I    between atoms: C11_14  and  N1_16
REMARK       I    between atoms: N1_16  and  C12_18
REMARK    5  A    between atoms: C12_18  and  O6_20
REMARK    6  A    between atoms: O6_20  and  C13_21
REMARK    7  A    between atoms: C17_25  and  O7_26
ROOT
HETATM    1  C3  UNL     1      -8.583 -13.139 -25.631  1.00  0.00     0.192 C
HETATM    2  C4  UNL     1      -9.999 -13.418 -25.567  1.00  0.00    -0.055 C
HETATM    3  C5  UNL     1     -10.694 -12.597 -26.600  1.00  0.00     0.046 C
HETATM    4  C6  UNL     1     -10.794 -14.192 -24.837  1.00  0.00    -0.010 C
HETATM    5  C7  UNL     1     -10.853 -15.156 -23.765  1.00  0.00     0.073 C
HETATM    6  C8  UNL     1      -9.756 -15.421 -22.864  1.00  0.00    -0.059 C
HETATM    7  C9  UNL     1      -8.363 -15.509 -23.248  1.00  0.00     0.012 C
HETATM    8  C10 UNL     1      -7.581 -14.328 -23.649  1.00  0.00     0.188 C
HETATM    9  C17 UNL     1      -7.630 -14.150 -25.139  1.00  0.00     0.185 C
HETATM   10  C18 UNL     1     -10.061 -14.660 -21.564  1.00  0.00     0.114 C
HETATM   11  C19 UNL     1     -10.432 -13.232 -21.755  1.00  0.00     0.183 C
HETATM   12  O8  UNL     1     -11.508 -13.254 -22.622  1.00  0.00    -0.378 OA
HETATM   13  C20 UNL     1     -11.910 -14.580 -22.789  1.00  0.00     0.206 C
HETATM   14  C21 UNL     1     -11.523 -15.173 -21.447  1.00  0.00     0.279 C
HETATM   15  F1  UNL     1     -12.134 -14.491 -20.416  1.00  0.00    -0.203 F
HETATM   16  F2  UNL     1     -11.618 -16.511 -21.357  1.00  0.00    -0.203 F
ENDROOT
BRANCH   8  17
HETATM   17  O3  UNL     1      -6.187 -14.587 -23.361  1.00  0.00    -0.292 OA
BRANCH  17  18
HETATM   18  C11 UNL     1      -5.735 -15.725 -22.762  1.00  0.00     0.369 C
HETATM   19  O4  UNL     1      -5.846 -15.875 -21.538  1.00  0.00    -0.238 OA
HETATM   20  N1  UNL     1      -5.135 -16.747 -23.546  1.00  0.00    -0.248 N
HETATM   21  C12 UNL     1      -4.656 -17.946 -22.965  1.00  0.00     0.369 C
ATOM     22  H1  UNL     1      -5.048 -16.615 -24.554  1.00  0.00     0.176 HD
HETATM   23  O5  UNL     1      -4.121 -18.861 -23.625  1.00  0.00    -0.238 OA
BRANCH  21  24
HETATM   24  O6  UNL     1      -4.785 -18.113 -21.597  1.00  0.00    -0.294 OA
BRANCH  24  25
HETATM   25  C13 UNL     1      -5.519 -19.159 -21.043  1.00  0.00     0.061 C
HETATM   26  C14 UNL     1      -4.712 -20.428 -20.849  1.00  0.00     0.046 C
HETATM   27  C15 UNL     1      -6.771 -19.464 -21.818  1.00  0.00     0.046 C
HETATM   28  C16 UNL     1      -5.972 -18.727 -19.646  1.00  0.00     0.046 C
ENDBRANCH  24  25
ENDBRANCH  21  24
ENDBRANCH  17  18
ENDBRANCH   8  17
BRANCH   9  29
HETATM   29  O7  UNL     1      -6.363 -13.791 -25.649  1.00  0.00    -0.390 OA
ATOM     30  H7  UNL     1      -6.284 -12.850 -25.541  1.00  0.00     0.210 HD
ENDBRANCH   9  29
BRANCH   1  31
HETATM   31  O2  UNL     1      -8.367 -11.892 -24.961  1.00  0.00    -0.309 OA
BRANCH  31  32
HETATM   32  C2  UNL     1      -7.802 -10.800 -25.538  1.00  0.00     0.255 C
HETATM   33  C1  UNL     1      -8.612  -9.592 -25.821  1.00  0.00     0.126 C
HETATM   34  O1  UNL     1      -6.606 -10.784 -25.840  1.00  0.00    -0.266 OA
ENDBRANCH  31  32
ENDBRANCH   1  31
TORSDOF 7
ENDMDL