MODEL 3
REMARK VINA RESULT: -7.895156763      1.387      1.574
REMARK  4 active torsions:
REMARK  status: ('A' for Active; 'I' for Inactive)
REMARK    1  A    between atoms: N1_1  and  C1_5
REMARK    2  A    between atoms: C4_8  and  N2_9
REMARK    3  A    between atoms: N3_13  and  C5_14
REMARK    4  A    between atoms: C16_32  and  N6_33
ROOT
HETATM    1  C5  UNL     1      -3.944 -19.601 -19.908  1.00  0.00     0.149 C
HETATM    2  C6  UNL     1      -4.707 -20.756 -19.278  1.00  0.00     0.033 C
HETATM    3  C7  UNL     1      -3.897 -22.018 -19.156  1.00  0.00     0.002 C
HETATM    4  C8  UNL     1      -2.687 -21.940 -18.296  1.00  0.00     0.000 C
HETATM    5  C9  UNL     1      -2.808 -22.491 -16.922  1.00  0.00     0.006 C
HETATM    6  C10 UNL     1      -3.531 -21.691 -15.908  1.00  0.00     0.080 C
HETATM    7  C11 UNL     1      -2.718 -20.653 -15.179  1.00  0.00     0.252 C
HETATM    8  F1  UNL     1      -1.936 -19.858 -15.933  1.00  0.00    -0.206 F
HETATM    9  F2  UNL     1      -1.844 -21.372 -14.346  1.00  0.00    -0.206 F
HETATM   10  C12 UNL     1      -3.596 -19.845 -14.294  1.00  0.00     0.159 C
HETATM   11  S1  UNL     1      -4.382 -18.413 -14.958  1.00  0.00    -0.104 SA
HETATM   12  C13 UNL     1      -3.967 -17.930 -16.595  1.00  0.00     0.099 A
HETATM   13  N4  UNL     1      -4.075 -18.769 -17.625  1.00  0.00    -0.337 N
ATOM     14  H4  UNL     1      -4.418 -19.707 -17.415  1.00  0.00     0.168 HD
HETATM   15  C14 UNL     1      -3.784 -18.513 -18.899  1.00  0.00     0.105 A
HETATM   16  N5  UNL     1      -3.337 -17.282 -19.174  1.00  0.00    -0.352 N
ATOM     17  H5  UNL     1      -3.100 -17.033 -20.134  1.00  0.00     0.166 HD
HETATM   18  C15 UNL     1      -3.196 -16.360 -18.185  1.00  0.00     0.121 A
HETATM   19  C16 UNL     1      -3.505 -16.647 -16.862  1.00  0.00     0.080 A
ENDROOT
BRANCH   1  20
HETATM   20  N3  UNL     1      -4.465 -19.188 -21.158  1.00  0.00    -0.373 N
HETATM   21  C4  UNL     1      -3.872 -19.691 -22.340  1.00  0.00     0.280 C
HETATM   22  C3  UNL     1      -4.984 -20.026 -23.323  1.00  0.00     0.056 C
HETATM   23  C2  UNL     1      -5.853 -18.804 -23.586  1.00  0.00     0.038 C
HETATM   24  C1  UNL     1      -6.263 -18.126 -22.313  1.00  0.00     0.201 C
HETATM   25  C21 UNL     1      -5.896 -19.072 -21.166  1.00  0.00     0.152 C
BRANCH  21  26
HETATM   26  N2  UNL     1      -3.065 -18.659 -22.962  1.00  0.00    -0.059 N
ATOM     27  H23 UNL     1      -2.390 -19.024 -23.633  1.00  0.00     0.276 HD
ATOM     28  H22 UNL     1      -3.590 -18.075 -23.613  1.00  0.00     0.276 HD
ATOM     29  H21 UNL     1      -2.635 -18.130 -22.204  1.00  0.00     0.276 HD
ENDBRANCH  21  26
BRANCH  24  30
HETATM   30  N1  UNL     1      -7.683 -17.818 -22.253  1.00  0.00    -0.073 N
ATOM     31  H13 UNL     1      -7.859 -17.047 -21.608  1.00  0.00     0.274 HD
ATOM     32  H12 UNL     1      -7.997 -17.386 -23.123  1.00  0.00     0.274 HD
ATOM     33  H11 UNL     1      -8.264 -18.623 -22.020  1.00  0.00     0.274 HD
ENDBRANCH  24  30
ENDBRANCH   1  20
BRANCH  19  34
HETATM   34  N6  UNL     1      -3.344 -15.655 -15.844  1.00  0.00    -0.373 N
HETATM   35  C17 UNL     1      -2.201 -15.582 -14.973  1.00  0.00     0.149 C
HETATM   36  C18 UNL     1      -2.276 -14.206 -14.283  1.00  0.00     0.187 C
HETATM   37  O1  UNL     1      -3.410 -14.235 -13.486  1.00  0.00    -0.388 OA
HETATM   38  C19 UNL     1      -4.537 -14.210 -14.261  1.00  0.00     0.187 C
HETATM   39  C20 UNL     1      -4.379 -14.657 -15.672  1.00  0.00     0.149 C
ENDBRANCH  19  34
TORSDOF 4
ENDMDL