MODEL 5
REMARK VINA RESULT: -7.914192647      4.443      6.709
REMARK  3 active torsions:
REMARK  status: ('A' for Active; 'I' for Inactive)
REMARK    1  A    between atoms: N2_5  and  C4_6
REMARK    2  A    between atoms: C7_11  and  N4_12
REMARK    3  A    between atoms: C15_22  and  N5_23
ROOT
HETATM    1  C4  UNL     1      -3.695 -18.605 -16.995  1.00  0.00     0.683 A
HETATM    2  N3  UNL     1      -3.563 -19.764 -17.642  1.00  0.00    -0.174 N
ATOM      3  H3  UNL     1      -2.876 -20.437 -17.302  1.00  0.00     0.186 HD
HETATM    4  C5  UNL     1      -4.296 -20.081 -18.723  1.00  0.00     0.154 A
HETATM    5  C6  UNL     1      -5.224 -19.129 -19.155  1.00  0.00     0.159 A
HETATM    6  C7  UNL     1      -5.377 -17.927 -18.503  1.00  0.00     0.158 A
HETATM    7  N6  UNL     1      -4.591 -17.713 -17.431  1.00  0.00    -0.174 N
ATOM      8  H6  UNL     1      -4.682 -16.831 -16.928  1.00  0.00     0.186 HD
HETATM    9  O1  UNL     1      -5.964 -19.482 -20.270  1.00  0.00    -0.332 OA
HETATM   10  C16 UNL     1      -5.731 -20.580 -21.097  1.00  0.00     0.076 C
HETATM   11  C17 UNL     1      -6.871 -21.603 -21.008  1.00  0.00     0.048 C
HETATM   12  C18 UNL     1      -5.689 -20.156 -22.571  1.00  0.00     0.048 C
HETATM   13  C19 UNL     1      -4.457 -21.318 -20.826  1.00  0.00     0.159 C
HETATM   14  N7  UNL     1      -4.159 -21.299 -19.406  1.00  0.00    -0.371 N
ATOM     15  H7  UNL     1      -3.859 -22.144 -18.920  1.00  0.00     0.161 HD
ENDROOT
BRANCH   6  16
HETATM   16  N4  UNL     1      -6.337 -17.011 -18.998  1.00  0.00    -0.336 N
HETATM   17  C8  UNL     1      -7.657 -16.697 -18.496  1.00  0.00     0.136 C
HETATM   18  C9  UNL     1      -8.071 -15.444 -19.195  1.00  0.00    -0.015 C
HETATM   19  C10 UNL     1      -8.589 -14.384 -18.250  1.00  0.00     0.017 C
HETATM   20  C13 UNL     1      -9.117 -15.657 -20.244  1.00  0.00     0.090 C
HETATM   21  C14 UNL     1      -6.816 -14.932 -19.879  1.00  0.00     0.065 C
HETATM   22  C11 UNL     1      -9.809 -13.788 -18.877  1.00  0.00     0.080 C
HETATM   23  C12 UNL     1     -10.274 -14.755 -19.942  1.00  0.00     0.244 C
HETATM   24  F1  UNL     1     -11.371 -15.471 -19.508  1.00  0.00    -0.206 F
HETATM   25  F2  UNL     1     -10.678 -14.035 -21.053  1.00  0.00    -0.206 F
HETATM   26  C15 UNL     1      -6.080 -16.197 -20.194  1.00  0.00     0.286 C
BRANCH  26  27
HETATM   27  N5  UNL     1      -6.643 -16.904 -21.310  1.00  0.00    -0.058 N
ATOM     28  H53 UNL     1      -6.368 -16.515 -22.211  1.00  0.00     0.276 HD
ATOM     29  H52 UNL     1      -6.239 -17.832 -21.440  1.00  0.00     0.276 HD
ATOM     30  H51 UNL     1      -7.653 -16.922 -21.171  1.00  0.00     0.276 HD
ENDBRANCH  26  27
ENDBRANCH   6  16
BRANCH   1  31
HETATM   31  N2  UNL     1      -2.904 -18.330 -15.876  1.00  0.00    -0.210 N
HETATM   32  C3  UNL     1      -2.310 -17.029 -15.706  1.00  0.00     0.185 C
HETATM   33  C2  UNL     1      -1.604 -16.793 -14.441  1.00  0.00     0.079 C
HETATM   34  N1  UNL     1      -1.818 -17.680 -13.375  1.00  0.00    -0.386 N
HETATM   35  C1  UNL     1      -0.644 -18.098 -12.669  1.00  0.00     0.149 C
HETATM   36  C21 UNL     1      -2.821 -18.669 -13.530  1.00  0.00     0.040 C
HETATM   37  C20 UNL     1      -2.670 -19.347 -14.870  1.00  0.00     0.172 C
HETATM   38  C22 UNL     1      -2.628 -19.724 -12.460  1.00  0.00     0.040 C
HETATM   39  C23 UNL     1      -4.229 -18.137 -13.407  1.00  0.00     0.040 C
ENDBRANCH   1  31
TORSDOF 3
ENDMDL