MODEL 5
REMARK VINA RESULT: -7.093962785      2.597      4.134
REMARK  4 active torsions:
REMARK  status: ('A' for Active; 'I' for Inactive)
REMARK    1  A    between atoms: C8_10  and  O3_11
REMARK    2  A    between atoms: C12_18  and  C13_19
REMARK    3  A    between atoms: C15_23  and  C16_24
REMARK    4  A    between atoms: C17_27  and  O6_28
ROOT
HETATM    1  C1  UNL     1      -7.849 -14.140 -20.816  1.00  0.00     0.016 C
HETATM    2  C2  UNL     1      -6.543 -14.776 -21.110  1.00  0.00     0.054 C
HETATM    3  C3  UNL     1      -6.134 -15.805 -20.037  1.00  0.00     0.072 C
HETATM    4  C4  UNL     1      -6.364 -15.148 -18.712  1.00  0.00     0.028 C
HETATM    5  C5  UNL     1      -5.719 -13.796 -18.589  1.00  0.00     0.177 C
HETATM    6  O1  UNL     1      -5.742 -13.070 -19.768  1.00  0.00    -0.354 OA
HETATM    7  C6  UNL     1      -5.355 -13.828 -20.868  1.00  0.00     0.168 C
HETATM    8  C7  UNL     1      -5.093 -12.968 -22.055  1.00  0.00     0.079 C
HETATM    9  O2  UNL     1      -4.267 -14.628 -20.603  1.00  0.00    -0.311 OA
HETATM   10  C8  UNL     1      -4.699 -15.938 -20.425  1.00  0.00     0.233 C
HETATM   11  C9  UNL     1      -3.861 -16.698 -19.495  1.00  0.00     0.200 C
HETATM   12  O4  UNL     1      -2.771 -16.912 -19.999  1.00  0.00    -0.291 OA
HETATM   13  C10 UNL     1      -3.985 -17.250 -18.158  1.00  0.00     0.059 C
HETATM   14  C11 UNL     1      -2.555 -17.194 -17.556  1.00  0.00     0.186 C
HETATM   15  O5  UNL     1      -2.745 -17.515 -16.206  1.00  0.00    -0.379 OA
HETATM   16  C12 UNL     1      -2.724 -18.908 -16.155  1.00  0.00     0.187 C
HETATM   17  C14 UNL     1      -3.243 -19.543 -17.396  1.00  0.00     0.051 C
HETATM   18  C15 UNL     1      -4.301 -18.730 -18.120  1.00  0.00     0.082 C
HETATM   19  C19 UNL     1      -4.823 -16.488 -17.193  1.00  0.00     0.029 C
HETATM   20  C20 UNL     1      -6.158 -16.028 -17.539  1.00  0.00    -0.040 C
HETATM   21  C21 UNL     1      -6.589 -15.139 -16.337  1.00  0.00     0.015 C
HETATM   22  C22 UNL     1      -7.248 -17.090 -17.556  1.00  0.00     0.015 C
ENDROOT
BRANCH  18  23
HETATM   23  C16 UNL     1      -4.620 -19.363 -19.388  1.00  0.00     0.130 A
HETATM   24  N1  UNL     1      -3.763 -19.980 -20.237  1.00  0.00    -0.319 N
HETATM   25  C17 UNL     1      -4.399 -20.450 -21.311  1.00  0.00     0.164 A
ATOM     26  H1  UNL     1      -2.760 -20.072 -20.077  1.00  0.00     0.169 HD
HETATM   27  C18 UNL     1      -5.729 -20.102 -21.109  1.00  0.00     0.199 A
HETATM   28  O7  UNL     1      -5.783 -19.479 -19.984  1.00  0.00    -0.305 OA
BRANCH  25  29
HETATM   29  O6  UNL     1      -3.883 -21.140 -22.407  1.00  0.00    -0.345 OA
ATOM     30  H6  UNL     1      -4.338 -21.487 -23.166  1.00  0.00     0.219 HD
ENDBRANCH  25  29
ENDBRANCH  18  23
BRANCH  10  31
HETATM   31  O3  UNL     1      -4.699 -16.546 -21.705  1.00  0.00    -0.359 OA
ATOM     32  H3  UNL     1      -4.131 -16.011 -22.247  1.00  0.00     0.213 HD
ENDBRANCH  10  31
BRANCH  16  33
HETATM   33  C13 UNL     1      -3.339 -19.473 -14.903  1.00  0.00     0.381 C
HETATM   34  F1  UNL     1      -3.522 -20.816 -15.081  1.00  0.00    -0.212 F
HETATM   35  F2  UNL     1      -4.557 -18.876 -14.726  1.00  0.00    -0.212 F
ENDBRANCH  16  33
TORSDOF 4
ENDMDL