MODEL 5
REMARK VINA RESULT: -7.407727289      3.307      5.515
REMARK  4 active torsions:
REMARK  status: ('A' for Active; 'I' for Inactive)
REMARK    1  A    between atoms: C2_2  and  C4_5
REMARK    2  A    between atoms: C9_14  and  O3_15
REMARK    3  A    between atoms: C10_17  and  C11_18
REMARK    4  A    between atoms: C11_18  and  C12_19
ROOT
HETATM    1  C4  UNL     1      -9.828 -14.339 -19.003  1.00  0.00     0.107 C
HETATM    2  N1  UNL     1      -9.826 -12.949 -19.432  1.00  0.00    -0.414 N
ATOM      3  H1  UNL     1     -10.668 -12.373 -19.400  1.00  0.00     0.153 HD
HETATM    4  C5  UNL     1      -8.582 -12.439 -19.899  1.00  0.00     0.122 C
HETATM    5  C6  UNL     1      -7.661 -12.328 -18.730  1.00  0.00     0.046 C
HETATM    6  C7  UNL     1      -6.204 -12.729 -18.935  1.00  0.00     0.153 C
HETATM    7  O1  UNL     1      -5.981 -13.347 -20.107  1.00  0.00    -0.309 OA
HETATM    8  C8  UNL     1      -5.077 -14.144 -20.691  1.00  0.00     0.313 C
HETATM    9  O2  UNL     1      -4.579 -13.760 -21.779  1.00  0.00    -0.257 OA
HETATM   10  C9  UNL     1      -4.599 -15.457 -20.167  1.00  0.00     0.123 C
HETATM   11  C10 UNL     1      -5.598 -16.551 -20.160  1.00  0.00     0.054 C
HETATM   12  C15 UNL     1      -5.916 -17.036 -18.768  1.00  0.00     0.038 C
HETATM   13  C16 UNL     1      -7.227 -16.895 -18.201  1.00  0.00    -0.029 C
HETATM   14  C17 UNL     1      -8.180 -16.035 -18.170  1.00  0.00    -0.023 C
HETATM   15  C18 UNL     1      -8.337 -14.687 -18.776  1.00  0.00     0.044 C
HETATM   16  C19 UNL     1      -7.822 -13.592 -17.930  1.00  0.00     0.013 C
HETATM   17  C20 UNL     1      -8.463 -13.489 -16.604  1.00  0.00     0.190 C
HETATM   18  O4  UNL     1      -7.486 -12.858 -15.761  1.00  0.00    -0.320 OA
HETATM   19  C21 UNL     1      -6.399 -12.477 -16.527  1.00  0.00     0.266 C
HETATM   20  O5  UNL     1      -5.594 -11.540 -16.363  1.00  0.00    -0.265 OA
HETATM   21  C22 UNL     1      -6.373 -13.473 -17.674  1.00  0.00     0.127 C
ENDROOT
BRANCH  11  22
HETATM   22  C11 UNL     1      -5.278 -17.758 -20.972  1.00  0.00     0.038 C
BRANCH  22  23
HETATM   23  C12 UNL     1      -5.269 -17.681 -22.454  1.00  0.00     0.101 C
HETATM   24  C13 UNL     1      -4.533 -18.944 -22.993  1.00  0.00     0.048 C
HETATM   25  C14 UNL     1      -3.160 -18.389 -23.247  1.00  0.00     0.141 C
HETATM   26  N2  UNL     1      -3.432 -17.036 -23.544  1.00  0.00    -0.340 N
HETATM   27  N3  UNL     1      -4.546 -16.693 -23.113  1.00  0.00    -0.336 N
ATOM     28  H2  UNL     1      -2.796 -16.419 -24.047  1.00  0.00     0.179 HD
ATOM     29  H3  UNL     1      -4.907 -15.747 -23.235  1.00  0.00     0.180 HD
ENDBRANCH  22  23
ENDBRANCH  11  22
BRANCH  10  30
HETATM   30  O3  UNL     1      -3.321 -15.721 -20.595  1.00  0.00    -0.359 OA
ATOM     31  H3  UNL     1      -2.997 -16.529 -20.217  1.00  0.00     0.217 HD
ENDBRANCH  10  30
BRANCH   1  32
HETATM   32  C2  UNL     1     -10.411 -15.091 -20.182  1.00  0.00     0.050 C
HETATM   33  C1  UNL     1     -11.466 -14.192 -20.873  1.00  0.00     0.034 C
HETATM   34  C3  UNL     1     -11.249 -16.253 -19.661  1.00  0.00     0.034 C
HETATM   35 CL1  UNL     1      -9.245 -15.629 -21.360  1.00  0.00    -0.118 Cl
ENDBRANCH   1  32
TORSDOF 4
ENDMDL