MODEL 1
REMARK VINA RESULT: -6.781733489      0.000      0.000
REMARK  5 active torsions:
REMARK  status: ('A' for Active; 'I' for Inactive)
REMARK    1  A    between atoms: O1_2  and  C2_3
REMARK    2  A    between atoms: C3_4  and  O2_5
REMARK    3  A    between atoms: C4_7  and  O3_8
REMARK    4  A    between atoms: C8_16  and  S1_17
REMARK    5  A    between atoms: S1_17  and  O6_20
ROOT
HETATM    1  C2  UNL     1      -3.612 -20.933 -16.796  1.00  0.00     0.124 A
HETATM    2  C3  UNL     1      -3.221 -21.891 -17.716  1.00  0.00     0.136 A
HETATM    3  C4  UNL     1      -3.288 -21.676 -19.089  1.00  0.00     0.131 A
HETATM    4  C5  UNL     1      -3.762 -20.461 -19.521  1.00  0.00     0.096 A
HETATM    5  C6  UNL     1      -4.159 -19.494 -18.605  1.00  0.00     0.083 A
HETATM    6  C7  UNL     1      -4.085 -19.726 -17.248  1.00  0.00     0.076 A
HETATM    7 BR1  UNL     1      -4.648 -18.342 -16.060  1.00  0.00    -0.045 Br
HETATM    8  N1  UNL     1      -4.703 -18.268 -19.118  1.00  0.00    -0.344 N
ATOM      9  H1  UNL     1      -4.991 -17.539 -18.465  1.00  0.00     0.166 HD
HETATM   10  C8  UNL     1      -4.839 -18.063 -20.408  1.00  0.00     0.158 C
HETATM   11  C10 UNL     1      -4.519 -19.023 -21.422  1.00  0.00     0.167 C
HETATM   12  C11 UNL     1      -5.674 -19.688 -22.148  1.00  0.00     0.112 C
HETATM   13 CL1  UNL     1      -7.267 -19.157 -21.703  1.00  0.00    -0.122 Cl
HETATM   14  C12 UNL     1      -5.337 -19.602 -23.623  1.00  0.00     0.022 C
HETATM   15  C13 UNL     1      -4.311 -20.673 -23.901  1.00  0.00     0.003 C
HETATM   16  C14 UNL     1      -3.019 -20.540 -23.171  1.00  0.00     0.020 C
HETATM   17  C15 UNL     1      -3.082 -21.151 -21.737  1.00  0.00     0.124 C
HETATM   18  N2  UNL     1      -3.774 -20.216 -20.921  1.00  0.00    -0.364 N
ENDROOT
BRANCH  10  19
HETATM   19  S1  UNL     1      -5.500 -16.491 -20.779  1.00  0.00     0.311 S
HETATM   20  O4  UNL     1      -5.663 -16.221 -22.223  1.00  0.00    -0.192 OA
HETATM   21  O5  UNL     1      -4.602 -15.451 -20.121  1.00  0.00    -0.192 OA
BRANCH  19  22
HETATM   22  O6  UNL     1      -7.013 -16.282 -20.045  1.00  0.00    -0.276 OA
HETATM   23  C9  UNL     1      -7.790 -15.597 -20.980  1.00  0.00     0.226 C
ENDBRANCH  19  22
ENDBRANCH  10  19
BRANCH   3  24
HETATM   24  O3  UNL     1      -2.882 -22.672 -19.940  1.00  0.00    -0.356 OA
ATOM     25  H3  UNL     1      -3.467 -22.951 -20.635  1.00  0.00     0.218 HD
ENDBRANCH   3  24
BRANCH   1  26
HETATM   26  O1  UNL     1      -3.535 -21.175 -15.416  1.00  0.00    -0.352 OA
HETATM   27  C1  UNL     1      -2.384 -20.765 -14.666  1.00  0.00     0.210 C
ENDBRANCH   1  26
BRANCH   2  28
HETATM   28  O2  UNL     1      -2.759 -23.079 -17.190  1.00  0.00    -0.356 OA
ATOM     29  H2  UNL     1      -1.828 -23.114 -17.001  1.00  0.00     0.218 HD
ENDBRANCH   2  28
TORSDOF 5
ENDMDL