MODEL 2
REMARK VINA RESULT: -8.616111788      3.603      6.910
REMARK  3 active torsions:
REMARK  status: ('A' for Active; 'I' for Inactive)
REMARK    1  A    between atoms: C2_2  and  C5_5
REMARK    2  A    between atoms: C9_13  and  C10_14
REMARK    3  A    between atoms: C9_13  and  N6_31
ROOT
HETATM    1  C5  UNL     1      -5.212 -16.953 -18.583  1.00  0.00     0.081 C
HETATM    2  C6  UNL     1      -3.924 -16.916 -18.817  1.00  0.00     0.102 C
HETATM    3  C7  UNL     1      -2.800 -17.166 -17.900  1.00  0.00     0.104 C
HETATM    4  N1  UNL     1      -1.895 -17.353 -17.204  1.00  0.00    -0.191 NA
HETATM    5  C8  UNL     1      -3.757 -16.554 -20.217  1.00  0.00     0.090 C
HETATM    6  N2  UNL     1      -2.632 -16.267 -20.752  1.00  0.00    -0.397 N
ATOM      7  H21 UNL     1      -2.515 -16.014 -21.734  1.00  0.00     0.156 HD
ATOM      8  H22 UNL     1      -1.720 -16.251 -20.296  1.00  0.00     0.156 HD
HETATM    9  C9  UNL     1      -5.100 -16.579 -20.889  1.00  0.00     0.244 C
HETATM   10  O1  UNL     1      -5.916 -16.645 -19.752  1.00  0.00    -0.309 OA
ENDROOT
BRANCH   1  11
HETATM   11  C2  UNL     1      -5.889 -17.266 -17.298  1.00  0.00    -0.001 C
HETATM   12  C1  UNL     1      -5.586 -18.569 -16.676  1.00  0.00     0.021 C
HETATM   13  C3  UNL     1      -7.396 -17.240 -17.551  1.00  0.00     0.021 C
HETATM   14  C4  UNL     1      -5.585 -16.188 -16.258  1.00  0.00     0.021 C
ENDBRANCH   1  11
BRANCH   9  15
HETATM   15  C10 UNL     1      -5.207 -15.268 -21.587  1.00  0.00     0.164 A
HETATM   16  N3  UNL     1      -4.198 -14.398 -21.750  1.00  0.00    -0.283 N
HETATM   17  N4  UNL     1      -4.596 -13.333 -22.407  1.00  0.00    -0.287 N
ATOM     18  H3  UNL     1      -3.248 -14.546 -21.410  1.00  0.00     0.188 HD
HETATM   19  C11 UNL     1      -5.899 -13.504 -22.684  1.00  0.00     0.100 A
ATOM     20  H4  UNL     1      -4.023 -12.528 -22.658  1.00  0.00     0.188 HD
HETATM   21  N5  UNL     1      -6.293 -14.688 -22.189  1.00  0.00    -0.309 N
HETATM   22  C14 UNL     1      -7.048 -12.793 -23.360  1.00  0.00     0.080 C
HETATM   23  C12 UNL     1      -7.666 -14.865 -22.498  1.00  0.00     0.041 C
HETATM   24  C13 UNL     1      -7.871 -14.000 -23.729  1.00  0.00     0.039 C
HETATM   25  C15 UNL     1      -8.178 -16.242 -22.710  1.00  0.00     0.037 C
HETATM   26  C19 UNL     1      -8.491 -14.242 -21.365  1.00  0.00     0.037 C
HETATM   27  C16 UNL     1      -9.398 -16.597 -21.884  1.00  0.00     0.081 C
HETATM   28  C17 UNL     1     -10.469 -15.544 -21.958  1.00  0.00     0.243 C
HETATM   29  F1  UNL     1     -11.419 -15.859 -21.005  1.00  0.00    -0.206 F
HETATM   30  F2  UNL     1     -11.105 -15.612 -23.184  1.00  0.00    -0.206 F
HETATM   31  C18 UNL     1      -9.948 -14.166 -21.657  1.00  0.00     0.081 C
ENDBRANCH   9  15
BRANCH   9  32
HETATM   32  N6  UNL     1      -5.151 -17.720 -21.716  1.00  0.00    -0.368 N
HETATM   33  C20 UNL     1      -6.038 -18.764 -21.412  1.00  0.00     0.148 C
HETATM   34  C21 UNL     1      -5.423 -20.088 -21.897  1.00  0.00     0.251 C
HETATM   35  N7  UNL     1      -5.289 -19.938 -23.345  1.00  0.00    -0.072 N
HETATM   36  C22 UNL     1      -4.236 -18.966 -23.563  1.00  0.00     0.251 C
ATOM     37  H72 UNL     1      -5.129 -20.822 -23.829  1.00  0.00     0.277 HD
ATOM     38  H71 UNL     1      -6.164 -19.696 -23.809  1.00  0.00     0.277 HD
HETATM   39  C23 UNL     1      -4.644 -17.622 -23.030  1.00  0.00     0.148 C
ENDBRANCH   9  32
TORSDOF 3
ENDMDL