MODEL 3
REMARK VINA RESULT: -7.566313519      2.342      7.297
REMARK  9 active torsions:
REMARK  status: ('A' for Active; 'I' for Inactive)
REMARK    1  A    between atoms: C3_3  and  N1_4
REMARK    2  A    between atoms: N1_4  and  C5_6
REMARK    3  A    between atoms: C5_6  and  C6_7
REMARK    4  A    between atoms: C6_7  and  N2_8
REMARK       I    between atoms: N2_8  and  C8_10
REMARK    5  A    between atoms: C8_10  and  O2_12
REMARK    6  A    between atoms: O2_12  and  C9_13
REMARK    7  A    between atoms: C26_31  and  O4_32
REMARK    8  A    between atoms: C30_37  and  O5_39
REMARK    9  A    between atoms: C34_43  and  O6_45
ROOT
HETATM    1  C1  UNL     1       9.393  34.152  26.071  1.00  0.00     0.013 C
HETATM    2  C2  UNL     1       9.378  34.006  27.259  1.00  0.00    -0.087 C
HETATM    3  C3  UNL     1       9.378  33.844  28.726  1.00  0.00     0.364 C
ENDROOT
BRANCH   3   4
HETATM    4  N1  UNL     1       9.378  35.208  29.331  1.00  0.00     0.096 N
HETATM    5  C4  UNL     1       9.613  34.902  30.756  1.00  0.00     0.311 C
BRANCH   4   6
HETATM    6  C5  UNL     1       8.051  35.694  29.138  1.00  0.00     0.293 C
BRANCH   6   7
HETATM    7  C6  UNL     1       7.771  37.104  29.513  1.00  0.00     0.157 C
BRANCH   7   8
HETATM    8  N2  UNL     1       6.811  37.798  28.739  1.00  0.00    -0.331 N
HETATM    9  C7  UNL     1       5.852  38.652  29.459  1.00  0.00     0.155 C
HETATM   10  C8  UNL     1       6.709  37.728  27.343  1.00  0.00     0.362 C
HETATM   11  O1  UNL     1       7.503  37.044  26.679  1.00  0.00    -0.238 OA
BRANCH  10  12
HETATM   12  O2  UNL     1       5.739  38.402  26.624  1.00  0.00    -0.298 OA
BRANCH  12  13
HETATM   13  C9  UNL     1       4.965  37.815  25.547  1.00  0.00     0.141 C
HETATM   14  C10 UNL     1       3.884  37.116  26.208  1.00  0.00     0.065 C
HETATM   15  C11 UNL     1       2.718  37.774  26.792  1.00  0.00     0.136 C
HETATM   16  O3  UNL     1       2.169  38.855  26.215  1.00  0.00    -0.366 OA
HETATM   17  C29 UNL     1       1.439  37.004  26.410  1.00  0.00     0.090 C
HETATM   18  C12 UNL     1       1.176  38.185  25.521  1.00  0.00     0.118 C
HETATM   19  C13 UNL     1       1.439  37.918  24.110  1.00  0.00     0.011 C
HETATM   20  C34 UNL     1      -0.243  38.618  25.811  1.00  0.00     0.089 C
HETATM   21  C14 UNL     1       2.744  37.877  23.475  1.00  0.00    -0.018 C
HETATM   22  C15 UNL     1       3.752  38.937  23.561  1.00  0.00    -0.020 C
HETATM   23  C16 UNL     1       3.002  40.271  23.604  1.00  0.00     0.020 C
HETATM   24  C17 UNL     1       4.407  39.027  22.152  1.00  0.00     0.019 C
HETATM   25  C28 UNL     1       4.884  38.835  24.501  1.00  0.00     0.035 C
HETATM   26  C18 UNL     1       5.291  40.242  22.188  1.00  0.00    -0.002 C
HETATM   27  C19 UNL     1       5.490  40.873  20.828  1.00  0.00     0.006 C
HETATM   28  C25 UNL     1       6.567  39.651  22.736  1.00  0.00    -0.003 A
HETATM   29  C20 UNL     1       6.899  41.429  20.816  1.00  0.00     0.009 C
HETATM   30  C21 UNL     1       7.809  40.232  20.641  1.00  0.00    -0.047 C
HETATM   31  C22 UNL     1       7.626  39.739  19.220  1.00  0.00     0.015 C
HETATM   32  C23 UNL     1       9.263  40.608  20.801  1.00  0.00     0.015 C
HETATM   33  C24 UNL     1       7.396  39.124  21.568  1.00  0.00     0.021 C
HETATM   34  C26 UNL     1       7.180  39.988  24.006  1.00  0.00     0.133 A
HETATM   35  C27 UNL     1       6.277  38.789  23.832  1.00  0.00     0.034 A
HETATM   36  C33 UNL     1      -1.092  37.341  25.948  1.00  0.00     0.044 C
HETATM   37  C35 UNL     1      -0.924  39.419  24.765  1.00  0.00     0.049 C
HETATM   38  C32 UNL     1      -0.889  36.918  27.387  1.00  0.00     0.041 C
HETATM   39  C30 UNL     1       0.593  36.752  27.566  1.00  0.00     0.063 C
HETATM   40  C31 UNL     1       0.786  35.277  27.975  1.00  0.00     0.046 C
BRANCH  34  41
HETATM   41  O4  UNL     1       6.753  41.050  24.791  1.00  0.00    -0.394 OA
ATOM     42  H4  UNL     1       5.958  41.021  25.310  1.00  0.00     0.210 HD
ENDBRANCH  34  41
BRANCH  20  43
HETATM   43  O6  UNL     1      -0.317  39.362  26.997  1.00  0.00    -0.387 OA
ATOM     44  H6  UNL     1      -1.188  39.326  27.374  1.00  0.00     0.210 HD
ENDBRANCH  20  43
BRANCH  39  45
HETATM   45  O5  UNL     1       0.971  37.461  28.733  1.00  0.00    -0.390 OA
ATOM     46  H5  UNL     1       0.772  38.389  28.708  1.00  0.00     0.210 HD
ENDBRANCH  39  45
ENDBRANCH  12  13
ENDBRANCH  10  12
ENDBRANCH   7   8
ENDBRANCH   6   7
ENDBRANCH   4   6
ENDBRANCH   3   4
TORSDOF 9
ENDMDL