MODEL 1
REMARK VINA RESULT: -7.598540554      0.000      0.000
REMARK  8 active torsions:
REMARK  status: ('A' for Active; 'I' for Inactive)
REMARK    1  A    between atoms: O1_2  and  C2_3
REMARK    2  A    between atoms: C2_3  and  C3_5
REMARK    3  A    between atoms: C3_5  and  N1_6
REMARK    4  A    between atoms: N1_6  and  C4_9
REMARK    5  A    between atoms: C16_21  and  N2_22
REMARK       I    between atoms: N2_22  and  C17_24
REMARK    6  A    between atoms: C17_24  and  O4_26
REMARK    7  A    between atoms: O4_26  and  C18_27
REMARK    8  A    between atoms: C23_32  and  C24_33
ROOT
HETATM    1  C4  UNL     1      12.302  44.860  18.245  1.00  0.00     0.194 C
HETATM    2  C5  UNL     1      12.090  43.513  17.674  1.00  0.00     0.034 C
HETATM    3  C6  UNL     1      10.961  42.721  18.271  1.00  0.00     0.012 C
HETATM    4  C7  UNL     1      11.002  42.701  19.757  1.00  0.00    -0.029 C
HETATM    5  C8  UNL     1      12.151  41.795  20.160  1.00  0.00     0.016 C
HETATM    6  C9  UNL     1      11.155  44.089  20.323  1.00  0.00     0.004 C
HETATM    7  C10 UNL     1      11.179  44.131  21.817  1.00  0.00     0.007 C
HETATM    8  C11 UNL     1       9.930  43.463  22.412  1.00  0.00     0.006 C
HETATM    9  C12 UNL     1       9.905  42.091  21.831  1.00  0.00     0.003 C
HETATM   10  C13 UNL     1       9.017  41.110  22.535  1.00  0.00    -0.002 C
HETATM   11  C14 UNL     1       7.568  41.397  22.523  1.00  0.00     0.007 C
HETATM   12  C15 UNL     1       6.876  40.529  23.538  1.00  0.00     0.026 C
HETATM   13  C16 UNL     1       7.503  39.169  23.697  1.00  0.00     0.087 C
HETATM   14  C25 UNL     1       8.286  38.726  22.516  1.00  0.00     0.034 C
HETATM   15  C26 UNL     1       9.312  39.736  22.058  1.00  0.00     0.014 C
HETATM   16  C27 UNL     1       9.396  39.669  20.580  1.00  0.00    -0.025 C
HETATM   17  C28 UNL     1       9.578  40.736  19.829  1.00  0.00    -0.020 C
HETATM   18  C29 UNL     1       9.721  42.111  20.343  1.00  0.00    -0.015 C
HETATM   19  C30 UNL     1       8.495  42.873  19.907  1.00  0.00     0.021 C
HETATM   20  C31 UNL     1      12.289  44.873  19.764  1.00  0.00    -0.015 C
HETATM   21  C32 UNL     1      13.641  44.508  20.256  1.00  0.00     0.017 C
HETATM   22  C33 UNL     1      12.061  46.345  20.145  1.00  0.00     0.017 C
ENDROOT
BRANCH  13  23
HETATM   23  N2  UNL     1       6.421  38.229  23.916  1.00  0.00    -0.332 N
HETATM   24  C17 UNL     1       6.633  36.912  24.382  1.00  0.00     0.361 C
HETATM   25  O3  UNL     1       7.786  36.526  24.619  1.00  0.00    -0.238 OA
ATOM     26  H2  UNL     1       5.465  38.531  23.725  1.00  0.00     0.165 HD
BRANCH  24  27
HETATM   27  O4  UNL     1       5.593  36.027  24.584  1.00  0.00    -0.295 OA
BRANCH  27  28
HETATM   28  C18 UNL     1       4.305  36.176  24.112  1.00  0.00     0.181 C
HETATM   29  C19 UNL     1       3.677  34.940  23.540  1.00  0.00     0.068 C
HETATM   30  C20 UNL     1       2.254  35.066  24.100  1.00  0.00     0.126 C
HETATM   31  C21 UNL     1       1.583  36.265  23.521  1.00  0.00     0.036 C
HETATM   32  O7  UNL     1       2.558  35.492  25.411  1.00  0.00    -0.361 OA
HETATM   33  C22 UNL     1       2.190  37.420  24.332  1.00  0.00     0.055 C
HETATM   34  C23 UNL     1       3.287  36.658  25.080  1.00  0.00     0.175 C
BRANCH  34  35
HETATM   35  C24 UNL     1       3.788  37.357  26.243  1.00  0.00     0.212 C
HETATM   36  O5  UNL     1       3.895  36.822  27.389  1.00  0.00    -0.646 OA
HETATM   37  O6  UNL     1       4.177  38.671  26.136  1.00  0.00    -0.646 OA
ENDBRANCH  34  35
ENDBRANCH  27  28
ENDBRANCH  24  27
ENDBRANCH  13  23
BRANCH   1  38
HETATM   38  N1  UNL     1      11.491  45.921  17.700  1.00  0.00    -0.061 N
ATOM     39  H12 UNL     1      11.623  46.782  18.231  1.00  0.00     0.278 HD
ATOM     40  H11 UNL     1      10.503  45.752  17.889  1.00  0.00     0.278 HD
BRANCH  38  41
HETATM   41  C3  UNL     1      11.702  46.154  16.308  1.00  0.00     0.343 C
BRANCH  41  42
HETATM   42  C2  UNL     1      10.498  45.832  15.492  1.00  0.00     0.284 C
HETATM   43  O2  UNL     1      10.492  46.152  14.274  1.00  0.00    -0.263 OA
BRANCH  42  44
HETATM   44  O1  UNL     1       9.375  45.197  15.990  1.00  0.00    -0.325 OA
HETATM   45  C1  UNL     1       8.929  43.980  15.382  1.00  0.00     0.213 C
ENDBRANCH  42  44
ENDBRANCH  41  42
ENDBRANCH  38  41
ENDBRANCH   1  38
TORSDOF 8
ENDMDL