MODEL 2
REMARK VINA RESULT: -7.994520895      4.108      9.768
REMARK  9 active torsions:
REMARK  status: ('A' for Active; 'I' for Inactive)
REMARK    1  A    between atoms: C2_2  and  C3_3
REMARK    2  A    between atoms: C3_3  and  C4_5
REMARK    3  A    between atoms: C15_16  and  O2_17
REMARK    4  A    between atoms: C16_19  and  O3_20
REMARK    5  A    between atoms: C19_23  and  C20_24
REMARK    6  A    between atoms: C20_24  and  O5_26
REMARK    7  A    between atoms: O5_26  and  C21_27
REMARK    8  A    between atoms: C21_27  and  C22_28
REMARK    9  A    between atoms: C29_37  and  O8_38
ROOT
HETATM    1  C4  UNL     1      -2.898  36.897  27.993  1.00  0.00     0.039 C
HETATM    2  C5  UNL     1      -3.498  38.117  27.386  1.00  0.00     0.028 C
HETATM    3  C6  UNL     1      -2.107  36.122  26.981  1.00  0.00    -0.006 C
HETATM    4  C7  UNL     1      -0.827  36.044  27.324  1.00  0.00    -0.074 C
HETATM    5  C8  UNL     1       0.376  35.425  26.733  1.00  0.00     0.061 C
HETATM    6  C9  UNL     1       1.586  36.230  27.054  1.00  0.00    -0.018 C
HETATM    7  C10 UNL     1       1.649  37.305  27.825  1.00  0.00    -0.069 C
HETATM    8  C11 UNL     1       3.039  37.819  27.882  1.00  0.00     0.027 C
HETATM    9  C12 UNL     1       4.013  37.031  27.020  1.00  0.00     0.021 C
HETATM   10  C13 UNL     1       5.168  37.965  27.053  1.00  0.00    -0.012 C
HETATM   11  C14 UNL     1       5.741  38.022  28.405  1.00  0.00     0.046 C
HETATM   12  C15 UNL     1       6.351  36.646  28.736  1.00  0.00     0.148 C
HETATM   13  C16 UNL     1       7.260  36.155  27.674  1.00  0.00     0.150 C
HETATM   14  C18 UNL     1       7.585  37.278  26.765  1.00  0.00     0.055 C
HETATM   15  C19 UNL     1       6.292  37.829  26.123  1.00  0.00     0.059 C
HETATM   16  C23 UNL     1       6.618  39.292  25.832  1.00  0.00     0.021 C
HETATM   17  C24 UNL     1       5.562  40.126  26.598  1.00  0.00     0.012 C
HETATM   18  C25 UNL     1       4.436  39.197  26.590  1.00  0.00    -0.025 C
HETATM   19  C26 UNL     1       3.967  39.219  25.186  1.00  0.00     0.017 C
HETATM   20  C27 UNL     1       3.266  39.272  27.503  1.00  0.00    -0.003 C
HETATM   21  C28 UNL     1       3.526  40.176  28.701  1.00  0.00     0.019 C
HETATM   22  C29 UNL     1       2.022  39.894  26.870  1.00  0.00     0.127 C
HETATM   23  C30 UNL     1       0.947  40.195  27.884  1.00  0.00     0.034 C
HETATM   24  C31 UNL     1      -0.086  39.079  27.945  1.00  0.00     0.017 C
HETATM   25  C32 UNL     1       0.445  37.828  28.556  1.00  0.00    -0.013 C
HETATM   26  C33 UNL     1       0.808  38.017  30.043  1.00  0.00     0.021 C
HETATM   27  C34 UNL     1      -0.608  36.764  28.596  1.00  0.00     0.028 C
HETATM   28  C35 UNL     1      -1.934  37.160  29.129  1.00  0.00     0.031 C
ENDROOT
BRANCH  15  29
HETATM   29  C20 UNL     1       6.147  36.988  24.946  1.00  0.00     0.269 C
HETATM   30  O4  UNL     1       7.036  36.980  24.065  1.00  0.00    -0.264 OA
BRANCH  29  31
HETATM   31  O5  UNL     1       5.056  36.195  24.778  1.00  0.00    -0.310 OA
BRANCH  31  32
HETATM   32  C21 UNL     1       4.293  36.070  23.624  1.00  0.00     0.291 C
BRANCH  32  33
HETATM   33  C22 UNL     1       3.478  34.834  23.567  1.00  0.00     0.198 C
HETATM   34  O6  UNL     1       2.260  34.839  23.926  1.00  0.00    -0.646 OA
HETATM   35  O7  UNL     1       3.973  33.621  23.130  1.00  0.00    -0.646 OA
ENDBRANCH  32  33
ENDBRANCH  31  32
ENDBRANCH  29  31
ENDBRANCH  15  29
BRANCH  13  36
HETATM   36  O3  UNL     1       8.397  35.623  28.267  1.00  0.00    -0.388 OA
HETATM   37  C17 UNL     1       9.017  34.655  27.497  1.00  0.00     0.202 C
ENDBRANCH  13  36
BRANCH  12  38
HETATM   38  O2  UNL     1       7.107  36.885  29.910  1.00  0.00    -0.393 OA
ATOM     39  H2  UNL     1       7.757  37.522  29.635  1.00  0.00     0.210 HD
ENDBRANCH  12  38
BRANCH  22  40
HETATM   40  O8  UNL     1       1.406  39.143  25.924  1.00  0.00    -0.395 OA
ATOM     41  H8  UNL     1       0.481  39.317  25.799  1.00  0.00     0.210 HD
ENDBRANCH  22  40
BRANCH   1  42
HETATM   42  C3  UNL     1      -4.028  36.022  28.470  1.00  0.00     0.160 C
HETATM   43  O1  UNL     1      -4.543  35.248  27.594  1.00  0.00    -0.292 OA
BRANCH  42  44
HETATM   44  C2  UNL     1      -4.510  36.044  29.827  1.00  0.00     0.041 C
HETATM   45  C1  UNL     1      -5.401  35.246  30.361  1.00  0.00     0.015 C
ENDBRANCH  42  44
ENDBRANCH   1  42
TORSDOF 9
ENDMDL