MODEL 3
REMARK VINA RESULT: -7.425458541      3.864     10.530
REMARK  8 active torsions:
REMARK  status: ('A' for Active; 'I' for Inactive)
REMARK    1  A    between atoms: C2_2  and  C3_3
REMARK    2  A    between atoms: C6_8  and  O3_9
REMARK    3  A    between atoms: O3_9  and  C7_10
REMARK    4  A    between atoms: C7_10  and  C8_12
REMARK    5  A    between atoms: C8_12  and  N1_13
REMARK    6  A    between atoms: C14_20  and  C15_21
REMARK    7  A    between atoms: C24_30  and  O6_31
REMARK    8  A    between atoms: C31_39  and  O7_40
ROOT
HETATM    1  C15 UNL     1       6.750  40.202  21.104  1.00  0.00    -0.008 C
HETATM    2  C16 UNL     1       5.462  40.015  20.408  1.00  0.00     0.005 C
HETATM    3  C17 UNL     1       4.429  39.597  21.470  1.00  0.00     0.006 C
HETATM    4  C18 UNL     1       5.100  38.821  22.583  1.00  0.00     0.001 C
HETATM    5  C19 UNL     1       4.034  38.102  23.336  1.00  0.00    -0.005 C
HETATM    6  C20 UNL     1       4.595  36.906  24.024  1.00  0.00     0.006 C
HETATM    7  C21 UNL     1       3.728  36.342  25.116  1.00  0.00     0.006 C
HETATM    8  C22 UNL     1       2.324  36.834  24.845  1.00  0.00    -0.004 C
HETATM    9  C23 UNL     1       1.379  36.002  25.626  1.00  0.00     0.037 C
HETATM   10  C24 UNL     1       0.006  36.554  25.813  1.00  0.00     0.118 C
HETATM   11  C25 UNL     1      -0.048  38.051  25.905  1.00  0.00     0.032 C
HETATM   12  C26 UNL     1       0.836  38.742  24.932  1.00  0.00     0.012 C
HETATM   13  C27 UNL     1       2.297  38.306  25.127  1.00  0.00    -0.036 C
HETATM   14  C28 UNL     1       2.592  38.512  26.573  1.00  0.00     0.016 C
HETATM   15  C29 UNL     1       3.225  39.030  24.182  1.00  0.00     0.001 C
HETATM   16  C30 UNL     1       3.973  40.169  24.798  1.00  0.00     0.038 C
HETATM   17  C31 UNL     1       5.454  40.171  24.666  1.00  0.00     0.127 C
HETATM   18  C32 UNL     1       6.021  39.666  23.395  1.00  0.00    -0.014 C
HETATM   19  C33 UNL     1       7.336  38.928  23.676  1.00  0.00     0.018 C
HETATM   20  C34 UNL     1       6.440  40.828  22.474  1.00  0.00     0.017 C
ENDROOT
BRANCH   1  21
HETATM   21  C14 UNL     1       7.821  40.959  20.377  1.00  0.00     0.011 C
HETATM   22  C2  UNL     1       8.971  40.152  19.885  1.00  0.00     0.049 C
HETATM   23  C1  UNL     1       8.620  39.169  18.774  1.00  0.00     0.027 C
HETATM   24  C4  UNL     1      10.112  41.062  19.409  1.00  0.00     0.023 C
HETATM   25  C5  UNL     1       9.654  42.449  19.046  1.00  0.00     0.034 C
HETATM   26  C6  UNL     1       8.334  42.318  18.363  1.00  0.00     0.132 C
HETATM   27  C13 UNL     1       7.248  41.837  19.290  1.00  0.00     0.039 C
BRANCH  22  28
HETATM   28  C3  UNL     1       9.591  39.319  20.953  1.00  0.00     0.181 C
HETATM   29  O1  UNL     1      10.330  39.860  21.805  1.00  0.00    -0.647 OA
HETATM   30  O2  UNL     1       9.403  37.947  21.078  1.00  0.00    -0.647 OA
ENDBRANCH  22  28
BRANCH  26  31
HETATM   31  O3  UNL     1       7.949  43.475  17.649  1.00  0.00    -0.315 OA
BRANCH  31  32
HETATM   32  C7  UNL     1       8.561  43.878  16.458  1.00  0.00     0.287 C
HETATM   33  O4  UNL     1       8.311  43.135  15.471  1.00  0.00    -0.263 OA
BRANCH  32  34
HETATM   34  C8  UNL     1       9.431  45.071  16.340  1.00  0.00     0.383 C
BRANCH  34  35
HETATM   35  N1  UNL     1      10.664  44.836  15.657  1.00  0.00     0.102 N
HETATM   36  C9  UNL     1      11.266  46.045  15.142  1.00  0.00     0.299 C
HETATM   37  C10 UNL     1      11.699  46.969  16.270  1.00  0.00     0.198 C
HETATM   38  O5  UNL     1      11.981  46.266  17.439  1.00  0.00    -0.388 OA
HETATM   39  C11 UNL     1      12.646  45.091  17.101  1.00  0.00     0.198 C
HETATM   40  C12 UNL     1      11.643  44.158  16.469  1.00  0.00     0.299 C
ENDBRANCH  34  35
ENDBRANCH  32  34
ENDBRANCH  31  32
ENDBRANCH  26  31
ENDBRANCH   1  21
BRANCH  17  41
HETATM   41  O7  UNL     1       6.078  39.588  25.803  1.00  0.00    -0.395 OA
ATOM     42  H7  UNL     1       5.919  38.652  25.845  1.00  0.00     0.210 HD
ENDBRANCH  17  41
BRANCH  10  43
HETATM   43  O6  UNL     1      -0.880  36.046  24.851  1.00  0.00    -0.396 OA
ATOM     44  H6  UNL     1      -0.693  36.404  23.991  1.00  0.00     0.210 HD
ENDBRANCH  10  43
TORSDOF 8
ENDMDL