MODEL 2
REMARK VINA RESULT: -8.307938772      1.514      1.871
REMARK  9 active torsions:
REMARK  status: ('A' for Active; 'I' for Inactive)
REMARK    1  A    between atoms: C3_4  and  O2_5
REMARK    2  A    between atoms: O2_5  and  C4_6
REMARK    3  A    between atoms: C4_6  and  C5_7
REMARK    4  A    between atoms: C6_8  and  C7_9
REMARK       I    between atoms: N1_14  and  C12_15
REMARK    5  A    between atoms: C12_15  and  C13_17
REMARK    6  A    between atoms: C13_17  and  N2_18
REMARK    7  A    between atoms: C31_37  and  O5_38
REMARK    8  A    between atoms: C32_40  and  O6_41
REMARK    9  A    between atoms: C33_43  and  O7_44
ROOT
HETATM    1  C5  UNL     1      10.618  43.427  18.261  1.00  0.00    -0.031 C
HETATM    2  C6  UNL     1       9.375  42.934  18.333  1.00  0.00    -0.043 C
HETATM    3  C24 UNL     1       8.289  43.666  17.567  1.00  0.00     0.037 C
HETATM    4  C25 UNL     1       8.375  43.439  16.096  1.00  0.00     0.004 C
HETATM    5  C26 UNL     1       8.374  44.680  15.251  1.00  0.00     0.000 C
HETATM    6  C27 UNL     1       9.638  44.641  14.409  1.00  0.00     0.000 C
HETATM    7  C28 UNL     1      10.742  45.352  15.128  1.00  0.00     0.000 C
HETATM    8  C29 UNL     1      11.470  44.491  16.142  1.00  0.00     0.005 C
HETATM    9  C30 UNL     1      10.906  44.673  17.524  1.00  0.00     0.041 C
ENDROOT
BRANCH   2  10
HETATM   10  C7  UNL     1       8.960  41.720  19.052  1.00  0.00     0.152 C
HETATM   11  C8  UNL     1       7.468  41.515  18.891  1.00  0.00     0.043 C
HETATM   12  C9  UNL     1       6.939  41.311  20.296  1.00  0.00     0.016 C
HETATM   13  C10 UNL     1       5.588  40.668  20.362  1.00  0.00     0.027 C
HETATM   14  C19 UNL     1       7.811  40.249  20.965  1.00  0.00     0.126 C
HETATM   15  C11 UNL     1       5.636  40.208  21.811  1.00  0.00     0.127 C
HETATM   16  N1  UNL     1       7.012  39.658  21.947  1.00  0.00    -0.343 N
HETATM   17  C12 UNL     1       7.206  38.702  22.976  1.00  0.00     0.248 C
HETATM   18  O3  UNL     1       8.309  38.159  23.160  1.00  0.00    -0.271 OA
HETATM   19  C20 UNL     1       9.098  40.886  21.242  1.00  0.00     0.083 C
HETATM   20  C21 UNL     1      10.289  39.999  20.982  1.00  0.00     0.040 C
HETATM   21  C23 UNL     1       9.603  41.223  22.563  1.00  0.00     0.040 C
HETATM   22  O4  UNL     1       9.225  42.035  20.412  1.00  0.00    -0.368 OA
HETATM   23  C22 UNL     1      10.890  40.488  22.278  1.00  0.00     0.006 C
BRANCH  17  24
HETATM   24  C13 UNL     1       6.091  38.316  23.873  1.00  0.00     0.374 C
BRANCH  24  25
HETATM   25  N2  UNL     1       6.559  37.899  25.180  1.00  0.00     0.097 N
HETATM   26  C14 UNL     1       6.516  38.945  26.108  1.00  0.00     0.273 C
HETATM   27  C15 UNL     1       5.935  38.728  27.444  1.00  0.00     0.030 C
HETATM   28  C16 UNL     1       5.911  37.283  27.855  1.00  0.00     0.003 C
HETATM   29  C17 UNL     1       5.167  36.567  26.719  1.00  0.00     0.030 C
HETATM   30  C18 UNL     1       6.078  36.624  25.540  1.00  0.00     0.273 C
ENDBRANCH  24  25
ENDBRANCH  17  24
ENDBRANCH   2  10
BRANCH   1  31
HETATM   31  C4  UNL     1      11.705  42.700  18.947  1.00  0.00     0.145 C
BRANCH  31  32
HETATM   32  O2  UNL     1      12.186  43.096  20.093  1.00  0.00    -0.329 OA
BRANCH  32  33
HETATM   33  C3  UNL     1      13.378  43.060  20.642  1.00  0.00     0.296 C
HETATM   34  O1  UNL     1      13.231  42.795  22.042  1.00  0.00    -0.351 OA
HETATM   35  C2  UNL     1      14.439  42.771  22.689  1.00  0.00     0.152 C
HETATM   36  C1  UNL     1      15.371  41.680  22.248  1.00  0.00     0.042 C
HETATM   37  C33 UNL     1      15.139  44.115  22.670  1.00  0.00     0.178 C
HETATM   38  C32 UNL     1      14.214  45.055  21.888  1.00  0.00     0.183 C
HETATM   39  C31 UNL     1      14.058  44.439  20.509  1.00  0.00     0.205 C
BRANCH  37  40
HETATM   40  O7  UNL     1      15.286  44.666  23.941  1.00  0.00    -0.390 OA
ATOM     41  H7  UNL     1      15.118  44.040  24.636  1.00  0.00     0.210 HD
ENDBRANCH  37  40
BRANCH  38  42
HETATM   42  O6  UNL     1      14.869  46.271  21.824  1.00  0.00    -0.390 OA
ATOM     43  H6  UNL     1      15.812  46.158  21.860  1.00  0.00     0.210 HD
ENDBRANCH  38  42
BRANCH  39  44
HETATM   44  O5  UNL     1      15.332  44.290  19.974  1.00  0.00    -0.388 OA
ATOM     45  H5  UNL     1      15.948  44.064  20.660  1.00  0.00     0.210 HD
ENDBRANCH  39  44
ENDBRANCH  32  33
ENDBRANCH  31  32
ENDBRANCH   1  31
TORSDOF 9
ENDMDL