MODEL 3
REMARK VINA RESULT: -6.874009859      1.033      1.238
REMARK  10 active torsions:
REMARK  status: ('A' for Active; 'I' for Inactive)
REMARK    1  A    between atoms: C2_2  and  C3_4
REMARK    2  A    between atoms: C3_4  and  C4_5
REMARK    3  A    between atoms: C7_8  and  C8_9
REMARK    4  A    between atoms: C8_9  and  C9_11
REMARK    5  A    between atoms: C13_15  and  O3_16
REMARK    6  A    between atoms: O3_16  and  C14_17
REMARK    7  A    between atoms: C14_17  and  C15_19
REMARK    8  A    between atoms: C22_26  and  O5_27
REMARK    9  A    between atoms: C30_36  and  O6_37
REMARK   10  A    between atoms: C32_40  and  C33_41
ROOT
HETATM    1  C3  UNL     1       2.734  37.570  26.325  1.00  0.00     0.058 C
HETATM    2  C12 UNL     1       3.799  36.483  26.618  1.00  0.00     0.053 C
HETATM    3  C13 UNL     1       5.161  36.834  26.124  1.00  0.00     0.138 C
HETATM    4  C19 UNL     1       5.200  36.616  24.658  1.00  0.00     0.020 C
HETATM    5  C20 UNL     1       3.999  35.985  24.038  1.00  0.00     0.010 C
HETATM    6  C21 UNL     1       2.745  36.737  24.065  1.00  0.00     0.039 C
HETATM    7  C22 UNL     1       2.691  37.959  24.956  1.00  0.00     0.073 C
HETATM    8  C23 UNL     1       3.458  39.023  24.308  1.00  0.00     0.045 C
HETATM    9  C24 UNL     1       4.874  39.029  24.015  1.00  0.00     0.006 C
HETATM   10  C25 UNL     1       5.596  37.778  23.815  1.00  0.00     0.001 C
HETATM   11  C26 UNL     1       7.076  38.066  24.153  1.00  0.00     0.033 C
HETATM   12  C27 UNL     1       7.498  39.266  23.339  1.00  0.00    -0.023 C
HETATM   13  C28 UNL     1       6.677  40.084  22.785  1.00  0.00    -0.072 C
HETATM   14  C29 UNL     1       7.155  41.257  21.986  1.00  0.00     0.066 C
HETATM   15  C30 UNL     1       6.529  41.036  20.619  1.00  0.00     0.123 C
HETATM   16  C31 UNL     1       5.815  39.716  20.516  1.00  0.00     0.048 C
HETATM   17  C32 UNL     1       4.670  39.579  21.531  1.00  0.00     0.102 C
HETATM   18  C34 UNL     1       5.159  39.985  22.838  1.00  0.00    -0.003 C
HETATM   19  C35 UNL     1       4.673  41.358  23.269  1.00  0.00     0.021 C
ENDROOT
BRANCH   1  20
HETATM   20  C2  UNL     1       1.480  36.815  26.674  1.00  0.00     0.135 C
HETATM   21  C1  UNL     1       1.506  35.376  27.070  1.00  0.00     0.091 C
HETATM   22  O1  UNL     1       0.412  37.349  26.648  1.00  0.00    -0.297 OA
ENDBRANCH   1  20
BRANCH   1  23
HETATM   23  C4  UNL     1       2.846  38.516  27.471  1.00  0.00     0.021 A
HETATM   24  C5  UNL     1       2.387  38.391  28.837  1.00  0.00    -0.001 A
HETATM   25  C6  UNL     1       1.694  39.506  29.585  1.00  0.00     0.011 C
HETATM   26  C7  UNL     1       3.886  38.551  28.490  1.00  0.00     0.065 A
BRANCH  26  27
HETATM   27  C8  UNL     1       4.485  39.794  28.990  1.00  0.00     0.136 C
HETATM   28  O2  UNL     1       4.815  39.851  30.167  1.00  0.00    -0.297 OA
BRANCH  27  29
HETATM   29  C9  UNL     1       4.747  41.026  28.204  1.00  0.00     0.056 A
HETATM   30  C10 UNL     1       6.091  41.651  28.263  1.00  0.00     0.013 A
HETATM   31  C11 UNL     1       5.753  40.803  27.087  1.00  0.00     0.013 A
ENDBRANCH  27  29
ENDBRANCH  26  27
ENDBRANCH   1  23
BRANCH   7  32
HETATM   32  O5  UNL     1       1.360  38.451  24.695  1.00  0.00    -0.389 OA
ATOM     33  H5  UNL     1       1.098  38.965  25.450  1.00  0.00     0.210 HD
ENDBRANCH   7  32
BRANCH   3  34
HETATM   34  O3  UNL     1       6.145  36.038  26.806  1.00  0.00    -0.312 OA
BRANCH  34  35
HETATM   35  C14 UNL     1       7.411  36.401  27.116  1.00  0.00     0.283 C
HETATM   36  O4  UNL     1       8.349  35.674  26.758  1.00  0.00    -0.260 OA
BRANCH  35  37
HETATM   37  C15 UNL     1       7.639  37.635  27.859  1.00  0.00     0.084 C
HETATM   38  C16 UNL     1       7.863  37.711  29.150  1.00  0.00    -0.082 C
HETATM   39  C17 UNL     1       8.088  39.029  29.833  1.00  0.00     0.043 C
HETATM   40  C18 UNL     1       7.902  36.505  29.976  1.00  0.00     0.043 C
ENDBRANCH  35  37
ENDBRANCH  34  35
ENDBRANCH   3  34
BRANCH  17  41
HETATM   41  C33 UNL     1       3.501  40.234  20.931  1.00  0.00     0.178 C
HETATM   42  O7  UNL     1       2.414  40.509  21.472  1.00  0.00    -0.648 OA
HETATM   43  O8  UNL     1       3.522  40.642  19.567  1.00  0.00    -0.648 OA
ENDBRANCH  17  41
BRANCH  15  44
HETATM   44  O6  UNL     1       7.598  40.967  19.713  1.00  0.00    -0.395 OA
ATOM     45  H6  UNL     1       7.390  41.578  19.016  1.00  0.00     0.210 HD
ENDBRANCH  15  44
TORSDOF 10
ENDMDL