MODEL 3
REMARK VINA RESULT: -7.926441758      2.819      7.605
REMARK  11 active torsions:
REMARK  status: ('A' for Active; 'I' for Inactive)
REMARK    1  A    between atoms: C2_2  and  C3_3
REMARK    2  A    between atoms: C4_4  and  C5_5
REMARK    3  A    between atoms: C5_5  and  C6_7
REMARK    4  A    between atoms: C6_7  and  O2_8
REMARK    5  A    between atoms: C6_7  and  O3_10
REMARK    6  A    between atoms: C6_7  and  C7_12
REMARK    7  A    between atoms: C8_13  and  C9_14
REMARK    8  A    between atoms: C9_14  and  C10_15
REMARK    9  A    between atoms: C10_15  and  C11_16
REMARK   10  A    between atoms: C11_16  and  O4_17
REMARK   11  A    between atoms: C11_16  and  C12_19
ROOT
HETATM    1  C5  UNL     1       5.730  37.231  26.134  1.00  0.00     0.210 C
HETATM    2  O1  UNL     1       6.591  36.456  25.703  1.00  0.00    -0.290 OA
ENDROOT
BRANCH   1   3
HETATM    3  C4  UNL     1       5.269  38.318  25.225  1.00  0.00     0.100 C
HETATM    4  C3  UNL     1       4.986  37.716  23.877  1.00  0.00    -0.059 C
HETATM    5  C26 UNL     1       5.164  38.807  22.906  1.00  0.00     0.078 C
HETATM    6  C21 UNL     1       6.234  39.701  23.546  1.00  0.00     0.182 C
HETATM    7  C25 UNL     1       4.050  39.727  22.601  1.00  0.00     0.015 C
HETATM    8  C19 UNL     1       6.463  39.268  24.926  1.00  0.00     0.060 C
HETATM    9  O6  UNL     1       7.216  39.829  22.618  1.00  0.00    -0.317 OA
HETATM   10  O7  UNL     1       5.957  41.061  23.361  1.00  0.00    -0.317 OA
HETATM   11  C20 UNL     1       6.369  40.453  25.855  1.00  0.00     0.016 C
HETATM   12  C22 UNL     1       6.594  40.950  22.133  1.00  0.00     0.180 C
HETATM   13  C23 UNL     1       5.672  40.821  20.990  1.00  0.00     0.052 C
HETATM   14  C31 UNL     1       7.594  42.037  21.802  1.00  0.00     0.062 A
HETATM   15  C24 UNL     1       4.291  40.329  21.228  1.00  0.00     0.011 C
HETATM   16  C27 UNL     1       6.398  40.132  19.862  1.00  0.00    -0.009 C
HETATM   17  C28 UNL     1       5.910  40.743  18.538  1.00  0.00     0.010 C
HETATM   18  C29 UNL     1       7.898  40.334  19.959  1.00  0.00     0.011 C
HETATM   19  C30 UNL     1       8.278  41.658  20.529  1.00  0.00     0.004 A
HETATM   20  C32 UNL     1       9.033  41.840  21.766  1.00  0.00    -0.034 A
HETATM   21  C33 UNL     1       9.856  43.138  21.842  1.00  0.00     0.016 C
HETATM   22  C34 UNL     1       9.696  40.711  22.504  1.00  0.00     0.016 C
BRANCH   4  23
HETATM   23  C2  UNL     1       3.918  36.769  23.734  1.00  0.00    -0.006 C
HETATM   24  C1  UNL     1       4.051  35.467  23.638  1.00  0.00     0.011 C
ENDBRANCH   4  23
ENDBRANCH   1   3
BRANCH   1  25
HETATM   25  C6  UNL     1       5.257  36.989  27.503  1.00  0.00     0.292 C
BRANCH  25  26
HETATM   26  O2  UNL     1       6.041  35.959  28.082  1.00  0.00    -0.350 OA
ATOM     27  H2  UNL     1       6.739  36.355  28.590  1.00  0.00     0.214 HD
ENDBRANCH  25  26
BRANCH  25  28
HETATM   28  O3  UNL     1       5.341  38.079  28.350  1.00  0.00    -0.350 OA
ATOM     29  H3  UNL     1       6.198  38.220  28.735  1.00  0.00     0.214 HD
ENDBRANCH  25  28
BRANCH  25  30
HETATM   30  C7  UNL     1       3.872  36.457  27.438  1.00  0.00    -0.030 C
HETATM   31  C8  UNL     1       2.756  36.017  27.405  1.00  0.00    -0.101 C
BRANCH  31  32
HETATM   32  C9  UNL     1       1.405  35.480  27.390  1.00  0.00     0.097 C
BRANCH  32  33
HETATM   33  C10 UNL     1       0.394  36.402  28.031  1.00  0.00     0.045 C
BRANCH  33  34
HETATM   34  C11 UNL     1      -0.538  36.913  26.977  1.00  0.00     0.138 C
BRANCH  34  35
HETATM   35  O4  UNL     1      -1.818  36.955  27.585  1.00  0.00    -0.394 OA
ATOM     36  H4  UNL     1      -2.346  36.319  27.117  1.00  0.00     0.210 HD
ENDBRANCH  34  35
BRANCH  34  37
HETATM   37  C12 UNL     1      -0.222  38.320  26.546  1.00  0.00     0.046 C
HETATM   38  C13 UNL     1      -1.491  39.077  26.256  1.00  0.00     0.031 C
HETATM   39  S1  UNL     1       0.597  39.201  27.938  1.00  0.00    -0.079 SA
HETATM   40  C14 UNL     1       2.115  39.569  27.068  1.00  0.00     0.191 C
HETATM   41  O5  UNL     1       3.122  39.979  27.590  1.00  0.00    -0.285 OA
HETATM   42  C15 UNL     1       1.878  39.280  25.672  1.00  0.00     0.077 A
HETATM   43  C16 UNL     1       0.797  39.916  24.881  1.00  0.00     0.025 A
HETATM   44  C17 UNL     1       0.714  38.464  25.429  1.00  0.00    -0.013 A
HETATM   45  C18 UNL     1       0.671  37.432  24.323  1.00  0.00     0.018 C
ENDBRANCH  34  37
ENDBRANCH  33  34
ENDBRANCH  32  33
ENDBRANCH  31  32
ENDBRANCH  25  30
ENDBRANCH   1  25
TORSDOF 11
ENDMDL