MODEL 5
REMARK VINA RESULT: -6.562645540      2.319      5.784
REMARK  8 active torsions:
REMARK  status: ('A' for Active; 'I' for Inactive)
REMARK    1  A    between atoms: C2_2  and  C3_3
REMARK    2  A    between atoms: C3_3  and  C6_6
REMARK    3  A    between atoms: C6_6  and  C9_9
REMARK    4  A    between atoms: C13_13  and  C14_14
REMARK    5  A    between atoms: C14_14  and  O2_16
REMARK    6  A    between atoms: C25_27  and  O3_28
REMARK    7  A    between atoms: C26_30  and  O4_31
REMARK    8  A    between atoms: C30_37  and  O6_38
ROOT
HETATM    1  C9  UNL     1       4.171  39.244  24.159  1.00  0.00     0.059 C
HETATM    2  C10 UNL     1       3.383  38.239  23.770  1.00  0.00    -0.040 C
HETATM    3  C11 UNL     1       3.194  38.010  22.368  1.00  0.00     0.038 C
HETATM    4  C12 UNL     1       2.595  36.587  22.237  1.00  0.00     0.020 C
HETATM    5  C13 UNL     1       2.800  35.990  23.590  1.00  0.00     0.099 C
HETATM    6  C16 UNL     1       2.535  37.173  24.438  1.00  0.00     0.002 C
HETATM    7  C17 UNL     1       1.093  37.570  24.045  1.00  0.00     0.022 C
HETATM    8  C18 UNL     1       2.667  37.022  25.893  1.00  0.00    -0.028 C
HETATM    9  C19 UNL     1       1.904  35.700  26.201  1.00  0.00     0.016 C
HETATM   10  C20 UNL     1       4.052  36.756  26.338  1.00  0.00     0.011 C
HETATM   11  C21 UNL     1       4.398  37.292  27.713  1.00  0.00     0.016 C
HETATM   12  C22 UNL     1       4.530  38.765  27.748  1.00  0.00     0.019 C
HETATM   13  C23 UNL     1       4.197  39.178  29.193  1.00  0.00     0.018 C
HETATM   14  C24 UNL     1       5.402  38.653  29.997  1.00  0.00     0.035 C
HETATM   15  C25 UNL     1       6.523  39.092  29.134  1.00  0.00     0.147 C
HETATM   16  C26 UNL     1       6.002  39.154  27.748  1.00  0.00     0.158 C
HETATM   17  C27 UNL     1       3.810  39.593  26.767  1.00  0.00     0.170 C
HETATM   18  O5  UNL     1       4.477  39.606  25.491  1.00  0.00    -0.344 OA
HETATM   19  C28 UNL     1       2.343  39.440  26.639  1.00  0.00    -0.029 C
HETATM   20  C29 UNL     1       1.380  40.277  27.322  1.00  0.00     0.022 C
HETATM   21  C30 UNL     1       1.503  41.782  27.036  1.00  0.00     0.164 C
HETATM   22  C31 UNL     1       0.196  42.281  27.641  1.00  0.00     0.057 C
HETATM   23  C32 UNL     1      -0.133  41.215  28.558  1.00  0.00     0.066 C
HETATM   24  C33 UNL     1      -0.414  41.443  29.968  1.00  0.00     0.021 C
HETATM   25  C34 UNL     1      -0.331  39.978  30.448  1.00  0.00     0.017 C
HETATM   26  C35 UNL     1       0.321  39.229  29.266  1.00  0.00     0.096 C
HETATM   27  N1  UNL     1       1.047  40.303  28.652  1.00  0.00    -0.280 NA
HETATM   28  C36 UNL     1       1.927  38.006  26.743  1.00  0.00     0.048 C
ENDROOT
BRANCH  21  29
HETATM   29  O6  UNL     1       2.457  42.385  27.869  1.00  0.00    -0.390 OA
ATOM     30  H6  UNL     1       3.054  41.742  28.234  1.00  0.00     0.210 HD
ENDBRANCH  21  29
BRANCH  16  31
HETATM   31  O4  UNL     1       6.724  38.328  26.891  1.00  0.00    -0.392 OA
ATOM     32  H4  UNL     1       7.196  37.668  27.386  1.00  0.00     0.210 HD
ENDBRANCH  16  31
BRANCH   1  33
HETATM   33  C6  UNL     1       4.784  40.049  23.106  1.00  0.00     0.012 C
HETATM   34  C7  UNL     1       4.543  41.556  23.334  1.00  0.00     0.023 C
HETATM   35  C8  UNL     1       4.648  39.594  21.710  1.00  0.00     0.023 C
BRANCH  33  36
HETATM   36  C3  UNL     1       6.330  40.053  23.281  1.00  0.00    -0.018 C
HETATM   37  C4  UNL     1       6.863  38.667  23.487  1.00  0.00     0.020 C
HETATM   38  C5  UNL     1       6.751  41.076  24.254  1.00  0.00     0.020 C
BRANCH  36  39
HETATM   39  C2  UNL     1       6.925  40.442  21.932  1.00  0.00    -0.027 C
HETATM   40  C1  UNL     1       8.178  40.814  21.773  1.00  0.00     0.007 C
ENDBRANCH  36  39
ENDBRANCH  33  36
ENDBRANCH   1  33
BRANCH  15  41
HETATM   41  O3  UNL     1       6.938  40.362  29.570  1.00  0.00    -0.393 OA
ATOM     42  H3  UNL     1       7.884  40.353  29.645  1.00  0.00     0.210 HD
ENDBRANCH  15  41
BRANCH   5  43
HETATM   43  C14 UNL     1       4.016  35.245  23.610  1.00  0.00     0.263 C
HETATM   44  O1  UNL     1       5.161  35.661  23.960  1.00  0.00    -0.265 OA
BRANCH  43  45
HETATM   45  O2  UNL     1       4.039  33.911  23.219  1.00  0.00    -0.326 OA
HETATM   46  C15 UNL     1       2.905  33.079  23.182  1.00  0.00     0.213 C
ENDBRANCH  43  45
ENDBRANCH   5  43
TORSDOF 8
ENDMDL