MODEL 2
REMARK VINA RESULT: -8.050773601      2.922      4.905
REMARK  13 active torsions:
REMARK  status: ('A' for Active; 'I' for Inactive)
REMARK    1  A    between atoms: C2_2  and  O1_3
REMARK    2  A    between atoms: C2_2  and  N1_5
REMARK    3  A    between atoms: N1_5  and  C3_7
REMARK    4  A    between atoms: C3_7  and  O2_8
REMARK    5  A    between atoms: C3_7  and  N2_10
REMARK    6  A    between atoms: N2_10  and  C4_12
REMARK       I    between atoms: N3_15  and  C7_16
REMARK    7  A    between atoms: C7_16  and  C8_18
REMARK    8  A    between atoms: C8_18  and  C9_19
REMARK    9  A    between atoms: C9_19  and  C10_20
REMARK   10  A    between atoms: C10_20  and  C11_22
REMARK   11  A    between atoms: C16_27  and  O5_28
REMARK   12  A    between atoms: O5_28  and  C17_29
REMARK   13  A    between atoms: C22_35  and  O7_36
ROOT
HETATM    1  C11 UNL     1       8.855  39.704  21.952  1.00  0.00     0.064 C
HETATM    2  C12 UNL     1       9.328  38.594  21.044  1.00  0.00     0.013 C
HETATM    3  C13 UNL     1       9.734  39.323  19.803  1.00  0.00     0.007 C
HETATM    4  C14 UNL     1       8.821  40.506  19.723  1.00  0.00     0.001 C
HETATM    5  C15 UNL     1       9.348  41.693  19.031  1.00  0.00     0.025 C
HETATM    6  C16 UNL     1      10.783  42.031  19.167  1.00  0.00     0.137 C
HETATM    7  C19 UNL     1      11.088  43.116  18.113  1.00  0.00     0.038 C
HETATM    8  C20 UNL     1      10.242  44.331  18.362  1.00  0.00    -0.001 C
HETATM    9  C21 UNL     1      10.567  45.419  17.413  1.00  0.00     0.037 C
HETATM   10  C22 UNL     1       9.965  45.316  16.065  1.00  0.00     0.118 C
HETATM   11  C23 UNL     1       8.942  44.251  15.898  1.00  0.00     0.032 C
HETATM   12  C24 UNL     1       8.102  43.960  17.079  1.00  0.00     0.012 C
HETATM   13  C25 UNL     1       8.775  44.061  18.416  1.00  0.00    -0.036 C
HETATM   14  C26 UNL     1       8.142  45.276  19.116  1.00  0.00     0.016 C
HETATM   15  C27 UNL     1       8.426  42.871  19.284  1.00  0.00     0.001 C
HETATM   16  C28 UNL     1       8.398  43.226  20.727  1.00  0.00     0.007 C
HETATM   17  C29 UNL     1       8.390  42.067  21.664  1.00  0.00     0.011 C
HETATM   18  C30 UNL     1       8.183  40.723  21.071  1.00  0.00    -0.030 C
HETATM   19  C31 UNL     1       6.666  40.479  21.016  1.00  0.00     0.016 C
ENDROOT
BRANCH   1  20
HETATM   20  C10 UNL     1       8.044  39.124  23.016  1.00  0.00     0.132 C
HETATM   21  O4  UNL     1       8.097  37.892  23.191  1.00  0.00    -0.298 OA
BRANCH  20  22
HETATM   22  C9  UNL     1       7.140  39.901  23.926  1.00  0.00     0.088 C
BRANCH  22  23
HETATM   23  C8  UNL     1       6.476  38.996  24.921  1.00  0.00     0.110 C
BRANCH  23  24
HETATM   24  C7  UNL     1       6.468  39.484  26.302  1.00  0.00     0.220 C
HETATM   25  N3  UNL     1       6.435  38.531  27.363  1.00  0.00    -0.352 N
HETATM   26  C6  UNL     1       6.408  37.110  27.121  1.00  0.00     0.127 C
HETATM   27  C32 UNL     1       6.428  39.016  28.723  1.00  0.00     0.127 C
HETATM   28  C5  UNL     1       7.564  36.456  27.855  1.00  0.00     0.045 C
HETATM   29  C4  UNL     1       7.785  36.998  29.229  1.00  0.00     0.088 C
HETATM   30  C33 UNL     1       6.738  37.937  29.726  1.00  0.00     0.045 C
HETATM   31  O3  UNL     1       6.488  40.704  26.544  1.00  0.00    -0.273 OA
BRANCH  29  32
HETATM   32  N2  UNL     1       8.017  35.890  30.179  1.00  0.00    -0.352 N
ATOM     33  H2  UNL     1       7.319  35.683  30.893  1.00  0.00     0.163 HD
BRANCH  32  34
HETATM   34  C3  UNL     1       9.178  35.127  30.111  1.00  0.00     0.218 C
BRANCH  34  35
HETATM   35  N1  UNL     1       9.768  34.555  28.996  1.00  0.00    -0.307 N
ATOM     36  H1  UNL     1      10.348  35.203  28.464  1.00  0.00     0.171 HD
BRANCH  35  37
HETATM   37  C2  UNL     1       9.725  33.267  28.454  1.00  0.00     0.114 C
HETATM   38  C1  UNL     1       9.669  32.965  27.020  1.00  0.00     0.097 C
BRANCH  37  39
HETATM   39  O1  UNL     1       9.735  32.249  29.273  1.00  0.00    -0.350 OA
ATOM     40  H1  UNL     1       8.938  32.082  29.761  1.00  0.00     0.219 HD
ENDBRANCH  37  39
ENDBRANCH  35  37
ENDBRANCH  34  35
BRANCH  34  41
HETATM   41  O2  UNL     1       9.797  34.915  31.236  1.00  0.00    -0.332 OA
ATOM     42  H2  UNL     1      10.482  35.541  31.445  1.00  0.00     0.220 HD
ENDBRANCH  34  41
ENDBRANCH  32  34
ENDBRANCH  29  32
ENDBRANCH  23  24
ENDBRANCH  22  23
ENDBRANCH  20  22
ENDBRANCH   1  20
BRANCH   6  43
HETATM   43  O5  UNL     1      11.216  42.564  20.362  1.00  0.00    -0.316 OA
BRANCH  43  44
HETATM   44  C17 UNL     1      12.176  42.017  21.146  1.00  0.00     0.255 C
HETATM   45  C18 UNL     1      11.873  41.676  22.553  1.00  0.00     0.126 C
HETATM   46  O6  UNL     1      13.318  41.789  20.710  1.00  0.00    -0.266 OA
ENDBRANCH  43  44
ENDBRANCH   6  43
BRANCH  10  47
HETATM   47  O7  UNL     1      10.970  45.085  15.097  1.00  0.00    -0.396 OA
ATOM     48  H7  UNL     1      10.612  45.184  14.223  1.00  0.00     0.210 HD
ENDBRANCH  10  47
TORSDOF 13
ENDMDL