MODEL 4
REMARK VINA RESULT: -9.404034265      1.306      1.445
REMARK  8 active torsions:
REMARK  status: ('A' for Active; 'I' for Inactive)
REMARK    1  A    between atoms: C1_2  and  C2_4
REMARK    2  A    between atoms: C5_7  and  N2_8
REMARK       I    between atoms: N2_8  and  C6_10
REMARK       I    between atoms: C6_10  and  N3_12
REMARK    3  A    between atoms: N3_12  and  C7_14
REMARK    4  A    between atoms: C9_16  and  N4_17
REMARK    5  A    between atoms: C12_23  and  N5_24
REMARK    6  A    between atoms: N5_24  and  C13_26
REMARK    7  A    between atoms: C16_32  and  N7_33
REMARK    8  A    between atoms: N7_33  and  C17_35
ROOT
HETATM    1  C7  UNL     1     -14.898  17.138 -48.304  1.00  0.00     0.111 C
HETATM    2  C8  UNL     1     -14.335  18.022 -47.212  1.00  0.00     0.060 C
HETATM    3  C9  UNL     1     -15.403  18.817 -46.517  1.00  0.00     0.185 C
HETATM    4  C10 UNL     1     -16.317  19.533 -47.452  1.00  0.00     0.035 C
HETATM    5  C11 UNL     1     -15.764  19.409 -48.863  1.00  0.00     0.030 C
HETATM    6  C12 UNL     1     -15.829  17.925 -49.220  1.00  0.00     0.122 C
ENDROOT
BRANCH   6   7
HETATM    7  N5  UNL     1     -17.191  17.519 -49.070  1.00  0.00    -0.219 N
ATOM      8  H5  UNL     1     -17.496  17.119 -48.182  1.00  0.00     0.178 HD
BRANCH   7   9
HETATM    9  C13 UNL     1     -18.040  17.647 -50.025  1.00  0.00     0.679 A
HETATM   10  N6  UNL     1     -18.095  16.866 -51.116  1.00  0.00    -0.200 N
HETATM   11  C14 UNL     1     -19.015  17.035 -52.105  1.00  0.00     0.133 A
ATOM     12  H6  UNL     1     -17.416  16.111 -51.208  1.00  0.00     0.183 HD
HETATM   13  C15 UNL     1     -19.946  18.043 -52.014  1.00  0.00     0.094 A
HETATM   14 CL1  UNL     1     -21.141  18.277 -53.279  1.00  0.00    -0.079 Cl
HETATM   15  C16 UNL     1     -19.901  18.852 -50.899  1.00  0.00     0.140 A
HETATM   16  N8  UNL     1     -18.980  18.647 -49.954  1.00  0.00    -0.175 N
ATOM     17  H8  UNL     1     -18.973  19.264 -49.141  1.00  0.00     0.186 HD
BRANCH  15  18
HETATM   18  N7  UNL     1     -20.772  19.785 -50.824  1.00  0.00    -0.370 N
ATOM     19  H7  UNL     1     -20.588  20.623 -51.377  1.00  0.00     0.161 HD
BRANCH  18  20
HETATM   20  C17 UNL     1     -21.972  19.786 -50.050  1.00  0.00     0.083 A
HETATM   21  C18 UNL     1     -23.309  19.725 -50.682  1.00  0.00     0.027 A
HETATM   22  C19 UNL     1     -22.820  21.058 -50.247  1.00  0.00     0.027 A
ENDBRANCH  18  20
ENDBRANCH  15  18
ENDBRANCH   7   9
ENDBRANCH   6   7
BRANCH   1  23
HETATM   23  N3  UNL     1     -13.744  16.666 -49.070  1.00  0.00    -0.336 N
HETATM   24  C6  UNL     1     -12.602  17.473 -49.250  1.00  0.00     0.316 C
HETATM   25  N2  UNL     1     -11.502  17.004 -49.988  1.00  0.00    -0.339 N
HETATM   26  O2  UNL     1     -12.580  18.614 -48.746  1.00  0.00    -0.247 OA
ATOM     27  H2  UNL     1     -11.521  16.071 -50.400  1.00  0.00     0.164 HD
ATOM     28  H3  UNL     1     -13.766  15.733 -49.482  1.00  0.00     0.164 HD
BRANCH  25  29
HETATM   29  C5  UNL     1     -10.348  17.848 -50.159  1.00  0.00     0.086 C
HETATM   30  C4  UNL     1      -9.152  16.948 -50.346  1.00  0.00     0.026 C
HETATM   31  C3  UNL     1      -8.112  17.727 -51.110  1.00  0.00     0.015 C
HETATM   32  C2  UNL     1      -8.610  17.824 -52.542  1.00  0.00     0.075 C
HETATM   33  C21 UNL     1      -9.962  18.451 -52.570  1.00  0.00     0.015 C
HETATM   34  C20 UNL     1     -10.513  18.853 -51.257  1.00  0.00     0.026 C
BRANCH  32  35
HETATM   35  C1  UNL     1      -7.618  18.495 -53.396  1.00  0.00     0.235 C
HETATM   36  N1  UNL     1      -8.022  19.624 -54.158  1.00  0.00    -0.062 NA
HETATM   37  O1  UNL     1      -6.444  18.052 -53.429  1.00  0.00    -0.277 OA
ENDBRANCH  32  35
ENDBRANCH  25  29
ENDBRANCH   1  23
BRANCH   3  38
HETATM   38  N4  UNL     1     -16.156  17.936 -45.632  1.00  0.00    -0.075 N
ATOM     39  H43 UNL     1     -17.149  17.910 -45.864  1.00  0.00     0.274 HD
ATOM     40  H42 UNL     1     -15.945  16.951 -45.795  1.00  0.00     0.274 HD
ATOM     41  H41 UNL     1     -15.991  18.213 -44.665  1.00  0.00     0.274 HD
ENDBRANCH   3  38
TORSDOF 8
ENDMDL