MODEL 3
REMARK VINA RESULT: -7.994181050      4.476     10.019
REMARK  10 active torsions:
REMARK  status: ('A' for Active; 'I' for Inactive)
REMARK    1  A    between atoms: N1_1  and  C1_4
REMARK    2  A    between atoms: C2_7  and  N3_8
REMARK    3  A    between atoms: N3_8  and  C3_10
REMARK    4  A    between atoms: C9_16  and  N4_17
REMARK       I    between atoms: N4_17  and  C10_19
REMARK    5  A    between atoms: C10_19  and  C11_21
REMARK    6  A    between atoms: C13_23  and  C14_24
REMARK    7  A    between atoms: C14_24  and  C15_25
REMARK    8  A    between atoms: C15_25  and  O2_26
REMARK    9  A    between atoms: C18_36  and  C19_37
REMARK   10  A    between atoms: C20_38  and  C21_39
ROOT
HETATM    1  C3  UNL     1     -16.131  18.865 -48.665  1.00  0.00     0.126 C
HETATM    2  C4  UNL     1     -16.843  17.867 -47.781  1.00  0.00     0.011 C
HETATM    3  C5  UNL     1     -17.010  18.491 -46.430  1.00  0.00     0.007 C
HETATM    4  C6  UNL     1     -15.579  18.557 -45.878  1.00  0.00     0.007 C
HETATM    5  C7  UNL     1     -14.724  17.956 -46.970  1.00  0.00     0.011 C
HETATM    6  C8  UNL     1     -15.691  16.886 -47.505  1.00  0.00     0.013 C
HETATM    7  C9  UNL     1     -14.695  18.910 -48.115  1.00  0.00     0.112 C
ENDROOT
BRANCH   1   8
HETATM    8  N3  UNL     1     -16.146  18.446 -50.028  1.00  0.00    -0.219 N
ATOM      9  H3  UNL     1     -15.265  18.254 -50.504  1.00  0.00     0.178 HD
BRANCH   8  10
HETATM   10  C2  UNL     1     -17.242  18.307 -50.659  1.00  0.00     0.681 A
HETATM   11  N2  UNL     1     -18.024  19.368 -50.938  1.00  0.00    -0.176 N
HETATM   12  C1  UNL     1     -19.200  19.249 -51.609  1.00  0.00     0.136 A
ATOM     13  H2  UNL     1     -17.722  20.293 -50.635  1.00  0.00     0.186 HD
HETATM   14  C18 UNL     1     -19.628  18.014 -52.029  1.00  0.00     0.100 A
HETATM   15  C17 UNL     1     -18.833  16.909 -51.748  1.00  0.00     0.141 A
HETATM   16  N6  UNL     1     -17.695  17.106 -51.086  1.00  0.00    -0.180 N
HETATM   17 CL1  UNL     1     -19.371  15.334 -52.278  1.00  0.00    -0.062 Cl
ATOM     18  H6  UNL     1     -17.120  16.289 -50.884  1.00  0.00     0.185 HD
BRANCH  12  19
HETATM   19  N1  UNL     1     -19.942  20.269 -51.873  1.00  0.00    -0.384 N
ATOM     20  H12 UNL     1     -19.883  21.077 -51.254  1.00  0.00     0.157 HD
ATOM     21  H11 UNL     1     -20.575  20.285 -52.673  1.00  0.00     0.157 HD
ENDBRANCH  12  19
BRANCH  14  22
HETATM   22  C19 UNL     1     -20.859  17.839 -52.738  1.00  0.00    -0.059 C
HETATM   23  C20 UNL     1     -21.905  17.713 -53.337  1.00  0.00    -0.096 C
BRANCH  23  24
HETATM   24  C21 UNL     1     -23.180  17.553 -54.040  1.00  0.00     0.065 A
HETATM   25  C22 UNL     1     -23.303  17.879 -55.480  1.00  0.00     0.018 A
HETATM   26  C23 UNL     1     -23.310  16.449 -55.055  1.00  0.00     0.018 A
ENDBRANCH  23  24
ENDBRANCH  14  22
ENDBRANCH   8  10
ENDBRANCH   1   8
BRANCH   7  27
HETATM   27  N4  UNL     1     -13.760  18.431 -49.102  1.00  0.00    -0.352 N
HETATM   28  C10 UNL     1     -12.357  18.580 -48.990  1.00  0.00     0.248 C
HETATM   29  O1  UNL     1     -11.900  19.161 -47.975  1.00  0.00    -0.271 OA
ATOM     30  H4  UNL     1     -14.130  17.959 -49.926  1.00  0.00     0.163 HD
BRANCH  28  31
HETATM   31  C11 UNL     1     -11.428  18.086 -50.005  1.00  0.00     0.277 C
HETATM   32  C12 UNL     1     -10.318  19.044 -50.328  1.00  0.00     0.049 C
HETATM   33  C13 UNL     1      -9.109  18.164 -50.524  1.00  0.00     0.016 C
HETATM   34  C16 UNL     1      -9.452  16.858 -49.876  1.00  0.00     0.238 C
HETATM   35  N5  UNL     1     -10.856  16.832 -49.637  1.00  0.00    -0.062 N
ATOM     36  H52 UNL     1     -11.078  16.575 -48.675  1.00  0.00     0.278 HD
ATOM     37  H51 UNL     1     -11.312  16.048 -50.106  1.00  0.00     0.278 HD
BRANCH  33  38
HETATM   38  C14 UNL     1      -8.683  18.046 -51.955  1.00  0.00     0.032 C
BRANCH  38  39
HETATM   39  C15 UNL     1      -9.406  18.996 -52.868  1.00  0.00     0.164 C
BRANCH  39  40
HETATM   40  O2  UNL     1     -10.198  18.199 -53.727  1.00  0.00    -0.401 OA
ATOM     41  H2  UNL     1      -9.861  18.334 -54.605  1.00  0.00     0.209 HD
ENDBRANCH  39  40
ENDBRANCH  38  39
ENDBRANCH  33  38
ENDBRANCH  28  31
ENDBRANCH   7  27
TORSDOF 10
ENDMDL