MODEL 4
REMARK VINA RESULT: -8.245120822      0.781      1.182
REMARK  13 active torsions:
REMARK  status: ('A' for Active; 'I' for Inactive)
REMARK    1  A    between atoms: C2_2  and  O1_5
REMARK    2  A    between atoms: O1_5  and  C5_6
REMARK    3  A    between atoms: C5_6  and  C6_7
REMARK    4  A    between atoms: C6_7  and  C7_8
REMARK    5  A    between atoms: C7_8  and  N1_9
REMARK    6  A    between atoms: N1_9  and  C8_11
REMARK    7  A    between atoms: C8_11  and  N2_13
REMARK    8  A    between atoms: N2_13  and  N3_15
REMARK       I    between atoms: N3_15  and  C9_16
REMARK       I    between atoms: C9_16  and  N4_18
REMARK    9  A    between atoms: N4_18  and  N5_20
REMARK   10  A    between atoms: N5_20  and  C10_21
REMARK   11  A    between atoms: C10_21  and  O3_22
REMARK   12  A    between atoms: C10_21  and  N6_24
REMARK   13  A    between atoms: N6_24  and  C11_26
ROOT
HETATM    1  N3  UNL     1     -15.699  16.101 -49.353  1.00  0.00    -0.261 NA
HETATM    2  C9  UNL     1     -14.665  15.744 -50.134  1.00  0.00     0.441 C
HETATM    3  O2  UNL     1     -14.706  14.879 -51.014  1.00  0.00    -0.226 OA
HETATM    4  N4  UNL     1     -13.401  16.421 -49.809  1.00  0.00    -0.167 N
ATOM      5  H4  UNL     1     -13.400  17.200 -49.150  1.00  0.00     0.208 HD
ENDROOT
BRANCH   4   6
HETATM    6  N5  UNL     1     -12.273  16.034 -50.360  1.00  0.00    -0.275 NA
BRANCH   6   7
HETATM    7  C10 UNL     1     -11.054  15.730 -50.901  1.00  0.00     0.315 C
BRANCH   7   8
HETATM    8  O3  UNL     1     -11.011  15.522 -52.251  1.00  0.00    -0.320 OA
ATOM      9  H3  UNL     1     -10.415  16.067 -52.751  1.00  0.00     0.222 HD
ENDBRANCH   7   8
BRANCH   7  10
HETATM   10  N6  UNL     1      -9.793  15.546 -50.375  1.00  0.00    -0.337 N
ATOM     11  H6  UNL     1      -9.369  14.618 -50.402  1.00  0.00     0.164 HD
BRANCH  10  12
HETATM   12  C11 UNL     1      -9.048  16.663 -49.775  1.00  0.00     0.108 C
HETATM   13  C12 UNL     1     -10.029  17.560 -49.172  1.00  0.00     0.046 C
HETATM   14  C13 UNL     1      -9.856  19.049 -49.419  1.00  0.00     0.128 C
HETATM   15  N7  UNL     1      -9.570  19.192 -50.826  1.00  0.00    -0.345 N
HETATM   16  C14 UNL     1      -9.834  19.668 -52.118  1.00  0.00     0.222 C
HETATM   17  C16 UNL     1      -8.376  18.557 -51.316  1.00  0.00     0.116 C
HETATM   18  O4  UNL     1     -10.416  20.627 -52.693  1.00  0.00    -0.273 OA
HETATM   19  C15 UNL     1      -9.087  18.475 -52.690  1.00  0.00     0.130 C
HETATM   20  C17 UNL     1      -8.054  17.244 -50.750  1.00  0.00     0.128 C
HETATM   21 CL1  UNL     1      -6.411  17.317 -50.102  1.00  0.00    -0.121 Cl
ENDBRANCH  10  12
ENDBRANCH   7  10
ENDBRANCH   6   7
ENDBRANCH   4   6
BRANCH   1  22
HETATM   22  N2  UNL     1     -16.715  16.445 -48.592  1.00  0.00    -0.204 N
ATOM     23  H2  UNL     1     -17.080  15.849 -47.847  1.00  0.00     0.204 HD
BRANCH  22  24
HETATM   24  C8  UNL     1     -17.272  17.750 -48.908  1.00  0.00     0.197 C
HETATM   25  S1  UNL     1     -16.649  18.979 -47.876  1.00  0.00    -0.039 SA
BRANCH  24  26
HETATM   26  N1  UNL     1     -18.148  18.137 -49.865  1.00  0.00    -0.365 N
ATOM     27  H1  UNL     1     -19.097  18.184 -49.497  1.00  0.00     0.161 HD
BRANCH  26  28
HETATM   28  C7  UNL     1     -18.115  18.500 -51.244  1.00  0.00     0.124 C
BRANCH  28  29
HETATM   29  C6  UNL     1     -19.253  19.334 -51.749  1.00  0.00     0.046 C
BRANCH  29  30
HETATM   30  C5  UNL     1     -20.452  18.313 -51.831  1.00  0.00     0.170 C
BRANCH  30  31
HETATM   31  O1  UNL     1     -21.185  18.669 -50.688  1.00  0.00    -0.381 OA
BRANCH  31  32
HETATM   32  C2  UNL     1     -22.511  18.896 -50.884  1.00  0.00     0.050 C
HETATM   33  C1  UNL     1     -22.959  20.304 -50.544  1.00  0.00     0.045 C
HETATM   34  C3  UNL     1     -23.304  17.921 -49.992  1.00  0.00     0.045 C
HETATM   35  C4  UNL     1     -22.944  18.564 -52.315  1.00  0.00     0.045 C
ENDBRANCH  31  32
ENDBRANCH  30  31
ENDBRANCH  29  30
ENDBRANCH  28  29
ENDBRANCH  26  28
ENDBRANCH  24  26
ENDBRANCH  22  24
ENDBRANCH   1  22
TORSDOF 13
ENDMDL