MODEL 1
REMARK VINA RESULT: -10.107196511      0.000      0.000
REMARK  5 active torsions:
REMARK  status: ('A' for Active; 'I' for Inactive)
REMARK       I    between atoms: C1_4  and  N3_6
REMARK    1  A    between atoms: C4_9  and  N4_10
REMARK       I    between atoms: N4_10  and  C5_12
REMARK    2  A    between atoms: C5_12  and  C6_14
REMARK    3  A    between atoms: C8_16  and  C9_17
REMARK    4  A    between atoms: C11_21  and  N5_22
REMARK       I    between atoms: N5_22  and  C12_24
REMARK    5  A    between atoms: C12_24  and  C13_26
ROOT
HETATM    1  C6  UNL     1      -9.540  18.760 -51.220  1.00  0.00     0.073 A
HETATM    2  C7  UNL     1      -8.502  17.942 -50.739  1.00  0.00     0.038 A
HETATM    3  C8  UNL     1      -8.600  17.276 -49.553  1.00  0.00     0.044 A
HETATM    4  C10 UNL     1      -9.770  17.417 -48.799  1.00  0.00     0.051 A
HETATM    5  C11 UNL     1     -10.826  18.197 -49.203  1.00  0.00     0.075 A
HETATM    6  C20 UNL     1     -10.640  18.847 -50.439  1.00  0.00     0.158 A
HETATM    7  F1  UNL     1     -11.700  19.599 -50.836  1.00  0.00    -0.203 F
ENDROOT
BRANCH   1   8
HETATM    8  C5  UNL     1      -9.334  19.456 -52.492  1.00  0.00     0.255 C
HETATM    9  N4  UNL     1      -8.402  19.069 -53.450  1.00  0.00    -0.352 N
ATOM     10  H4  UNL     1      -7.800  18.257 -53.311  1.00  0.00     0.163 HD
HETATM   11  O1  UNL     1     -10.088  20.478 -52.685  1.00  0.00    -0.268 OA
BRANCH   9  12
HETATM   12  C4  UNL     1      -8.325  19.891 -54.682  1.00  0.00     0.087 C
HETATM   13  C3  UNL     1      -7.053  20.649 -54.646  1.00  0.00     0.045 C
HETATM   14  C2  UNL     1      -6.411  20.916 -55.951  1.00  0.00     0.127 C
HETATM   15  N3  UNL     1      -7.002  20.311 -57.092  1.00  0.00    -0.356 N
HETATM   16  C1  UNL     1      -6.269  20.235 -58.309  1.00  0.00     0.183 C
HETATM   17  C22 UNL     1      -8.338  19.748 -57.104  1.00  0.00     0.127 C
HETATM   18  N1  UNL     1      -5.303  19.389 -58.398  1.00  0.00    -0.374 N
HETATM   19  N2  UNL     1      -6.624  21.085 -59.371  1.00  0.00    -0.064 NA
ATOM     20  H12 UNL     1      -4.778  19.334 -59.270  1.00  0.00     0.158 HD
ATOM     21  H11 UNL     1      -5.045  18.772 -57.627  1.00  0.00     0.158 HD
HETATM   22  C21 UNL     1      -8.435  18.909 -55.823  1.00  0.00     0.045 C
ENDBRANCH   9  12
ENDBRANCH   1   8
BRANCH   3  23
HETATM   23  C9  UNL     1      -7.539  16.432 -49.050  1.00  0.00     0.209 C
HETATM   24  O2  UNL     1      -7.594  15.185 -49.056  1.00  0.00    -0.644 OA
HETATM   25  O3  UNL     1      -6.406  17.046 -48.536  1.00  0.00    -0.644 OA
ENDBRANCH   3  23
BRANCH   5  26
HETATM   26  N5  UNL     1     -12.022  18.375 -48.487  1.00  0.00    -0.324 N
HETATM   27  C12 UNL     1     -13.190  17.645 -48.657  1.00  0.00     0.232 C
HETATM   28  O4  UNL     1     -13.386  16.712 -49.466  1.00  0.00    -0.272 OA
ATOM     29  H5  UNL     1     -12.033  19.107 -47.777  1.00  0.00     0.169 HD
BRANCH  27  30
HETATM   30  C13 UNL     1     -14.370  18.001 -47.777  1.00  0.00     0.065 C
HETATM   31  C14 UNL     1     -15.245  16.774 -47.659  1.00  0.00     0.023 C
HETATM   32  C15 UNL     1     -16.384  17.058 -46.695  1.00  0.00     0.034 C
HETATM   33  C16 UNL     1     -16.216  18.464 -46.180  1.00  0.00     0.186 C
HETATM   34  C17 UNL     1     -16.276  19.428 -47.344  1.00  0.00     0.034 C
HETATM   35  N6  UNL     1     -14.942  18.544 -45.484  1.00  0.00    -0.070 N
HETATM   36  C18 UNL     1     -15.215  19.092 -48.394  1.00  0.00     0.023 C
HETATM   37  C19 UNL     1     -13.867  18.485 -46.457  1.00  0.00     0.252 C
ATOM     38  H62 UNL     1     -14.878  19.367 -44.885  1.00  0.00     0.277 HD
ATOM     39  H61 UNL     1     -14.850  17.832 -44.760  1.00  0.00     0.277 HD
ENDBRANCH  27  30
ENDBRANCH   5  26
TORSDOF 5
ENDMDL