MODEL 3
REMARK VINA RESULT: -6.733703585      1.850      2.153
REMARK  10 active torsions:
REMARK  status: ('A' for Active; 'I' for Inactive)
REMARK    1  A    between atoms: C5_5  and  C16_30
REMARK    2  A    between atoms: C8_10  and  C9_13
REMARK    3  A    between atoms: C9_13  and  N3_14
REMARK       I    between atoms: N3_14  and  C10_16
REMARK    4  A    between atoms: C10_16  and  C11_18
REMARK    5  A    between atoms: C11_18  and  N4_19
REMARK    6  A    between atoms: N4_19  and  N5_20
REMARK    7  A    between atoms: N5_20  and  C12_22
REMARK    8  A    between atoms: C12_22  and  N6_24
REMARK    9  A    between atoms: N6_24  and  C13_26
REMARK   10  A    between atoms: C13_26  and  C14_27
ROOT
HETATM    1  C9  UNL     1     -13.907  18.614 -48.674  1.00  0.00     0.072 C
HETATM    2  C15 UNL     1     -13.387  18.911 -47.354  1.00  0.00     0.045 C
HETATM    3  C16 UNL     1     -12.886  20.239 -47.859  1.00  0.00    -0.027 C
HETATM    4  C17 UNL     1     -11.483  20.524 -47.339  1.00  0.00     0.016 C
HETATM    5  C18 UNL     1     -12.759  19.563 -49.206  1.00  0.00     0.045 C
ENDROOT
BRANCH   1   6
HETATM    6  C8  UNL     1     -15.254  19.337 -48.936  1.00  0.00     0.205 C
HETATM    7  N1  UNL     1     -16.009  19.537 -47.758  1.00  0.00    -0.379 N
HETATM    8  C7  UNL     1     -16.529  18.421 -47.100  1.00  0.00     0.067 C
ATOM      9  H1  UNL     1     -16.171  20.477 -47.396  1.00  0.00     0.160 HD
HETATM   10  C5  UNL     1     -16.157  17.072 -47.726  1.00  0.00    -0.003 C
HETATM   11  C4  UNL     1     -16.949  16.816 -48.936  1.00  0.00     0.045 C
HETATM   12  C6  UNL     1     -16.668  16.055 -46.677  1.00  0.00     0.021 C
HETATM   13  C2  UNL     1     -17.058  17.968 -49.900  1.00  0.00     0.021 C
HETATM   14  C1  UNL     1     -18.318  18.816 -49.644  1.00  0.00     0.037 C
HETATM   15  C3  UNL     1     -17.359  17.302 -51.253  1.00  0.00     0.037 C
HETATM   16  N2  UNL     1     -15.878  18.710 -50.044  1.00  0.00    -0.392 N
ATOM     17  H2  UNL     1     -15.457  18.802 -50.968  1.00  0.00     0.156 HD
ENDBRANCH   1   6
BRANCH   1  18
HETATM   18  N3  UNL     1     -13.796  17.363 -49.343  1.00  0.00    -0.347 N
HETATM   19  C10 UNL     1     -12.656  16.651 -49.624  1.00  0.00     0.234 C
HETATM   20  O1  UNL     1     -11.528  16.990 -49.272  1.00  0.00    -0.272 OA
ATOM     21  H3  UNL     1     -14.673  16.942 -49.651  1.00  0.00     0.163 HD
BRANCH  19  22
HETATM   22  C11 UNL     1     -12.790  15.387 -50.444  1.00  0.00     0.237 C
BRANCH  22  23
HETATM   23  N4  UNL     1     -11.468  15.105 -51.046  1.00  0.00    -0.130 NA
BRANCH  23  24
HETATM   24  N5  UNL     1     -11.359  15.646 -52.291  1.00  0.00    -0.280 N
ATOM     25  H5  UNL     1     -12.047  15.228 -52.918  1.00  0.00     0.184 HD
BRANCH  24  26
HETATM   26  C12 UNL     1     -10.611  16.581 -52.965  1.00  0.00     0.183 C
HETATM   27  S1  UNL     1      -9.584  17.512 -51.979  1.00  0.00    -0.040 SA
BRANCH  26  28
HETATM   28  N6  UNL     1     -10.519  16.924 -54.322  1.00  0.00    -0.365 N
ATOM     29  H6  UNL     1     -11.372  16.892 -54.879  1.00  0.00     0.161 HD
BRANCH  28  30
HETATM   30  C13 UNL     1      -9.295  17.319 -54.983  1.00  0.00     0.133 C
BRANCH  30  31
HETATM   31  C14 UNL     1      -9.347  16.774 -56.437  1.00  0.00     0.104 C
HETATM   32 BR1  UNL     1     -10.244  15.060 -56.427  1.00  0.00    -0.095 Br
ENDBRANCH  30  31
ENDBRANCH  28  30
ENDBRANCH  26  28
ENDBRANCH  24  26
ENDBRANCH  23  24
ENDBRANCH  22  23
ENDBRANCH  19  22
ENDBRANCH   1  18
TORSDOF 10
ENDMDL