MODEL 5
REMARK VINA RESULT: -10.540147372      1.215      1.249
REMARK  6 active torsions:
REMARK  status: ('A' for Active; 'I' for Inactive)
REMARK    1  A    between atoms: C1_2  and  C2_4
REMARK    2  A    between atoms: C8_10  and  N2_11
REMARK       I    between atoms: N2_11  and  C9_13
REMARK    3  A    between atoms: C9_13  and  C10_15
REMARK    4  A    between atoms: C12_21  and  C13_22
REMARK       I    between atoms: C13_22  and  N5_24
REMARK    5  A    between atoms: N5_24  and  N6_25
REMARK       I    between atoms: N6_25  and  C14_27
REMARK    6  A    between atoms: C14_27  and  C15_29
ROOT
HETATM    1  C10 UNL     1     -13.799  18.350 -47.352  1.00  0.00     0.135 A
HETATM    2  N3  UNL     1     -13.887  18.164 -45.923  1.00  0.00    -0.346 N
ATOM      3  H3  UNL     1     -13.173  17.760 -45.317  1.00  0.00     0.167 HD
HETATM    4  C11 UNL     1     -15.070  18.617 -45.550  1.00  0.00     0.181 A
HETATM    5  N4  UNL     1     -15.729  19.068 -46.648  1.00  0.00    -0.345 N
ATOM      6  H4  UNL     1     -16.663  19.477 -46.682  1.00  0.00     0.167 HD
HETATM    7  C12 UNL     1     -14.879  18.856 -47.695  1.00  0.00     0.151 A
ENDROOT
BRANCH   1   8
HETATM    8  C9  UNL     1     -12.431  18.001 -47.824  1.00  0.00     0.274 C
HETATM    9  N2  UNL     1     -12.184  18.394 -49.133  1.00  0.00    -0.328 N
ATOM     10  H2  UNL     1     -13.003  18.650 -49.684  1.00  0.00     0.168 HD
HETATM   11  O2  UNL     1     -11.634  17.466 -47.092  1.00  0.00    -0.266 OA
BRANCH   9  12
HETATM   12  C8  UNL     1     -10.951  18.484 -49.792  1.00  0.00    -0.002 C
HETATM   13  C6  UNL     1      -9.961  19.465 -50.056  1.00  0.00     0.033 C
HETATM   14  C5  UNL     1      -9.911  19.475 -51.681  1.00  0.00     0.015 C
HETATM   15  C7  UNL     1      -8.501  19.185 -49.777  1.00  0.00     0.029 C
HETATM   16  C4  UNL     1      -9.721  18.087 -52.173  1.00  0.00    -0.012 C
HETATM   17  C3  UNL     1      -8.260  17.719 -51.861  1.00  0.00     0.023 C
HETATM   18  C20 UNL     1     -10.538  16.943 -51.613  1.00  0.00     0.015 C
HETATM   19  C2  UNL     1      -8.149  17.835 -50.360  1.00  0.00     0.040 C
HETATM   20  C21 UNL     1      -8.999  16.829 -49.665  1.00  0.00     0.029 C
HETATM   21  C19 UNL     1     -10.388  17.083 -50.027  1.00  0.00     0.033 C
BRANCH  19  22
HETATM   22  C1  UNL     1      -6.700  17.516 -50.089  1.00  0.00     0.239 C
HETATM   23  N1  UNL     1      -6.367  16.832 -48.845  1.00  0.00    -0.061 NA
HETATM   24  O1  UNL     1      -5.815  17.857 -50.903  1.00  0.00    -0.276 OA
ENDBRANCH  19  22
ENDBRANCH   9  12
ENDBRANCH   1   8
BRANCH   7  25
HETATM   25  C13 UNL     1     -15.379  19.340 -49.151  1.00  0.00     0.364 C
HETATM   26  O3  UNL     1     -14.564  20.207 -49.435  1.00  0.00    -0.247 OA
HETATM   27  N5  UNL     1     -16.430  18.697 -49.495  1.00  0.00    -0.277 NA
BRANCH  27  28
HETATM   28  N6  UNL     1     -17.586  18.049 -49.954  1.00  0.00    -0.194 N
HETATM   29  C14 UNL     1     -18.096  18.511 -51.172  1.00  0.00     0.297 C
HETATM   30  O4  UNL     1     -17.650  19.474 -51.805  1.00  0.00    -0.263 OA
ATOM     31  H6  UNL     1     -18.026  17.291 -49.433  1.00  0.00     0.205 HD
BRANCH  29  32
HETATM   32  C15 UNL     1     -19.196  17.844 -51.837  1.00  0.00     0.106 A
HETATM   33  C16 UNL     1     -20.385  18.240 -52.431  1.00  0.00     0.079 A
HETATM   34  C17 UNL     1     -21.172  17.085 -52.687  1.00  0.00     0.134 A
HETATM   35  F1  UNL     1     -22.395  17.091 -53.230  1.00  0.00    -0.205 F
HETATM   36  C18 UNL     1     -20.466  16.023 -52.264  1.00  0.00     0.130 A
HETATM   37  N7  UNL     1     -19.303  16.443 -51.764  1.00  0.00    -0.358 N
ATOM     38  H7  UNL     1     -18.585  15.829 -51.379  1.00  0.00     0.165 HD
ENDBRANCH  29  32
ENDBRANCH  27  28
ENDBRANCH   7  25
TORSDOF 6
ENDMDL