MODEL 3
REMARK VINA RESULT: -6.426087958      1.443      1.926
REMARK  7 active torsions:
REMARK  status: ('A' for Active; 'I' for Inactive)
REMARK    1  A    between atoms: C2_4  and  N2_5
REMARK    2  A    between atoms: C2_4  and  C17_34
REMARK    3  A    between atoms: N2_5  and  C3_7
REMARK    4  A    between atoms: C3_7  and  C4_8
REMARK    5  A    between atoms: C13_20  and  C14_21
REMARK    6  A    between atoms: C15_24  and  N4_25
REMARK       I    between atoms: N4_25  and  C16_27
REMARK       I    between atoms: C16_27  and  N5_29
REMARK    7  A    between atoms: N5_29  and  N6_31
ROOT
HETATM    1  C4  UNL     1     -10.774  16.609 -50.960  1.00  0.00     0.036 C
HETATM    2  C5  UNL     1      -9.909  15.635 -50.139  1.00  0.00     0.111 C
HETATM    3  C6  UNL     1      -9.164  16.336 -49.066  1.00  0.00     0.218 C
HETATM    4  O1  UNL     1      -9.787  17.247 -48.443  1.00  0.00    -0.274 OA
HETATM    5  N3  UNL     1      -7.835  16.084 -48.677  1.00  0.00    -0.361 N
ATOM      6  H3  UNL     1      -7.674  16.033 -47.671  1.00  0.00     0.162 HD
HETATM    7  C7  UNL     1      -6.675  15.888 -49.500  1.00  0.00     0.122 C
HETATM    8  C8  UNL     1      -5.767  17.060 -49.610  1.00  0.00     0.020 C
HETATM    9  C9  UNL     1      -5.650  17.665 -51.019  1.00  0.00     0.002 C
HETATM   10  C10 UNL     1      -7.075  17.959 -51.421  1.00  0.00     0.000 C
HETATM   11  C11 UNL     1      -7.299  18.549 -52.769  1.00  0.00     0.001 C
HETATM   12  C12 UNL     1      -8.488  18.020 -53.473  1.00  0.00     0.017 C
HETATM   13  C13 UNL     1      -9.845  18.085 -52.879  1.00  0.00     0.110 C
HETATM   14  C15 UNL     1     -10.327  16.775 -52.360  1.00  0.00     0.106 C
ENDROOT
BRANCH   1  15
HETATM   15  C3  UNL     1     -12.125  15.907 -51.014  1.00  0.00     0.128 C
BRANCH  15  16
HETATM   16  N2  UNL     1     -12.764  15.774 -49.753  1.00  0.00    -0.379 N
ATOM     17  H2  UNL     1     -12.620  14.945 -49.176  1.00  0.00     0.160 HD
BRANCH  16  18
HETATM   18  C2  UNL     1     -13.640  16.865 -49.304  1.00  0.00     0.076 C
HETATM   19  N1  UNL     1     -14.873  16.750 -49.398  1.00  0.00    -0.384 N
HETATM   20  C1  UNL     1     -16.037  17.447 -49.134  1.00  0.00     0.147 C
ATOM     21  H1  UNL     1     -15.102  15.843 -49.803  1.00  0.00     0.160 HD
BRANCH  18  22
HETATM   22  C17 UNL     1     -12.938  18.044 -48.788  1.00  0.00     0.055 C
HETATM   23  C18 UNL     1     -13.624  19.374 -48.771  1.00  0.00     0.032 C
HETATM   24  C19 UNL     1     -13.059  19.626 -47.366  1.00  0.00     0.084 C
HETATM   25 CL1  UNL     1     -11.474  20.394 -47.366  1.00  0.00    -0.125 Cl
HETATM   26  C20 UNL     1     -12.982  18.098 -47.253  1.00  0.00     0.032 C
ENDBRANCH  18  22
ENDBRANCH  16  18
ENDBRANCH  15  16
ENDBRANCH   1  15
BRANCH  14  27
HETATM   27  N4  UNL     1     -11.282  16.163 -53.305  1.00  0.00    -0.336 N
HETATM   28  C16 UNL     1     -10.915  15.671 -54.576  1.00  0.00     0.334 C
HETATM   29  O4  UNL     1      -9.746  15.702 -55.034  1.00  0.00    -0.246 OA
HETATM   30  N5  UNL     1     -11.885  15.094 -55.435  1.00  0.00    -0.258 N
ATOM     31  H5  UNL     1     -12.846  15.051 -55.099  1.00  0.00     0.191 HD
ATOM     32  H4  UNL     1     -12.260  16.092 -53.024  1.00  0.00     0.164 HD
BRANCH  30  33
HETATM   33  N6  UNL     1     -11.625  14.589 -56.689  1.00  0.00    -0.341 N
ATOM     34  H62 UNL     1     -11.400  15.268 -57.416  1.00  0.00     0.177 HD
ATOM     35  H61 UNL     1     -11.643  13.599 -56.934  1.00  0.00     0.177 HD
ENDBRANCH  30  33
ENDBRANCH  14  27
BRANCH  13  36
HETATM   36  C14 UNL     1     -10.186  19.290 -52.150  1.00  0.00     0.179 C
HETATM   37  O2  UNL     1     -10.459  20.315 -52.791  1.00  0.00    -0.648 OA
HETATM   38  O3  UNL     1     -10.251  19.467 -50.799  1.00  0.00    -0.648 OA
ENDBRANCH  13  36
TORSDOF 7
ENDMDL