MODEL 4
REMARK VINA RESULT: -9.862302101      1.573      1.828
REMARK  5 active torsions:
REMARK  status: ('A' for Active; 'I' for Inactive)
REMARK    1  A    between atoms: N3_8  and  C3_10
REMARK    2  A    between atoms: C3_10  and  C4_11
REMARK    3  A    between atoms: N5_27  and  N6_29
REMARK       I    between atoms: N6_29  and  C17_31
REMARK    4  A    between atoms: C17_31  and  C18_33
REMARK    5  A    between atoms: C18_33  and  C19_34
ROOT
HETATM    1  N1  UNL     1      -9.220  18.706 -53.882  1.00  0.00    -0.234 N
ATOM      2  H11 UNL     1      -8.406  18.909 -54.461  1.00  0.00     0.174 HD
ATOM      3  H12 UNL     1     -10.210  18.768 -54.117  1.00  0.00     0.174 HD
HETATM    4  C1  UNL     1      -9.007  18.311 -52.671  1.00  0.00     0.692 C
HETATM    5  N2  UNL     1     -10.151  18.025 -51.857  1.00  0.00    -0.023 N
ATOM      6  H2  UNL     1     -11.038  17.900 -52.345  1.00  0.00     0.203 HD
HETATM    7  C2  UNL     1     -10.177  17.896 -50.426  1.00  0.00     0.693 C
HETATM    8  N3  UNL     1     -11.317  18.200 -49.910  1.00  0.00    -0.225 N
ATOM      9  H3  UNL     1     -12.056  18.491 -50.549  1.00  0.00     0.177 HD
HETATM   10  N4  UNL     1      -9.145  17.493 -49.563  1.00  0.00    -0.185 N
ATOM     11  H4  UNL     1      -9.425  17.208 -48.626  1.00  0.00     0.184 HD
HETATM   12  C14 UNL     1      -7.747  17.437 -49.850  1.00  0.00     0.121 C
HETATM   13  C15 UNL     1      -6.978  17.106 -48.831  1.00  0.00     0.222 C
HETATM   14  F1  UNL     1      -5.638  17.020 -48.979  1.00  0.00    -0.217 F
HETATM   15  C16 UNL     1      -7.093  17.701 -51.126  1.00  0.00     0.165 C
HETATM   16  N5  UNL     1      -5.839  17.405 -51.130  1.00  0.00    -0.281 N
ATOM     17  H5  UNL     1      -5.427  17.027 -50.277  1.00  0.00     0.188 HD
HETATM   18  N8  UNL     1      -7.620  18.225 -52.341  1.00  0.00    -0.173 N
ATOM     19  H8  UNL     1      -6.953  18.567 -53.033  1.00  0.00     0.186 HD
ENDROOT
BRANCH  16  20
HETATM   20  N6  UNL     1      -5.017  17.576 -52.244  1.00  0.00    -0.268 N
HETATM   21  C17 UNL     1      -3.709  18.089 -52.026  1.00  0.00     0.236 C
HETATM   22  O1  UNL     1      -3.322  18.374 -50.871  1.00  0.00    -0.272 OA
ATOM     23  H6  UNL     1      -5.343  17.341 -53.183  1.00  0.00     0.190 HD
BRANCH  21  24
HETATM   24  C18 UNL     1      -2.870  18.255 -53.236  1.00  0.00     0.109 C
BRANCH  24  25
HETATM   25  C19 UNL     1      -3.398  19.439 -54.015  1.00  0.00    -0.003 C
HETATM   26  C20 UNL     1      -2.954  20.730 -53.380  1.00  0.00     0.032 C
HETATM   27  C21 UNL     1      -3.244  21.941 -54.209  1.00  0.00     0.232 C
HETATM   28  N7  UNL     1      -3.223  21.647 -55.634  1.00  0.00    -0.075 N
HETATM   29  C22 UNL     1      -2.313  20.550 -55.913  1.00  0.00     0.232 C
ATOM     30  H72 UNL     1      -4.158  21.466 -55.997  1.00  0.00     0.277 HD
ATOM     31  H71 UNL     1      -3.002  22.474 -56.188  1.00  0.00     0.277 HD
HETATM   32  C23 UNL     1      -3.030  19.296 -55.441  1.00  0.00     0.032 C
ENDBRANCH  24  25
ENDBRANCH  21  24
ENDBRANCH  16  20
BRANCH   8  33
HETATM   33  C3  UNL     1     -11.635  18.166 -48.520  1.00  0.00     0.147 C
BRANCH  33  34
HETATM   34  C4  UNL     1     -13.144  18.138 -48.386  1.00  0.00    -0.023 C
HETATM   35  C5  UNL     1     -13.730  16.992 -49.197  1.00  0.00     0.015 C
HETATM   36  C6  UNL     1     -15.229  17.005 -49.030  1.00  0.00    -0.013 C
HETATM   37  C7  UNL     1     -15.624  16.838 -47.569  1.00  0.00     0.009 C
HETATM   38  C11 UNL     1     -15.818  18.324 -49.487  1.00  0.00     0.009 C
HETATM   39  C8  UNL     1     -15.012  17.953 -46.774  1.00  0.00    -0.013 C
HETATM   40  C9  UNL     1     -15.469  19.319 -47.225  1.00  0.00     0.009 C
HETATM   41  C13 UNL     1     -13.517  17.892 -46.947  1.00  0.00     0.015 C
HETATM   42  C10 UNL     1     -15.207  19.454 -48.695  1.00  0.00    -0.013 C
HETATM   43  C12 UNL     1     -13.718  19.420 -48.922  1.00  0.00     0.015 C
ENDBRANCH  33  34
ENDBRANCH   8  33
TORSDOF 5
ENDMDL