MODEL 4
REMARK VINA RESULT: -8.088034715      4.321      8.838
REMARK  10 active torsions:
REMARK  status: ('A' for Active; 'I' for Inactive)
REMARK    1  A    between atoms: C1_2  and  C2_3
REMARK       I    between atoms: C1_2  and  N3_24
REMARK    2  A    between atoms: C2_3  and  N1_4
REMARK    3  A    between atoms: N1_4  and  C3_6
REMARK    4  A    between atoms: C3_6  and  N2_8
REMARK    5  A    between atoms: N2_8  and  C4_10
REMARK    6  A    between atoms: C4_10  and  O2_11
REMARK    7  A    between atoms: C4_10  and  C5_13
REMARK    8  A    between atoms: C11_19  and  O3_20
REMARK    9  A    between atoms: N3_24  and  C14_26
REMARK   10  A    between atoms: C17_29  and  C18_30
ROOT
HETATM    1  C3  UNL     1     -11.285  19.619 -47.300  1.00  0.00     0.170 C
HETATM    2  S1  UNL     1     -11.641  21.221 -47.503  1.00  0.00    -0.041 SA
ENDROOT
BRANCH   1   3
HETATM    3  N1  UNL     1     -11.480  18.955 -46.063  1.00  0.00    -0.358 N
ATOM      4  H1  UNL     1     -11.011  19.328 -45.238  1.00  0.00     0.162 HD
BRANCH   3   5
HETATM    5  C2  UNL     1     -12.300  17.787 -45.902  1.00  0.00     0.224 C
BRANCH   5   6
HETATM    6  C1  UNL     1     -13.689  17.913 -46.335  1.00  0.00     0.235 C
HETATM    7  O1  UNL     1     -14.470  18.529 -45.522  1.00  0.00    -0.272 OA
HETATM    8  N3  UNL     1     -14.141  17.399 -47.551  1.00  0.00    -0.354 N
ATOM      9  H3  UNL     1     -13.464  16.925 -48.150  1.00  0.00     0.163 HD
BRANCH   8  10
HETATM   10  C14 UNL     1     -15.511  17.497 -48.019  1.00  0.00     0.102 C
HETATM   11  C15 UNL     1     -15.621  16.946 -49.434  1.00  0.00     0.028 C
HETATM   12  C16 UNL     1     -17.074  16.805 -49.739  1.00  0.00     0.017 C
HETATM   13  C17 UNL     1     -17.907  18.019 -49.510  1.00  0.00     0.088 C
HETATM   14  C19 UNL     1     -17.474  18.905 -48.387  1.00  0.00     0.037 C
HETATM   15  C20 UNL     1     -16.013  18.918 -48.097  1.00  0.00     0.106 C
HETATM   16 CL1  UNL     1     -15.088  19.897 -49.256  1.00  0.00    -0.123 Cl
BRANCH  13  17
HETATM   17  C18 UNL     1     -18.142  18.751 -50.773  1.00  0.00     0.177 C
HETATM   18  O4  UNL     1     -19.159  19.468 -50.874  1.00  0.00    -0.648 OA
HETATM   19  O5  UNL     1     -17.275  18.668 -51.842  1.00  0.00    -0.648 OA
ENDBRANCH  13  17
ENDBRANCH   8  10
ENDBRANCH   5   6
ENDBRANCH   3   5
ENDBRANCH   1   3
BRANCH   1  20
HETATM   20  N2  UNL     1     -10.786  18.900 -48.415  1.00  0.00    -0.340 N
ATOM     21  H2  UNL     1     -10.502  17.928 -48.293  1.00  0.00     0.164 HD
BRANCH  20  22
HETATM   22  C4  UNL     1     -10.669  19.509 -49.724  1.00  0.00     0.231 C
BRANCH  22  23
HETATM   23  O2  UNL     1     -11.857  19.613 -50.400  1.00  0.00    -0.376 OA
ATOM     24  H2  UNL     1     -11.761  19.711 -51.340  1.00  0.00     0.212 HD
ENDBRANCH  22  23
BRANCH  22  25
HETATM   25  C5  UNL     1      -9.664  18.816 -50.573  1.00  0.00     0.035 C
HETATM   26  C6  UNL     1      -9.514  19.467 -51.953  1.00  0.00     0.021 C
HETATM   27  C7  UNL     1      -8.950  18.263 -52.723  1.00  0.00    -0.010 C
HETATM   28  C8  UNL     1      -7.651  17.793 -52.150  1.00  0.00     0.009 C
HETATM   29  C12 UNL     1     -10.024  17.228 -52.374  1.00  0.00     0.043 C
HETATM   30  C9  UNL     1      -7.710  17.559 -50.677  1.00  0.00    -0.010 C
HETATM   31  C10 UNL     1      -8.841  16.570 -50.360  1.00  0.00     0.043 C
HETATM   32  C13 UNL     1      -8.273  18.808 -49.981  1.00  0.00     0.021 C
HETATM   33  C11 UNL     1     -10.037  17.398 -50.847  1.00  0.00     0.070 C
BRANCH  33  34
HETATM   34  O3  UNL     1     -11.218  16.996 -50.289  1.00  0.00    -0.389 OA
ATOM     35  H3  UNL     1     -11.131  16.408 -49.548  1.00  0.00     0.210 HD
ENDBRANCH  33  34
ENDBRANCH  22  25
ENDBRANCH  20  22
ENDBRANCH   1  20
TORSDOF 10
ENDMDL