MODEL 4
REMARK VINA RESULT: -7.313651922      2.968      8.873
REMARK  8 active torsions:
REMARK  status: ('A' for Active; 'I' for Inactive)
REMARK    1  A    between atoms: C6_6  and  O1_7
REMARK    2  A    between atoms: C6_6  and  C7_9
REMARK    3  A    between atoms: C7_9  and  O2_10
REMARK    4  A    between atoms: N1_12  and  O3_14
REMARK    5  A    between atoms: C11_19  and  N2_20
REMARK       I    between atoms: N2_20  and  C12_22
REMARK    6  A    between atoms: C12_22  and  C13_24
REMARK    7  A    between atoms: C13_24  and  C15_27
REMARK       I    between atoms: C15_27  and  N3_29
REMARK    8  A    between atoms: N3_29  and  C16_31
REMARK       I    between atoms: N4_34  and  C19_35
ROOT
HETATM    1  N2  UNL     1     -11.407  18.483 -48.711  1.00  0.00    -0.352 N
ATOM      2  H2  UNL     1     -10.959  18.864 -47.876  1.00  0.00     0.163 HD
HETATM    3  C12 UNL     1     -10.605  18.103 -49.815  1.00  0.00     0.267 C
HETATM    4  O4  UNL     1     -11.152  17.627 -50.855  1.00  0.00    -0.269 OA
ENDROOT
BRANCH   1   5
HETATM    5  C11 UNL     1     -12.849  18.342 -48.740  1.00  0.00     0.092 C
HETATM    6  C2  UNL     1     -13.430  19.684 -48.981  1.00  0.00     0.005 C
HETATM    7  C1  UNL     1     -12.641  20.841 -48.399  1.00  0.00     0.012 C
HETATM    8  C3  UNL     1     -14.909  19.806 -48.718  1.00  0.00     0.014 C
HETATM    9  C4  UNL     1     -15.563  18.582 -49.238  1.00  0.00     0.025 C
HETATM   10  C5  UNL     1     -16.909  18.973 -49.836  1.00  0.00     0.013 C
HETATM   11  C6  UNL     1     -15.784  17.482 -48.234  1.00  0.00     0.127 C
HETATM   12  C8  UNL     1     -14.591  16.823 -47.698  1.00  0.00     0.053 C
HETATM   13  C9  UNL     1     -13.315  17.561 -47.570  1.00  0.00     0.008 C
HETATM   14  C10 UNL     1     -13.098  18.242 -46.237  1.00  0.00     0.012 C
BRANCH  11  15
HETATM   15  O1  UNL     1     -16.499  16.501 -48.985  1.00  0.00    -0.381 OA
ATOM     16  H1  UNL     1     -16.947  16.002 -48.312  1.00  0.00     0.211 HD
ENDBRANCH  11  15
BRANCH  11  17
HETATM   17  C7  UNL     1     -16.750  17.862 -47.179  1.00  0.00     0.171 C
HETATM   18  N1  UNL     1     -16.776  17.177 -46.099  1.00  0.00    -0.248 N
ATOM     19  H1  UNL     1     -16.125  16.395 -46.017  1.00  0.00     0.196 HD
BRANCH  17  20
HETATM   20  O2  UNL     1     -17.624  18.921 -47.307  1.00  0.00    -0.346 OA
ATOM     21  H2  UNL     1     -18.563  18.834 -47.190  1.00  0.00     0.219 HD
ENDBRANCH  17  20
BRANCH  18  22
HETATM   22  O3  UNL     1     -17.619  17.418 -45.041  1.00  0.00    -0.288 OA
ATOM     23  H3  UNL     1     -17.580  16.968 -44.206  1.00  0.00     0.244 HD
ENDBRANCH  18  22
ENDBRANCH  11  17
ENDBRANCH   1   5
BRANCH   3  24
HETATM   24  C13 UNL     1      -9.130  18.234 -49.823  1.00  0.00     0.259 C
HETATM   25  C14 UNL     1      -8.697  19.665 -49.584  1.00  0.00     0.073 C
HETATM   26  F1  UNL     1      -8.552  17.471 -48.845  1.00  0.00    -0.222 F
BRANCH  24  27
HETATM   27  C15 UNL     1      -8.613  17.729 -51.127  1.00  0.00     0.267 C
HETATM   28  O5  UNL     1      -8.127  16.579 -51.264  1.00  0.00    -0.269 OA
HETATM   29  N3  UNL     1      -8.672  18.575 -52.250  1.00  0.00    -0.353 N
ATOM     30  H3  UNL     1      -9.068  19.508 -52.137  1.00  0.00     0.163 HD
BRANCH  29  31
HETATM   31  C16 UNL     1      -8.191  18.177 -53.569  1.00  0.00     0.087 C
HETATM   32  C17 UNL     1      -7.319  19.218 -54.191  1.00  0.00     0.045 C
HETATM   33  C18 UNL     1      -7.923  19.842 -55.434  1.00  0.00     0.127 C
HETATM   34  N4  UNL     1      -8.331  18.820 -56.371  1.00  0.00    -0.356 N
HETATM   35  C19 UNL     1      -8.244  19.015 -57.754  1.00  0.00     0.183 C
HETATM   36  C20 UNL     1      -8.841  17.570 -55.851  1.00  0.00     0.127 C
HETATM   37  N5  UNL     1      -7.296  19.723 -58.269  1.00  0.00    -0.374 N
HETATM   38  N6  UNL     1      -9.191  18.444 -58.679  1.00  0.00    -0.064 NA
ATOM     39  H52 UNL     1      -6.627  20.127 -57.614  1.00  0.00     0.158 HD
ATOM     40  H51 UNL     1      -7.234  19.866 -59.277  1.00  0.00     0.158 HD
HETATM   41  C21 UNL     1      -9.383  17.859 -54.466  1.00  0.00     0.045 C
ENDBRANCH  29  31
ENDBRANCH  24  27
ENDBRANCH   3  24
TORSDOF 8
ENDMDL