MODEL 3
REMARK VINA RESULT: -7.162504343      1.724      2.507
REMARK  9 active torsions:
REMARK  status: ('A' for Active; 'I' for Inactive)
REMARK    1  A    between atoms: C2_2  and  C3_3
REMARK    2  A    between atoms: C3_3  and  O1_4
REMARK    3  A    between atoms: C3_3  and  C7_10
REMARK    4  A    between atoms: O1_4  and  C4_5
REMARK       I    between atoms: C4_5  and  N1_7
REMARK    5  A    between atoms: C7_10  and  O3_11
REMARK    6  A    between atoms: C7_10  and  C8_13
REMARK    7  A    between atoms: C10_15  and  C11_16
REMARK    8  A    between atoms: C11_16  and  O4_17
REMARK    9  A    between atoms: C11_16  and  O5_19
ROOT
HETATM    1  C7  UNL     1      15.906   8.556  55.902  1.00  0.00     0.136 C
ENDROOT
BRANCH   1   2
HETATM    2  C3  UNL     1      16.759   9.540  56.160  1.00  0.00     0.116 C
BRANCH   2   3
HETATM    3  C2  UNL     1      16.459  10.653  57.025  1.00  0.00     0.030 C
HETATM    4  C1  UNL     1      16.260  11.862  56.580  1.00  0.00     0.014 C
ENDBRANCH   2   3
BRANCH   2   5
HETATM    5  O1  UNL     1      18.029   9.533  55.583  1.00  0.00    -0.259 OA
BRANCH   5   6
HETATM    6  C4  UNL     1      19.191   9.140  56.202  1.00  0.00     0.367 C
HETATM    7  O2  UNL     1      19.373   7.904  56.374  1.00  0.00    -0.238 OA
HETATM    8  N1  UNL     1      20.178  10.067  56.648  1.00  0.00    -0.336 N
HETATM    9  C5  UNL     1      21.374   9.615  57.318  1.00  0.00     0.154 C
HETATM   10  C6  UNL     1      20.027  11.498  56.443  1.00  0.00     0.154 C
ENDBRANCH   5   6
ENDBRANCH   2   5
ENDBRANCH   1   2
BRANCH   1  11
HETATM   11  O3  UNL     1      16.304   7.262  56.188  1.00  0.00    -0.356 OA
ATOM     12  H3  UNL     1      16.040   6.889  57.021  1.00  0.00     0.218 HD
ENDBRANCH   1  11
BRANCH   1  13
HETATM   13  C8  UNL     1      14.597   8.782  55.350  1.00  0.00     0.136 A
HETATM   14  C9  UNL     1      13.657   9.754  55.675  1.00  0.00     0.074 A
HETATM   15  C10 UNL     1      12.579   9.546  54.858  1.00  0.00     0.089 A
HETATM   16  N2  UNL     1      12.886   8.495  54.092  1.00  0.00    -0.260 N
HETATM   17  O6  UNL     1      14.067   8.065  54.395  1.00  0.00    -0.235 OA
ATOM     18  H2  UNL     1      12.281   8.093  53.376  1.00  0.00     0.194 HD
BRANCH  15  19
HETATM   19  C11 UNL     1      11.321  10.366  54.886  1.00  0.00     0.309 C
BRANCH  19  20
HETATM   20  O4  UNL     1      11.330  11.146  53.725  1.00  0.00    -0.366 OA
ATOM     21  H4  UNL     1      11.351  12.052  54.009  1.00  0.00     0.213 HD
ENDBRANCH  19  20
BRANCH  19  22
HETATM   22  O5  UNL     1      10.216   9.557  54.941  1.00  0.00    -0.360 OA
HETATM   23  C12 UNL     1       9.179   9.979  54.136  1.00  0.00     0.205 C
ENDBRANCH  19  22
ENDBRANCH  15  19
ENDBRANCH   1  13
TORSDOF 9
ENDMDL