MODEL 4
REMARK VINA RESULT: -6.544254445      3.123      7.308
REMARK  5 active torsions:
REMARK  status: ('A' for Active; 'I' for Inactive)
REMARK    1  A    between atoms: N1_2  and  C2_4
REMARK    2  A    between atoms: C3_7  and  C4_8
REMARK    3  A    between atoms: C4_8  and  S1_9
REMARK    4  A    between atoms: S1_9  and  C5_10
REMARK    5  A    between atoms: C7_20  and  O1_21
ROOT
HETATM    1  C4  UNL     1      17.196  10.311  56.051  1.00  0.00     0.142 C
ENDROOT
BRANCH   1   2
HETATM    2  C3  UNL     1      18.648   9.950  56.336  1.00  0.00     0.061 A
HETATM    3  N2  UNL     1      19.305   9.244  55.430  1.00  0.00    -0.337 N
HETATM    4  C2  UNL     1      20.578   8.958  55.621  1.00  0.00     0.146 A
ATOM      5  H2  UNL     1      18.829   8.923  54.587  1.00  0.00     0.168 HD
HETATM    6  S3  UNL     1      20.924   9.677  57.107  1.00  0.00    -0.028 SA
HETATM    7  C7  UNL     1      19.350  10.343  57.434  1.00  0.00     0.136 A
BRANCH   4   8
HETATM    8  N1  UNL     1      21.431   8.296  54.878  1.00  0.00    -0.375 N
HETATM    9  C1  UNL     1      20.970   7.198  54.068  1.00  0.00     0.148 C
ATOM     10  H1  UNL     1      22.417   8.557  54.874  1.00  0.00     0.161 HD
ENDBRANCH   4   8
BRANCH   7  11
HETATM   11  O1  UNL     1      18.987  11.075  58.573  1.00  0.00    -0.347 OA
HETATM   12  C8  UNL     1      18.196  10.414  59.525  1.00  0.00     0.211 C
ENDBRANCH   7  11
ENDBRANCH   1   2
BRANCH   1  13
HETATM   13  S1  UNL     1      16.099   8.940  56.101  1.00  0.00    -0.097 SA
BRANCH  13  14
HETATM   14  C5  UNL     1      14.417   9.410  55.627  1.00  0.00     0.130 A
HETATM   15  N3  UNL     1      13.747  10.421  56.220  1.00  0.00    -0.286 N
HETATM   16  N4  UNL     1      12.580  10.705  55.863  1.00  0.00    -0.279 N
ATOM     17  H3  UNL     1      14.195  10.957  56.963  1.00  0.00     0.188 HD
HETATM   18  C6  UNL     1      12.007   9.993  54.884  1.00  0.00     0.159 A
ATOM     19  H4  UNL     1      12.073  11.468  56.312  1.00  0.00     0.189 HD
HETATM   20  N5  UNL     1      10.810  10.132  54.380  1.00  0.00    -0.379 N
HETATM   21  S2  UNL     1      13.270   8.881  54.515  1.00  0.00    -0.027 SA
ATOM     22  H52 UNL     1      10.062  10.789  54.599  1.00  0.00     0.158 HD
ATOM     23  H51 UNL     1      10.374   9.589  53.634  1.00  0.00     0.158 HD
ENDBRANCH  13  14
ENDBRANCH   1  13
TORSDOF 5
ENDMDL