MODEL 1
REMARK VINA RESULT: -7.149640287      0.000      0.000
REMARK  6 active torsions:
REMARK  status: ('A' for Active; 'I' for Inactive)
REMARK    1  A    between atoms: O1_2  and  C2_3
REMARK    2  A    between atoms: C2_3  and  C3_5
REMARK    3  A    between atoms: C3_5  and  S1_6
REMARK    4  A    between atoms: S1_6  and  C4_7
REMARK    5  A    between atoms: C5_10  and  N2_11
REMARK    6  A    between atoms: C7_18  and  N4_19
ROOT
HETATM    1  C4  UNL     1      13.999  10.877  56.343  1.00  0.00     0.122 A
HETATM    2  N1  UNL     1      14.016  12.136  56.782  1.00  0.00    -0.183 N
ATOM      3  H1  UNL     1      13.137  12.643  56.890  1.00  0.00     0.185 HD
HETATM    4  C5  UNL     1      15.189  12.754  57.089  1.00  0.00     0.677 A
HETATM    5  N3  UNL     1      16.344  12.124  56.960  1.00  0.00    -0.179 N
ATOM      6  H3  UNL     1      17.202  12.619  57.200  1.00  0.00     0.185 HD
HETATM    7  C6  UNL     1      16.431  10.853  56.524  1.00  0.00     0.152 A
HETATM    8  S2  UNL     1      17.853  10.059  56.359  1.00  0.00    -0.057 SA
HETATM    9  C7  UNL     1      15.227  10.230  56.212  1.00  0.00     0.175 A
ENDROOT
BRANCH   1  10
HETATM   10  S1  UNL     1      12.496  10.057  55.959  1.00  0.00    -0.099 SA
BRANCH  10  11
HETATM   11  C3  UNL     1      11.787  10.393  54.367  1.00  0.00     0.191 C
BRANCH  11  12
HETATM   12  C2  UNL     1      10.335  10.162  54.358  1.00  0.00     0.268 C
HETATM   13  O2  UNL     1       9.564  10.878  53.698  1.00  0.00    -0.264 OA
BRANCH  12  14
HETATM   14  O1  UNL     1       9.814   9.117  55.105  1.00  0.00    -0.326 OA
HETATM   15  C1  UNL     1       8.543   8.605  54.744  1.00  0.00     0.213 C
ENDBRANCH  12  14
ENDBRANCH  11  12
ENDBRANCH  10  11
ENDBRANCH   1  10
BRANCH   9  16
HETATM   16  N4  UNL     1      15.224   8.911  55.738  1.00  0.00    -0.110 N
HETATM   17  O3  UNL     1      15.180   8.583  54.543  1.00  0.00    -0.532 OA
HETATM   18  O4  UNL     1      15.278   7.885  56.652  1.00  0.00    -0.532 OA
ENDBRANCH   9  16
BRANCH   4  19
HETATM   19  N2  UNL     1      15.180  13.975  57.517  1.00  0.00    -0.234 N
ATOM     20  H22 UNL     1      14.463  14.265  58.182  1.00  0.00     0.174 HD
ATOM     21  H21 UNL     1      15.885  14.633  57.185  1.00  0.00     0.174 HD
ENDBRANCH   4  19
TORSDOF 6
ENDMDL