MODEL 3
REMARK VINA RESULT: -7.434365864      0.654      1.276
REMARK  8 active torsions:
REMARK  status: ('A' for Active; 'I' for Inactive)
REMARK    1  A    between atoms: O1_2  and  C2_3
REMARK    2  A    between atoms: C2_3  and  C3_5
REMARK    3  A    between atoms: C4_7  and  C5_8
REMARK    4  A    between atoms: C5_8  and  C6_9
REMARK    5  A    between atoms: C6_9  and  C8_12
REMARK    6  A    between atoms: C10_16  and  C11_17
REMARK    7  A    between atoms: C11_17  and  O6_18
REMARK    8  A    between atoms: N2_20  and  O7_22
ROOT
HETATM    1  C6  UNL     1      13.666   9.268  55.298  1.00  0.00     0.266 C
HETATM    2  C7  UNL     1      12.845  10.300  55.984  1.00  0.00     0.087 C
HETATM    3  N1  UNL     1      12.187  11.101  56.511  1.00  0.00    -0.195 NA
ENDROOT
BRANCH   1   4
HETATM    4  C5  UNL     1      14.899   9.292  55.577  1.00  0.00    -0.089 C
BRANCH   4   5
HETATM    5  C4  UNL     1      16.240   9.309  55.900  1.00  0.00     0.120 A
HETATM    6  O3  UNL     1      17.155   8.375  55.675  1.00  0.00    -0.295 OA
HETATM    7  C3  UNL     1      18.331   8.722  56.127  1.00  0.00     0.166 A
HETATM    8  C10 UNL     1      18.283   9.960  56.709  1.00  0.00     0.060 A
HETATM    9  C9  UNL     1      16.941  10.334  56.563  1.00  0.00     0.064 A
BRANCH   7  10
HETATM   10  C2  UNL     1      19.520   7.854  55.998  1.00  0.00     0.318 C
HETATM   11  O2  UNL     1      19.659   6.719  56.411  1.00  0.00    -0.257 OA
BRANCH  10  12
HETATM   12  O1  UNL     1      20.636   8.395  55.316  1.00  0.00    -0.321 OA
HETATM   13  C1  UNL     1      21.115   7.711  54.151  1.00  0.00     0.213 C
ENDBRANCH  10  12
ENDBRANCH   7  10
BRANCH   8  14
HETATM   14  C11 UNL     1      19.279  10.776  57.376  1.00  0.00     0.173 C
HETATM   15  N2  UNL     1      19.181  11.131  58.571  1.00  0.00    -0.247 N
ATOM     16  H2  UNL     1      19.954  11.706  58.907  1.00  0.00     0.196 HD
BRANCH  14  17
HETATM   17  O6  UNL     1      20.409  11.210  56.710  1.00  0.00    -0.344 OA
ATOM     18  H6  UNL     1      20.826  10.673  56.046  1.00  0.00     0.219 HD
ENDBRANCH  14  17
BRANCH  15  19
HETATM   19  O7  UNL     1      18.243  10.888  59.476  1.00  0.00    -0.288 OA
ATOM     20  H7  UNL     1      18.306  10.721  60.409  1.00  0.00     0.244 HD
ENDBRANCH  15  19
ENDBRANCH   8  14
ENDBRANCH   4   5
ENDBRANCH   1   4
BRANCH   1  21
HETATM   21  C8  UNL     1      12.929   8.412  54.421  1.00  0.00     0.203 C
HETATM   22  O4  UNL     1      11.687   8.513  54.330  1.00  0.00    -0.646 OA
HETATM   23  O5  UNL     1      13.559   7.456  53.656  1.00  0.00    -0.646 OA
ENDBRANCH   1  21
TORSDOF 8
ENDMDL