MODEL 3
REMARK VINA RESULT: -5.715296201      4.178      6.949
REMARK  7 active torsions:
REMARK  status: ('A' for Active; 'I' for Inactive)
REMARK    1  A    between atoms: S1_2  and  C2_3
REMARK    2  A    between atoms: C3_6  and  N2_7
REMARK    3  A    between atoms: N2_7  and  N3_8
REMARK    4  A    between atoms: C5_14  and  C6_15
REMARK    5  A    between atoms: C6_15  and  C7_16
REMARK    6  A    between atoms: C7_16  and  O1_17
REMARK    7  A    between atoms: O1_17  and  C8_18
ROOT
HETATM    1  C2  UNL     1      17.943   8.676  56.206  1.00  0.00     0.085 A
HETATM    2  N1  UNL     1      16.844   8.262  55.631  1.00  0.00    -0.321 N
ATOM      3  H1  UNL     1      16.911   7.352  55.177  1.00  0.00     0.169 HD
HETATM    4  C3  UNL     1      15.630   8.856  55.545  1.00  0.00     0.232 A
HETATM    5  C4  UNL     1      15.367  10.114  56.117  1.00  0.00     0.132 A
HETATM    6  S2  UNL     1      13.886  10.792  55.993  1.00  0.00    -0.067 SA
HETATM    7  S3  UNL     1      16.672  10.837  56.921  1.00  0.00    -0.075 SA
HETATM    8  C5  UNL     1      18.071   9.874  56.875  1.00  0.00     0.020 A
ENDROOT
BRANCH   8   9
HETATM    9  C6  UNL     1      19.364  10.245  57.492  1.00  0.00     0.076 C
BRANCH   9  10
HETATM   10  C7  UNL     1      20.019  11.411  56.773  1.00  0.00     0.184 C
BRANCH  10  11
HETATM   11  O1  UNL     1      21.097  10.847  56.039  1.00  0.00    -0.321 OA
BRANCH  11  12
HETATM   12  C8  UNL     1      20.983  10.340  54.772  1.00  0.00     0.254 C
HETATM   13  C9  UNL     1      21.994   9.359  54.300  1.00  0.00     0.126 C
HETATM   14  O2  UNL     1      20.057  10.690  54.036  1.00  0.00    -0.266 OA
ENDBRANCH  11  12
ENDBRANCH  10  11
ENDBRANCH   9  10
ENDBRANCH   8   9
BRANCH   1  15
HETATM   15  S1  UNL     1      19.422   7.607  56.125  1.00  0.00    -0.116 SA
HETATM   16  C1  UNL     1      18.963   5.960  55.585  1.00  0.00     0.097 C
ENDBRANCH   1  15
BRANCH   4  17
HETATM   17  N2  UNL     1      14.709   8.323  54.957  1.00  0.00    -0.312 NA
BRANCH  17  18
HETATM   18  N3  UNL     1      13.785   7.787  54.273  1.00  0.00    -0.278 N
ATOM     19  H32 UNL     1      14.475   7.049  54.416  1.00  0.00     0.191 HD
ATOM     20  H31 UNL     1      13.011   7.413  53.725  1.00  0.00     0.191 HD
ENDBRANCH  17  18
ENDBRANCH   4  17
TORSDOF 7
ENDMDL