MODEL 1
REMARK VINA RESULT: -7.452653648      0.000      0.000
REMARK  5 active torsions:
REMARK  status: ('A' for Active; 'I' for Inactive)
REMARK    1  A    between atoms: C3_5  and  N2_6
REMARK    2  A    between atoms: N2_6  and  C4_8
REMARK    3  A    between atoms: C4_8  and  C5_9
REMARK    4  A    between atoms: C5_9  and  S1_10
REMARK    5  A    between atoms: S1_10  and  C6_11
ROOT
HETATM    1  C5  UNL     1      18.765  10.631  56.260  1.00  0.00     0.101 C
ENDROOT
BRANCH   1   2
HETATM    2  C4  UNL     1      17.327  11.091  56.282  1.00  0.00     0.132 C
BRANCH   2   3
HETATM    3  N2  UNL     1      16.429  10.121  56.856  1.00  0.00    -0.370 N
ATOM      4  H2  UNL     1      16.636   9.648  57.736  1.00  0.00     0.161 HD
BRANCH   3   5
HETATM    5  C3  UNL     1      15.324   9.880  56.179  1.00  0.00     0.145 A
HETATM    6  N1  UNL     1      15.115   8.912  55.288  1.00  0.00    -0.340 N
HETATM    7  C2  UNL     1      13.951   8.828  54.717  1.00  0.00     0.020 A
ATOM      8  H1  UNL     1      15.855   8.249  55.059  1.00  0.00     0.168 HD
HETATM    9  C1  UNL     1      13.603   7.764  53.686  1.00  0.00     0.069 C
HETATM   10  C8  UNL     1      12.997   9.747  55.065  1.00  0.00     0.004 A
HETATM   11  S3  UNL     1      13.829  10.700  56.213  1.00  0.00    -0.057 SA
HETATM   12  C9  UNL     1      11.580   9.873  54.557  1.00  0.00     0.058 C
ENDBRANCH   3   5
ENDBRANCH   2   3
ENDBRANCH   1   2
BRANCH   1  13
HETATM   13  S1  UNL     1      18.777   8.828  56.346  1.00  0.00    -0.102 SA
BRANCH  13  14
HETATM   14  C6  UNL     1      20.145   8.194  55.376  1.00  0.00     0.130 A
HETATM   15  N3  UNL     1      20.428   6.950  55.023  1.00  0.00    -0.286 N
HETATM   16  N4  UNL     1      21.456   6.697  54.324  1.00  0.00    -0.279 N
ATOM     17  H3  UNL     1      19.816   6.189  55.315  1.00  0.00     0.188 HD
HETATM   18  C7  UNL     1      22.246   7.706  53.952  1.00  0.00     0.159 A
ATOM     19  H4  UNL     1      21.675   5.739  54.052  1.00  0.00     0.189 HD
HETATM   20  N5  UNL     1      23.345   7.644  53.233  1.00  0.00    -0.379 N
HETATM   21  S2  UNL     1      21.439   9.047  54.657  1.00  0.00    -0.027 SA
ATOM     22  H52 UNL     1      23.824   6.847  52.815  1.00  0.00     0.158 HD
ATOM     23  H51 UNL     1      23.949   8.415  52.948  1.00  0.00     0.158 HD
ENDBRANCH  13  14
ENDBRANCH   1  13
TORSDOF 5
ENDMDL