MODEL 1
REMARK VINA RESULT: -7.998420936      0.000      0.000
REMARK  4 active torsions:
REMARK  status: ('A' for Active; 'I' for Inactive)
REMARK    1  A    between atoms: C2_2  and  C4_16
REMARK    2  A    between atoms: N1_3  and  N2_5
REMARK       I    between atoms: N2_5  and  C3_7
REMARK       I    between atoms: C3_7  and  N4_11
REMARK    3  A    between atoms: N4_11  and  N5_13
REMARK    4  A    between atoms: C8_21  and  N6_22
ROOT
HETATM    1  C1  UNL     1      15.034  12.367  56.711  1.00  0.00     0.071 C
HETATM    2  C2  UNL     1      14.924  10.946  56.389  1.00  0.00     0.042 C
HETATM    3  N1  UNL     1      15.987  10.223  56.730  1.00  0.00    -0.290 N
ATOM      4  H1  UNL     1      15.990   9.221  56.540  1.00  0.00     0.187 HD
ENDROOT
BRANCH   3   5
HETATM    5  N2  UNL     1      17.085  10.800  57.335  1.00  0.00    -0.131 N
HETATM    6  C3  UNL     1      18.400  10.660  56.798  1.00  0.00     0.709 C
HETATM    7  N3  UNL     1      19.330  11.434  57.185  1.00  0.00    -0.232 N
HETATM    8  N4  UNL     1      18.677   9.664  55.835  1.00  0.00    -0.071 N
ATOM      9  H32 UNL     1      19.131  12.153  57.881  1.00  0.00     0.174 HD
ATOM     10  H31 UNL     1      20.270  11.333  56.802  1.00  0.00     0.174 HD
ATOM     11  H4  UNL     1      17.944   9.010  55.559  1.00  0.00     0.212 HD
ATOM     12  H2  UNL     1      16.954  11.342  58.190  1.00  0.00     0.205 HD
BRANCH   8  13
HETATM   13  N5  UNL     1      19.943   9.565  55.256  1.00  0.00    -0.024 N
HETATM   14  O1  UNL     1      20.780   8.752  55.709  1.00  0.00    -0.516 OA
HETATM   15  O2  UNL     1      20.338  10.330  54.187  1.00  0.00    -0.516 OA
ENDBRANCH   8  13
ENDBRANCH   3   5
BRANCH   2  16
HETATM   16  C4  UNL     1      13.787  10.245  55.804  1.00  0.00     0.062 A
HETATM   17  S1  UNL     1      12.157  10.849  55.965  1.00  0.00    -0.091 SA
HETATM   18  C5  UNL     1      11.339   9.710  55.022  1.00  0.00    -0.018 A
HETATM   19  C6  UNL     1       9.863   9.608  54.706  1.00  0.00     0.056 C
HETATM   20  C7  UNL     1      12.340   8.889  54.604  1.00  0.00     0.051 A
HETATM   21  C8  UNL     1      13.614   9.172  55.017  1.00  0.00     0.122 A
BRANCH  21  22
HETATM   22  N6  UNL     1      14.696   8.295  54.579  1.00  0.00    -0.114 N
HETATM   23  O3  UNL     1      15.858   8.405  54.921  1.00  0.00    -0.532 OA
HETATM   24  O4  UNL     1      14.386   7.194  53.771  1.00  0.00    -0.532 OA
ENDBRANCH  21  22
ENDBRANCH   2  16
TORSDOF 4
ENDMDL