MODEL 5
REMARK VINA RESULT: -7.173339077      1.911      6.678
REMARK  5 active torsions:
REMARK  status: ('A' for Active; 'I' for Inactive)
REMARK    1  A    between atoms: C2_2  and  O1_3
REMARK    2  A    between atoms: O1_3  and  C3_4
REMARK    3  A    between atoms: C3_4  and  C4_6
REMARK    4  A    between atoms: C5_8  and  N1_9
REMARK    5  A    between atoms: N1_9  and  N2_11
REMARK       I    between atoms: N2_11  and  C6_13
ROOT
HETATM    1  C4  UNL     1      17.559  10.233  56.898  1.00  0.00     0.090 A
HETATM    2  S1  UNL     1      16.118  11.149  56.642  1.00  0.00    -0.063 SA
HETATM    3  C5  UNL     1      14.925  10.271  55.816  1.00  0.00     0.113 A
HETATM    4  C8  UNL     1      15.239   8.993  55.469  1.00  0.00     0.106 A
HETATM    5  C9  UNL     1      14.184   8.273  54.761  1.00  0.00     0.104 C
HETATM    6  N3  UNL     1      13.331   7.693  54.212  1.00  0.00    -0.191 NA
HETATM    7  C10 UNL     1      16.464   8.358  55.740  1.00  0.00     0.057 A
HETATM    8  N4  UNL     1      16.518   7.134  55.308  1.00  0.00    -0.397 N
ATOM      9  H41 UNL     1      17.407   6.673  55.505  1.00  0.00     0.156 HD
ATOM     10  H42 UNL     1      15.736   6.699  54.819  1.00  0.00     0.156 HD
HETATM   11  C11 UNL     1      17.517   8.943  56.398  1.00  0.00    -0.011 A
HETATM   12  C12 UNL     1      18.778   8.119  56.608  1.00  0.00     0.052 C
ENDROOT
BRANCH   3  13
HETATM   13  N1  UNL     1      13.664  10.867  55.515  1.00  0.00    -0.290 N
ATOM     14  H1  UNL     1      13.615  11.827  55.175  1.00  0.00     0.188 HD
BRANCH  13  15
HETATM   15  N2  UNL     1      12.502  10.120  55.690  1.00  0.00    -0.270 N
HETATM   16  C6  UNL     1      11.373  10.307  54.849  1.00  0.00     0.232 C
HETATM   17  C7  UNL     1      10.159   9.504  55.056  1.00  0.00     0.119 C
HETATM   18  O3  UNL     1      11.450  11.168  53.937  1.00  0.00    -0.272 OA
ATOM     19  H2  UNL     1      12.461   9.426  56.436  1.00  0.00     0.190 HD
ENDBRANCH  13  15
ENDBRANCH   3  13
BRANCH   1  20
HETATM   20  C3  UNL     1      18.703  10.814  57.594  1.00  0.00     0.300 C
HETATM   21  O2  UNL     1      18.920  10.687  58.800  1.00  0.00    -0.259 OA
BRANCH  20  22
HETATM   22  O1  UNL     1      19.603  11.558  56.846  1.00  0.00    -0.317 OA
BRANCH  22  23
HETATM   23  C2  UNL     1      20.884  11.019  56.486  1.00  0.00     0.174 C
HETATM   24  C1  UNL     1      20.920  10.533  55.068  1.00  0.00     0.034 C
ENDBRANCH  22  23
ENDBRANCH  20  22
ENDBRANCH   1  20
TORSDOF 5
ENDMDL