MODEL 4
REMARK VINA RESULT: -7.288420041      3.022      6.790
REMARK  7 active torsions:
REMARK  status: ('A' for Active; 'I' for Inactive)
REMARK    1  A    between atoms: O1_2  and  C2_3
REMARK    2  A    between atoms: C2_3  and  C3_5
REMARK    3  A    between atoms: C5_9  and  O3_10
REMARK    4  A    between atoms: C6_13  and  C7_14
REMARK    5  A    between atoms: C7_14  and  C8_16
REMARK    6  A    between atoms: C8_16  and  S1_17
REMARK    7  A    between atoms: C11_20  and  O6_21
ROOT
HETATM    1  C3  UNL     1      14.261   9.807  55.850  1.00  0.00     0.143 A
HETATM    2  N1  UNL     1      14.689   8.569  55.677  1.00  0.00    -0.344 N
ATOM      3  H1  UNL     1      14.087   7.791  55.409  1.00  0.00     0.166 HD
HETATM    4  C4  UNL     1      16.005   8.456  55.893  1.00  0.00     0.108 A
HETATM    5  C5  UNL     1      17.095   7.595  55.917  1.00  0.00     0.212 A
HETATM    6  O4  UNL     1      18.132   8.284  56.246  1.00  0.00    -0.281 OA
HETATM    7  C6  UNL     1      17.845   9.568  56.455  1.00  0.00     0.140 A
HETATM    8  C10 UNL     1      16.482   9.721  56.238  1.00  0.00     0.069 A
HETATM    9  C11 UNL     1      15.392  10.583  56.215  1.00  0.00     0.114 A
ENDROOT
BRANCH   7  10
HETATM   10  C7  UNL     1      18.775  10.604  56.836  1.00  0.00     0.193 C
HETATM   11  O5  UNL     1      19.027  10.989  57.988  1.00  0.00    -0.289 OA
BRANCH  10  12
HETATM   12  C8  UNL     1      19.543  11.317  55.764  1.00  0.00     0.159 C
BRANCH  12  13
HETATM   13  S1  UNL     1      21.187  10.647  55.549  1.00  0.00    -0.166 SA
HETATM   14  C9  UNL     1      21.127   9.110  54.626  1.00  0.00     0.090 C
ENDBRANCH  12  13
ENDBRANCH  10  12
ENDBRANCH   7  10
BRANCH   5  15
HETATM   15  O3  UNL     1      16.974   6.247  55.621  1.00  0.00    -0.339 OA
ATOM     16  H3  UNL     1      16.476   5.937  54.874  1.00  0.00     0.220 HD
ENDBRANCH   5  15
BRANCH   9  17
HETATM   17  O6  UNL     1      15.364  11.901  56.477  1.00  0.00    -0.357 OA
ATOM     18  H6  UNL     1      15.050  12.285  57.288  1.00  0.00     0.217 HD
ENDBRANCH   9  17
BRANCH   1  19
HETATM   19  C2  UNL     1      12.925  10.381  55.723  1.00  0.00     0.312 C
HETATM   20  O2  UNL     1      12.426  11.075  56.645  1.00  0.00    -0.258 OA
BRANCH  19  21
HETATM   21  O1  UNL     1      12.148  10.192  54.593  1.00  0.00    -0.321 OA
HETATM   22  C1  UNL     1      10.797   9.783  54.640  1.00  0.00     0.213 C
ENDBRANCH  19  21
ENDBRANCH   1  19
TORSDOF 7
ENDMDL