MODEL 2
REMARK VINA RESULT: -7.098167616      0.749      1.810
REMARK  5 active torsions:
REMARK  status: ('A' for Active; 'I' for Inactive)
REMARK    1  A    between atoms: O1_2  and  C2_3
REMARK    2  A    between atoms: C5_7  and  C6_8
REMARK    3  A    between atoms: C6_8  and  N1_9
REMARK    4  A    between atoms: N1_9  and  C7_11
REMARK    5  A    between atoms: C17_21  and  O2_22
ROOT
HETATM    1  N1  UNL     1      35.027  84.179  -4.554  1.00  0.00    -0.389 N
ATOM      2  H1  UNL     1      35.832  84.134  -3.927  1.00  0.00     0.159 HD
ENDROOT
BRANCH   1   3
HETATM    3  C6  UNL     1      33.952  83.620  -4.170  1.00  0.00     0.099 C
BRANCH   3   4
HETATM    4  C5  UNL     1      33.987  82.231  -3.662  1.00  0.00     0.028 A
HETATM    5  C3  UNL     1      32.864  81.453  -3.716  1.00  0.00    -0.004 A
HETATM    6  S1  UNL     1      33.366  79.975  -3.039  1.00  0.00    -0.067 SA
HETATM    7  C4  UNL     1      31.486  81.742  -4.229  1.00  0.00     0.057 C
HETATM    8  C2  UNL     1      34.986  80.370  -2.698  1.00  0.00     0.144 A
HETATM    9  C17 UNL     1      35.091  81.666  -3.131  1.00  0.00     0.119 A
BRANCH   8  10
HETATM   10  O1  UNL     1      35.982  79.557  -2.112  1.00  0.00    -0.346 OA
HETATM   11  C1  UNL     1      36.186  79.804  -0.718  1.00  0.00     0.211 C
ENDBRANCH   8  10
BRANCH   9  12
HETATM   12  O2  UNL     1      36.346  82.312  -2.990  1.00  0.00    -0.357 OA
ATOM     13  H2  UNL     1      36.511  83.081  -3.522  1.00  0.00     0.218 HD
ENDBRANCH   9  12
ENDBRANCH   3   4
ENDBRANCH   1   3
BRANCH   1  14
HETATM   14  C7  UNL     1      35.194  84.868  -5.801  1.00  0.00     0.030 C
HETATM   15  C8  UNL     1      35.826  84.018  -6.885  1.00  0.00     0.035 C
HETATM   16  C9  UNL     1      35.926  84.849  -8.143  1.00  0.00    -0.012 C
HETATM   17  C10 UNL     1      36.731  86.096  -7.980  1.00  0.00     0.009 C
HETATM   18  C14 UNL     1      34.540  85.249  -8.613  1.00  0.00     0.009 C
HETATM   19  C11 UNL     1      36.096  86.909  -6.872  1.00  0.00    -0.012 C
HETATM   20  C12 UNL     1      34.701  87.293  -7.241  1.00  0.00     0.009 C
HETATM   21  C16 UNL     1      36.072  86.088  -5.626  1.00  0.00     0.035 C
HETATM   22  C13 UNL     1      33.863  86.078  -7.525  1.00  0.00    -0.012 C
HETATM   23  C15 UNL     1      33.811  85.239  -6.294  1.00  0.00     0.035 C
ENDBRANCH   1  14
TORSDOF 5
ENDMDL