MODEL 1
REMARK VINA RESULT: -6.601070839      0.000      0.000
REMARK  3 active torsions:
REMARK  status: ('A' for Active; 'I' for Inactive)
REMARK    1  A    between atoms: C4_4  and  S1_5
REMARK    2  A    between atoms: S1_5  and  C5_6
REMARK    3  A    between atoms: C5_6  and  C6_7
ROOT
HETATM    1  C1  UNL     1      31.553  82.560  -4.830  1.00  0.00     0.018 C
HETATM    2  C2  UNL     1      32.600  82.284  -4.294  1.00  0.00    -0.074 C
HETATM    3  C3  UNL     1      33.852  81.961  -3.682  1.00  0.00     0.064 A
HETATM    4  C4  UNL     1      34.914  82.863  -3.676  1.00  0.00     0.090 A
HETATM    5  N2  UNL     1      35.925  82.287  -3.047  1.00  0.00    -0.343 N
ATOM      6  H2  UNL     1      36.842  82.704  -2.883  1.00  0.00     0.167 HD
HETATM    7  C10 UNL     1      35.530  81.041  -2.654  1.00  0.00     0.087 A
HETATM    8  S3  UNL     1      35.998  79.610  -1.856  1.00  0.00    -0.083 SA
HETATM    9  C11 UNL     1      34.554  78.717  -2.009  1.00  0.00     0.059 A
HETATM   10  C12 UNL     1      33.736  79.577  -2.688  1.00  0.00    -0.041 A
HETATM   11  C13 UNL     1      32.325  79.119  -3.014  1.00  0.00     0.049 C
HETATM   12  C14 UNL     1      34.242  80.780  -3.023  1.00  0.00     0.026 A
ENDROOT
BRANCH   4  13
HETATM   13  S1  UNL     1      34.961  84.512  -4.376  1.00  0.00    -0.105 SA
BRANCH  13  14
HETATM   14  C5  UNL     1      35.544  84.505  -6.073  1.00  0.00     0.138 C
BRANCH  14  15
HETATM   15  C6  UNL     1      34.404  84.083  -6.983  1.00  0.00     0.026 A
HETATM   16  C7  UNL     1      34.512  82.952  -7.752  1.00  0.00     0.077 A
HETATM   17  S2  UNL     1      33.001  82.942  -8.554  1.00  0.00    -0.087 SA
HETATM   18  C8  UNL     1      32.337  84.359  -7.869  1.00  0.00     0.047 A
HETATM   19  C9  UNL     1      30.991  85.009  -8.105  1.00  0.00     0.076 C
HETATM   20  N1  UNL     1      33.306  84.762  -7.065  1.00  0.00    -0.356 N
ATOM     21  H1  UNL     1      33.187  85.609  -6.509  1.00  0.00     0.166 HD
ENDBRANCH  14  15
ENDBRANCH  13  14
ENDBRANCH   4  13
TORSDOF 3
ENDMDL