MODEL 3
REMARK VINA RESULT: -7.447885008      0.933      1.030
REMARK  4 active torsions:
REMARK  status: ('A' for Active; 'I' for Inactive)
REMARK    1  A    between atoms: C2_2  and  C3_3
REMARK    2  A    between atoms: C5_7  and  C6_8
REMARK    3  A    between atoms: C8_10  and  N2_11
REMARK    4  A    between atoms: N2_11  and  C9_13
ROOT
HETATM    1  C6  UNL     1      32.975  83.081  -6.840  1.00  0.00     0.071 A
HETATM    2  C7  UNL     1      33.210  82.709  -5.548  1.00  0.00     0.080 A
HETATM    3  C8  UNL     1      34.495  82.823  -5.014  1.00  0.00     0.104 A
HETATM    4  N3  UNL     1      35.489  83.301  -5.782  1.00  0.00    -0.333 N
ATOM      5  H3  UNL     1      36.428  83.385  -5.391  1.00  0.00     0.168 HD
HETATM    6  C15 UNL     1      35.269  83.671  -7.057  1.00  0.00     0.079 A
HETATM    7  C16 UNL     1      36.397  84.206  -7.906  1.00  0.00     0.089 C
HETATM    8  N4  UNL     1      34.035  83.553  -7.544  1.00  0.00    -0.344 N
ATOM      9  H4  UNL     1      33.876  83.836  -8.511  1.00  0.00     0.167 HD
ENDROOT
BRANCH   1  10
HETATM   10  C5  UNL     1      31.655  82.988  -7.461  1.00  0.00     0.101 A
HETATM   11  N1  UNL     1      31.117  81.890  -7.956  1.00  0.00    -0.357 N
HETATM   12  C4  UNL     1      29.935  81.936  -8.482  1.00  0.00     0.103 A
ATOM     13  H1  UNL     1      31.630  81.009  -7.925  1.00  0.00     0.166 HD
HETATM   14  C3  UNL     1      29.284  83.143  -8.501  1.00  0.00    -0.000 A
HETATM   15  S1  UNL     1      30.451  84.155  -7.739  1.00  0.00    -0.073 SA
BRANCH  14  16
HETATM   16  C2  UNL     1      27.925  83.460  -9.045  1.00  0.00     0.043 C
HETATM   17  C1  UNL     1      26.962  82.318  -8.808  1.00  0.00     0.010 C
ENDBRANCH  14  16
ENDBRANCH   1  10
BRANCH   3  18
HETATM   18  N2  UNL     1      34.682  82.461  -3.788  1.00  0.00    -0.372 N
ATOM     19  H2  UNL     1      34.790  83.167  -3.060  1.00  0.00     0.161 HD
BRANCH  18  20
HETATM   20  C9  UNL     1      34.738  81.077  -3.451  1.00  0.00     0.083 C
HETATM   21  C10 UNL     1      35.723  80.865  -2.295  1.00  0.00     0.025 C
HETATM   22  C11 UNL     1      35.827  79.382  -2.016  1.00  0.00     0.002 C
HETATM   23  C12 UNL     1      34.510  78.746  -1.700  1.00  0.00     0.000 C
HETATM   24  C13 UNL     1      33.564  79.030  -2.869  1.00  0.00     0.002 C
HETATM   25  C14 UNL     1      33.409  80.537  -2.924  1.00  0.00     0.025 C
ENDBRANCH  18  20
ENDBRANCH   3  18
TORSDOF 4
ENDMDL