MODEL 3
REMARK VINA RESULT: -6.686347686      1.907      2.202
REMARK  3 active torsions:
REMARK  status: ('A' for Active; 'I' for Inactive)
REMARK    1  A    between atoms: C1_2  and  C2_4
REMARK    2  A    between atoms: C2_4  and  S1_5
REMARK    3  A    between atoms: S1_5  and  C3_6
ROOT
HETATM    1  C3  UNL     1      34.000  83.012  -6.420  1.00  0.00     0.113 A
HETATM    2  N1  UNL     1      34.224  82.439  -5.253  1.00  0.00    -0.347 N
ATOM      3  H1  UNL     1      35.171  82.162  -4.996  1.00  0.00     0.167 HD
HETATM    4  C4  UNL     1      33.240  82.227  -4.431  1.00  0.00     0.032 A
HETATM    5  C5  UNL     1      31.987  82.620  -4.830  1.00  0.00     0.009 A
HETATM    6  S2  UNL     1      32.319  83.277  -6.386  1.00  0.00    -0.068 SA
HETATM    7  C6  UNL     1      30.640  82.560  -4.214  1.00  0.00     0.048 C
HETATM    8  C7  UNL     1      30.630  83.081  -2.794  1.00  0.00     0.005 C
HETATM    9  C8  UNL     1      31.295  81.996  -1.957  1.00  0.00     0.001 C
HETATM   10  C9  UNL     1      32.759  82.265  -1.977  1.00  0.00     0.016 C
HETATM   11  C10 UNL     1      33.512  81.563  -3.086  1.00  0.00     0.007 C
HETATM   12  C11 UNL     1      34.982  81.741  -2.734  1.00  0.00     0.042 C
HETATM   13  C12 UNL     1      35.519  80.709  -1.843  1.00  0.00    -0.029 C
HETATM   14  C13 UNL     1      35.230  79.441  -2.062  1.00  0.00    -0.031 C
HETATM   15  C14 UNL     1      34.339  79.206  -3.261  1.00  0.00     0.028 C
HETATM   16  C15 UNL     1      33.117  80.118  -3.149  1.00  0.00     0.020 C
ENDROOT
BRANCH   1  17
HETATM   17  S1  UNL     1      35.193  83.393  -7.687  1.00  0.00    -0.094 SA
BRANCH  17  18
HETATM   18  C2  UNL     1      34.882  82.416  -9.184  1.00  0.00     0.194 C
BRANCH  18  19
HETATM   19  C1  UNL     1      33.665  82.890  -9.889  1.00  0.00     0.182 C
HETATM   20  O1  UNL     1      32.866  82.051 -10.356  1.00  0.00    -0.647 OA
HETATM   21  O2  UNL     1      33.460  84.257 -10.004  1.00  0.00    -0.647 OA
ENDBRANCH  18  19
ENDBRANCH  17  18
ENDBRANCH   1  17
TORSDOF 3
ENDMDL