MODEL 1
REMARK VINA RESULT: -7.569090543      0.000      0.000
REMARK  4 active torsions:
REMARK  status: ('A' for Active; 'I' for Inactive)
REMARK       I    between atoms: C1_2  and  N1_3
REMARK    1  A    between atoms: C1_2  and  O2_11
REMARK    2  A    between atoms: N1_3  and  C2_5
REMARK    3  A    between atoms: O2_11  and  C8_12
REMARK    4  A    between atoms: C12_17  and  C13_18
ROOT
HETATM    1  C8  UNL     1      33.868  83.280  -5.284  1.00  0.00     0.166 C
HETATM    2  C9  UNL     1      34.806  84.386  -5.767  1.00  0.00     0.200 C
HETATM    3  O3  UNL     1      35.007  85.306  -4.713  1.00  0.00    -0.389 OA
HETATM    4  C10 UNL     1      35.991  84.747  -3.897  1.00  0.00     0.168 C
HETATM    5  C11 UNL     1      35.582  83.332  -3.559  1.00  0.00     0.038 C
HETATM    6  C12 UNL     1      34.111  83.098  -3.803  1.00  0.00     0.059 C
ENDROOT
BRANCH   1   7
HETATM    7  O2  UNL     1      32.530  83.545  -5.585  1.00  0.00    -0.296 OA
BRANCH   7   8
HETATM    8  C1  UNL     1      31.889  83.172  -6.754  1.00  0.00     0.361 C
HETATM    9  O1  UNL     1      32.602  82.575  -7.617  1.00  0.00    -0.238 OA
HETATM   10  N1  UNL     1      30.514  83.436  -6.983  1.00  0.00    -0.332 N
ATOM     11  H1  UNL     1      29.990  83.920  -6.254  1.00  0.00     0.165 HD
BRANCH  10  12
HETATM   12  C2  UNL     1      29.816  83.062  -8.185  1.00  0.00     0.086 C
HETATM   13  C3  UNL     1      29.117  81.734  -7.984  1.00  0.00     0.025 C
HETATM   14  C4  UNL     1      27.663  82.028  -7.698  1.00  0.00     0.002 C
HETATM   15  C5  UNL     1      27.042  82.494  -9.001  1.00  0.00     0.000 C
HETATM   16  C6  UNL     1      27.751  83.735  -9.437  1.00  0.00     0.002 C
HETATM   17  C7  UNL     1      28.843  84.173  -8.497  1.00  0.00     0.025 C
ENDBRANCH  10  12
ENDBRANCH   7   8
ENDBRANCH   1   7
BRANCH   6  18
HETATM   18  C13 UNL     1      33.845  81.658  -3.433  1.00  0.00    -0.011 A
HETATM   19  C14 UNL     1      32.651  80.989  -3.473  1.00  0.00     0.015 A
HETATM   20  C15 UNL     1      32.649  79.705  -3.096  1.00  0.00     0.008 A
HETATM   21  C16 UNL     1      33.843  79.164  -2.701  1.00  0.00     0.050 A
HETATM   22  S1  UNL     1      34.927  80.464  -2.869  1.00  0.00    -0.106 SA
ENDBRANCH   6  18
TORSDOF 4
ENDMDL