MODEL 1
REMARK VINA RESULT: -8.353203449      0.000      0.000
REMARK  3 active torsions:
REMARK  status: ('A' for Active; 'I' for Inactive)
REMARK    1  A    between atoms: C7_10  and  C8_11
REMARK    2  A    between atoms: C8_11  and  N3_12
REMARK    3  A    between atoms: N4_18  and  C14_19
ROOT
HETATM    1  N1  UNL     1      36.794  84.386  -8.459  1.00  0.00    -0.102 NA
HETATM    2  C1  UNL     1      35.635  83.926  -7.803  1.00  0.00     0.048 A
HETATM    3  C2  UNL     1      35.576  83.808  -6.431  1.00  0.00     0.029 A
HETATM    4  C3  UNL     1      34.419  83.352  -5.835  1.00  0.00     0.034 A
HETATM    5  C4  UNL     1      33.294  83.001  -6.565  1.00  0.00     0.063 A
HETATM    6  C5  UNL     1      33.380  83.127  -7.928  1.00  0.00     0.062 A
HETATM    7  C6  UNL     1      34.533  83.584  -8.565  1.00  0.00     0.058 A
HETATM    8  N2  UNL     1      32.191  82.733  -8.382  1.00  0.00    -0.342 N
ATOM      9  H2  UNL     1      31.922  82.706  -9.366  1.00  0.00     0.167 HD
HETATM   10  C7  UNL     1      31.397  82.378  -7.360  1.00  0.00     0.113 A
HETATM   11  N4  UNL     1      32.063  82.536  -6.226  1.00  0.00    -0.328 N
ENDROOT
BRANCH  10  12
HETATM   12  C8  UNL     1      29.999  81.890  -7.444  1.00  0.00     0.348 C
BRANCH  12  13
HETATM   13  N3  UNL     1      29.023  82.910  -7.118  1.00  0.00     0.095 N
HETATM   14  C9  UNL     1      29.223  84.106  -7.878  1.00  0.00     0.273 C
HETATM   15  C10 UNL     1      28.815  83.975  -9.320  1.00  0.00     0.030 C
HETATM   16  C11 UNL     1      27.444  83.396  -9.465  1.00  0.00     0.003 C
HETATM   17  C12 UNL     1      27.311  82.125  -8.688  1.00  0.00     0.030 C
HETATM   18  C13 UNL     1      27.712  82.346  -7.253  1.00  0.00     0.273 C
ENDBRANCH  12  13
ENDBRANCH  10  12
BRANCH  11  19
HETATM   19  C14 UNL     1      31.703  82.318  -4.855  1.00  0.00     0.091 C
HETATM   20  C15 UNL     1      32.763  81.479  -4.127  1.00  0.00     0.026 C
HETATM   21  C16 UNL     1      32.793  81.837  -2.665  1.00  0.00     0.002 C
HETATM   22  C17 UNL     1      31.384  81.924  -2.148  1.00  0.00     0.000 C
HETATM   23  C18 UNL     1      30.565  82.980  -2.835  1.00  0.00     0.002 C
HETATM   24  C19 UNL     1      31.387  83.502  -4.030  1.00  0.00     0.026 C
ENDBRANCH  11  19
TORSDOF 3
ENDMDL