MODEL 1
REMARK VINA RESULT: -6.915374633      0.000      0.000
REMARK  3 active torsions:
REMARK  status: ('A' for Active; 'I' for Inactive)
REMARK    1  A    between atoms: C2_2  and  S1_3
REMARK    2  A    between atoms: S1_3  and  C3_4
REMARK    3  A    between atoms: N3_16  and  C10_17
ROOT
HETATM    1  C3  UNL     1      34.735  83.125  -6.590  1.00  0.00     0.151 A
HETATM    2  N1  UNL     1      35.571  82.897  -5.561  1.00  0.00    -0.303 N
ATOM      3  H1  UNL     1      36.576  82.849  -5.732  1.00  0.00     0.171 HD
HETATM    4  C4  UNL     1      35.106  82.732  -4.308  1.00  0.00     0.261 A
HETATM    5  O1  UNL     1      35.893  82.519  -3.349  1.00  0.00    -0.267 OA
HETATM    6  C5  UNL     1      33.748  82.797  -4.066  1.00  0.00     0.078 A
HETATM    7  C6  UNL     1      32.980  82.675  -2.932  1.00  0.00     0.045 A
HETATM    8  C7  UNL     1      31.656  82.834  -3.287  1.00  0.00     0.008 A
HETATM    9  C8  UNL     1      30.493  82.779  -2.389  1.00  0.00     0.068 C
HETATM   10  N2  UNL     1      31.602  83.050  -4.620  1.00  0.00    -0.345 N
ATOM     11  H2  UNL     1      30.756  83.202  -5.168  1.00  0.00     0.167 HD
HETATM   12  C9  UNL     1      32.868  83.029  -5.100  1.00  0.00     0.126 A
HETATM   13  N3  UNL     1      33.413  83.188  -6.347  1.00  0.00    -0.308 N
ENDROOT
BRANCH  13  14
HETATM   14  C10 UNL     1      32.513  83.431  -7.443  1.00  0.00     0.093 C
HETATM   15  C11 UNL     1      31.368  82.469  -7.556  1.00  0.00     0.026 C
HETATM   16  C12 UNL     1      31.000  82.151  -8.977  1.00  0.00     0.002 C
HETATM   17  C13 UNL     1      31.330  83.239  -9.957  1.00  0.00     0.000 C
HETATM   18  C14 UNL     1      30.797  84.597  -9.584  1.00  0.00     0.000 C
HETATM   19  C15 UNL     1      31.915  85.323  -8.847  1.00  0.00     0.002 C
HETATM   20  C16 UNL     1      31.882  84.808  -7.421  1.00  0.00     0.026 C
ENDBRANCH  13  14
BRANCH   1  21
HETATM   21  S1  UNL     1      35.395  83.346  -8.256  1.00  0.00    -0.094 SA
BRANCH  21  22
HETATM   22  C2  UNL     1      36.338  84.889  -8.282  1.00  0.00     0.078 C
HETATM   23  C1  UNL     1      35.612  85.940  -7.494  1.00  0.00     0.016 C
ENDBRANCH  21  22
ENDBRANCH   1  21
TORSDOF 3
ENDMDL