MODEL 5
REMARK VINA RESULT: -8.080568648      1.137      6.424
REMARK  3 active torsions:
REMARK  status: ('A' for Active; 'I' for Inactive)
REMARK    1  A    between atoms: C2_2  and  C3_3
REMARK    2  A    between atoms: N5_20  and  C12_21
REMARK    3  A    between atoms: C12_21  and  C13_22
ROOT
HETATM    1  C3  UNL     1      31.014  83.982  -7.090  1.00  0.00     0.081 A
HETATM    2  N1  UNL     1      32.187  83.876  -7.767  1.00  0.00    -0.344 N
ATOM      3  H1  UNL     1      32.216  84.113  -8.760  1.00  0.00     0.167 HD
HETATM    4  C4  UNL     1      33.315  83.464  -7.153  1.00  0.00     0.072 A
HETATM    5  C5  UNL     1      34.631  83.225  -7.415  1.00  0.00     0.035 A
HETATM    6  C6  UNL     1      35.260  83.407  -8.741  1.00  0.00     0.070 C
HETATM    7  N2  UNL     1      35.237  82.804  -6.272  1.00  0.00    -0.342 N
ATOM      8  H2  UNL     1      36.223  82.557  -6.193  1.00  0.00     0.167 HD
HETATM    9  C7  UNL     1      34.338  82.759  -5.248  1.00  0.00     0.137 A
HETATM   10  C8  UNL     1      33.162  83.174  -5.829  1.00  0.00     0.067 A
HETATM   11  C9  UNL     1      31.993  83.269  -5.116  1.00  0.00     0.073 A
HETATM   12  N3  UNL     1      30.881  83.688  -5.773  1.00  0.00    -0.343 N
ATOM     13  H3  UNL     1      29.984  83.778  -5.296  1.00  0.00     0.167 HD
HETATM   14  C10 UNL     1      32.037  82.931  -3.782  1.00  0.00     0.050 A
HETATM   15  C11 UNL     1      30.800  83.024  -2.994  1.00  0.00     0.072 C
HETATM   16  N4  UNL     1      33.234  82.527  -3.265  1.00  0.00    -0.299 N
ATOM     17  H4  UNL     1      33.260  82.279  -2.276  1.00  0.00     0.187 HD
HETATM   18  N5  UNL     1      34.353  82.435  -3.943  1.00  0.00    -0.275 N
ENDROOT
BRANCH  18  19
HETATM   19  C12 UNL     1      35.557  81.999  -3.321  1.00  0.00     0.155 C
BRANCH  19  20
HETATM   20  C13 UNL     1      35.503  80.695  -2.602  1.00  0.00     0.005 C
HETATM   21  C14 UNL     1      34.256  79.887  -2.830  1.00  0.00     0.006 C
HETATM   22  C15 UNL     1      34.352  78.636  -1.989  1.00  0.00     0.000 C
HETATM   23  C16 UNL     1      35.756  78.365  -1.515  1.00  0.00     0.000 C
HETATM   24  C17 UNL     1      36.283  79.494  -0.650  1.00  0.00     0.000 C
HETATM   25  C18 UNL     1      35.720  80.829  -1.111  1.00  0.00     0.006 C
ENDBRANCH  19  20
ENDBRANCH  18  19
BRANCH   1  26
HETATM   26  C2  UNL     1      29.808  84.439  -7.811  1.00  0.00     0.072 C
HETATM   27  C1  UNL     1      28.744  83.371  -7.795  1.00  0.00     0.013 C
ENDBRANCH   1  26
TORSDOF 3
ENDMDL