MODEL 2
REMARK VINA RESULT: -7.336803410      2.974      3.962
REMARK  3 active torsions:
REMARK  status: ('A' for Active; 'I' for Inactive)
REMARK       I    between atoms: C1_2  and  N1_3
REMARK    1  A    between atoms: C1_2  and  C8_11
REMARK    2  A    between atoms: N1_3  and  C2_5
REMARK    3  A    between atoms: C11_15  and  C12_16
ROOT
HETATM    1  C8  UNL     1      35.689  84.949  -6.998  1.00  0.00     0.077 A
HETATM    2  C9  UNL     1      35.569  86.247  -6.591  1.00  0.00     0.065 A
HETATM    3  C10 UNL     1      36.151  87.189  -7.372  1.00  0.00     0.112 A
HETATM    4  O2  UNL     1      36.288  88.510  -7.373  1.00  0.00    -0.294 OA
HETATM    5  C11 UNL     1      36.968  88.936  -8.393  1.00  0.00     0.129 A
HETATM    6  N2  UNL     1      37.314  87.867  -9.126  1.00  0.00    -0.332 N
ATOM      7  H2  UNL     1      37.852  87.872  -9.992  1.00  0.00     0.168 HD
HETATM    8  C16 UNL     1      36.804  86.768  -8.487  1.00  0.00     0.111 A
HETATM    9  S1  UNL     1      36.597  85.075  -8.434  1.00  0.00    -0.064 SA
ENDROOT
BRANCH   1  10
HETATM   10  C1  UNL     1      35.149  83.739  -6.330  1.00  0.00     0.259 C
HETATM   11  O1  UNL     1      34.671  82.802  -7.013  1.00  0.00    -0.267 OA
HETATM   12  N1  UNL     1      35.163  83.620  -4.922  1.00  0.00    -0.352 N
ATOM     13  H1  UNL     1      35.545  84.367  -4.342  1.00  0.00     0.163 HD
BRANCH  12  14
HETATM   14  C2  UNL     1      34.626  82.422  -4.319  1.00  0.00     0.084 C
HETATM   15  C3  UNL     1      35.745  81.781  -3.517  1.00  0.00     0.025 C
HETATM   16  C4  UNL     1      35.173  80.840  -2.496  1.00  0.00     0.002 C
HETATM   17  C5  UNL     1      33.824  80.289  -2.907  1.00  0.00     0.000 C
HETATM   18  C6  UNL     1      32.803  81.390  -3.083  1.00  0.00     0.002 C
HETATM   19  C7  UNL     1      33.497  82.729  -3.358  1.00  0.00     0.025 C
ENDBRANCH  12  14
ENDBRANCH   1  10
BRANCH   5  20
HETATM   20  C12 UNL     1      37.302  90.378  -8.695  1.00  0.00     0.061 C
HETATM   21  C13 UNL     1      36.046  91.218  -8.640  1.00  0.00     0.013 C
HETATM   22  C14 UNL     1      36.849  92.270  -7.892  1.00  0.00     0.002 C
HETATM   23  C15 UNL     1      37.814  91.147  -7.509  1.00  0.00     0.013 C
ENDBRANCH   5  20
TORSDOF 3
ENDMDL