MODEL 2
REMARK VINA RESULT: -7.439637472      2.597      5.693
REMARK  4 active torsions:
REMARK  status: ('A' for Active; 'I' for Inactive)
REMARK    1  A    between atoms: O1_2  and  C2_3
REMARK    2  A    between atoms: C5_6  and  C6_7
REMARK    3  A    between atoms: C7_10  and  N2_11
REMARK    4  A    between atoms: N2_11  and  C8_13
ROOT
HETATM    1  C6  UNL     1      33.778  83.931  -5.443  1.00  0.00     0.164 C
HETATM    2  N1  UNL     1      32.779  83.251  -6.226  1.00  0.00    -0.214 N
ATOM      3  H1  UNL     1      31.890  83.001  -5.794  1.00  0.00     0.178 HD
HETATM    4  C7  UNL     1      32.986  82.959  -7.441  1.00  0.00     0.675 C
HETATM    5  N3  UNL     1      34.146  83.426  -8.170  1.00  0.00    -0.196 N
ATOM      6  H3  UNL     1      34.278  83.149  -9.143  1.00  0.00     0.184 HD
HETATM    7  C11 UNL     1      35.008  84.182  -7.603  1.00  0.00     0.031 C
HETATM    8  C12 UNL     1      36.117  84.533  -8.491  1.00  0.00     0.058 C
HETATM    9  C13 UNL     1      36.899  85.753  -8.123  1.00  0.00     0.006 C
HETATM   10  C14 UNL     1      36.097  86.880  -7.555  1.00  0.00     0.001 C
HETATM   11  C15 UNL     1      35.942  86.827  -6.062  1.00  0.00     0.004 C
HETATM   12  C16 UNL     1      35.842  85.370  -5.578  1.00  0.00     0.038 C
HETATM   13  C17 UNL     1      34.699  84.675  -6.259  1.00  0.00    -0.029 C
ENDROOT
BRANCH   1  14
HETATM   14  C5  UNL     1      34.253  82.875  -4.518  1.00  0.00    -0.031 A
HETATM   15  C4  UNL     1      35.535  82.530  -4.225  1.00  0.00     0.012 A
HETATM   16  C3  UNL     1      35.831  81.506  -3.304  1.00  0.00     0.037 A
HETATM   17  C2  UNL     1      34.831  80.812  -2.663  1.00  0.00     0.068 A
HETATM   18  C19 UNL     1      33.537  81.169  -2.967  1.00  0.00     0.037 A
HETATM   19  C18 UNL     1      33.245  82.171  -3.869  1.00  0.00     0.012 A
BRANCH  17  20
HETATM   20  O1  UNL     1      35.130  79.800  -1.753  1.00  0.00    -0.356 OA
HETATM   21  C1  UNL     1      36.139  79.869  -0.802  1.00  0.00     0.210 C
ENDBRANCH  17  20
ENDBRANCH   1  14
BRANCH   4  22
HETATM   22  N2  UNL     1      31.946  82.265  -8.148  1.00  0.00    -0.222 N
ATOM     23  H2  UNL     1      32.127  81.829  -9.053  1.00  0.00     0.178 HD
BRANCH  22  24
HETATM   24  C8  UNL     1      30.637  82.199  -7.544  1.00  0.00     0.099 A
HETATM   25  C9  UNL     1      29.481  82.855  -8.203  1.00  0.00     0.028 A
HETATM   26  C10 UNL     1      29.610  81.384  -8.231  1.00  0.00     0.028 A
ENDBRANCH  22  24
ENDBRANCH   4  22
TORSDOF 4
ENDMDL