MODEL 5
REMARK VINA RESULT: -8.011936606      1.756      2.805
REMARK  3 active torsions:
REMARK  status: ('A' for Active; 'I' for Inactive)
REMARK    1  A    between atoms: C6_11  and  N3_12
REMARK       I    between atoms: N3_12  and  C7_14
REMARK    2  A    between atoms: C7_14  and  O2_16
REMARK    3  A    between atoms: O2_16  and  C8_17
ROOT
HETATM    1  C1  UNL     1     -20.080 107.244   7.549  1.00  0.00     0.079 C
HETATM    2  C2  UNL     1     -20.427 105.827   7.177  1.00  0.00     0.203 C
HETATM    3  F1  UNL     1     -19.815 104.913   8.023  1.00  0.00    -0.217 F
HETATM    4  N1  UNL     1     -21.846 105.681   7.214  1.00  0.00    -0.300 N
ATOM      5  H1  UNL     1     -22.425 105.993   7.993  1.00  0.00     0.183 HD
HETATM    6  N2  UNL     1     -22.293 105.143   6.212  1.00  0.00    -0.326 N
ATOM      7  H2  UNL     1     -23.287 104.961   6.074  1.00  0.00     0.180 HD
HETATM    8  C3  UNL     1     -21.304 104.796   5.262  1.00  0.00     0.066 C
HETATM    9  C4  UNL     1     -21.688 105.310   3.894  1.00  0.00     0.036 C
HETATM   10  C5  UNL     1     -22.094 104.216   2.958  1.00  0.00     0.028 C
HETATM   11  C6  UNL     1     -23.036 103.220   3.594  1.00  0.00     0.086 C
HETATM   12  C14 UNL     1     -22.523 102.718   4.920  1.00  0.00     0.028 C
HETATM   13  C15 UNL     1     -21.159 103.294   5.242  1.00  0.00     0.036 C
HETATM   14  C16 UNL     1     -20.040 105.480   5.772  1.00  0.00     0.183 C
HETATM   15  C17 UNL     1     -18.967 104.486   5.702  1.00  0.00     0.071 C
HETATM   16  N4  UNL     1     -18.115 103.692   5.666  1.00  0.00    -0.197 NA
ENDROOT
BRANCH  11  17
HETATM   17  N3  UNL     1     -23.210 102.119   2.670  1.00  0.00    -0.332 N
HETATM   18  C7  UNL     1     -24.313 102.040   1.776  1.00  0.00     0.361 C
HETATM   19  O1  UNL     1     -25.203 102.928   1.739  1.00  0.00    -0.238 OA
ATOM     20  H3  UNL     1     -22.516 101.371   2.661  1.00  0.00     0.165 HD
BRANCH  18  21
HETATM   21  O2  UNL     1     -24.449 100.973   0.903  1.00  0.00    -0.299 OA
BRANCH  21  22
HETATM   22  C8  UNL     1     -23.403 100.113   0.583  1.00  0.00     0.133 C
HETATM   23  C9  UNL     1     -23.842  98.922  -0.241  1.00  0.00     0.032 C
HETATM   24  C10 UNL     1     -22.667  98.082  -0.629  1.00  0.00     0.002 C
HETATM   25  C11 UNL     1     -21.458  98.487   0.178  1.00  0.00     0.000 C
HETATM   26  C12 UNL     1     -21.055  99.914  -0.036  1.00  0.00     0.002 C
HETATM   27  C13 UNL     1     -22.283 100.792  -0.171  1.00  0.00     0.032 C
ENDBRANCH  21  22
ENDBRANCH  18  21
ENDBRANCH  11  17
TORSDOF 3
ENDMDL