MODEL 3
REMARK VINA RESULT: -7.278643960      1.200      2.130
REMARK  2 active torsions:
REMARK  status: ('A' for Active; 'I' for Inactive)
REMARK    1  A    between atoms: C4_5  and  C5_6
REMARK    2  A    between atoms: N3_13  and  N4_14
ROOT
HETATM    1  C5  UNL     1     -25.468 102.415   1.503  1.00  0.00     0.163 A
HETATM    2  N1  UNL     1     -26.742 102.474   0.938  1.00  0.00    -0.281 N
ATOM      3  H1  UNL     1     -27.035 101.981   0.094  1.00  0.00     0.188 HD
HETATM    4  N2  UNL     1     -27.504 103.260   1.657  1.00  0.00    -0.273 N
ATOM      5  H2  UNL     1     -28.481 103.472   1.459  1.00  0.00     0.189 HD
HETATM    6  C6  UNL     1     -26.806 103.740   2.692  1.00  0.00     0.214 A
HETATM    7  S2  UNL     1     -27.296 104.762   3.854  1.00  0.00    -0.037 SA
HETATM    8  N3  UNL     1     -25.550 103.194   2.566  1.00  0.00    -0.210 N
ENDROOT
BRANCH   8   9
HETATM    9  N4  UNL     1     -24.589 103.456   3.531  1.00  0.00    -0.298 N
HETATM   10  C7  UNL     1     -24.217 102.572   4.408  1.00  0.00     0.004 C
HETATM   11  C8  UNL     1     -24.724 101.203   4.530  1.00  0.00     0.054 C
HETATM   12  C13 UNL     1     -23.176 103.018   5.372  1.00  0.00     0.054 C
HETATM   13  C9  UNL     1     -25.020 100.879   5.977  1.00  0.00     0.010 C
HETATM   14  C10 UNL     1     -23.901 101.176   6.909  1.00  0.00    -0.018 C
HETATM   15  C11 UNL     1     -24.369 101.955   8.143  1.00  0.00     0.010 C
HETATM   16  C12 UNL     1     -22.748 101.892   6.284  1.00  0.00     0.010 C
ATOM     17  H4  UNL     1     -24.156 104.379   3.553  1.00  0.00     0.187 HD
ENDBRANCH   8   9
BRANCH   1  18
HETATM   18  C4  UNL     1     -24.407 101.591   0.954  1.00  0.00     0.074 A
HETATM   19  S1  UNL     1     -24.746  99.994   0.331  1.00  0.00    -0.096 SA
HETATM   20  C3  UNL     1     -23.160  99.504  -0.048  1.00  0.00     0.059 A
HETATM   21  C2  UNL     1     -22.413 100.590   0.316  1.00  0.00    -0.032 A
HETATM   22  C1  UNL     1     -20.907 100.518   0.116  1.00  0.00     0.050 C
HETATM   23  C14 UNL     1     -23.073 101.653   0.828  1.00  0.00     0.061 A
HETATM   24 CL1  UNL     1     -22.173 103.153   1.236  1.00  0.00    -0.082 Cl
ENDBRANCH   1  18
TORSDOF 2
ENDMDL