MODEL 4
REMARK VINA RESULT: -6.715741811      3.561      6.360
REMARK  2 active torsions:
REMARK  status: ('A' for Active; 'I' for Inactive)
REMARK    1  A    between atoms: C2_2  and  S1_4
REMARK    2  A    between atoms: S1_4  and  C4_5
ROOT
HETATM    1  C4  UNL     1     -23.568 102.161   1.802  1.00  0.00     0.145 A
HETATM    2  N1  UNL     1     -23.163 101.845   3.049  1.00  0.00    -0.339 N
ATOM      3  H1  UNL     1     -22.206 101.514   3.168  1.00  0.00     0.168 HD
HETATM    4  C5  UNL     1     -23.937 101.936   4.147  1.00  0.00     0.025 A
HETATM    5  C6  UNL     1     -25.249 102.390   3.974  1.00  0.00     0.030 A
HETATM    6  C7  UNL     1     -26.133 102.518   4.953  1.00  0.00    -0.005 A
HETATM    7  C8  UNL     1     -27.400 102.953   4.684  1.00  0.00     0.011 A
HETATM    8  S2  UNL     1     -27.309 103.182   2.985  1.00  0.00    -0.074 SA
HETATM    9  C9  UNL     1     -25.684 102.717   2.707  1.00  0.00     0.089 A
HETATM   10  N2  UNL     1     -24.838 102.596   1.664  1.00  0.00    -0.330 N
ATOM     11  H2  UNL     1     -25.172 102.841   0.732  1.00  0.00     0.168 HD
HETATM   12  C10 UNL     1     -28.614 103.174   5.524  1.00  0.00     0.161 C
HETATM   13  N3  UNL     1     -29.093 102.052   6.282  1.00  0.00    -0.417 N
ATOM     14  H3  UNL     1     -29.958 101.564   6.046  1.00  0.00     0.153 HD
HETATM   15  C11 UNL     1     -28.257 101.656   7.414  1.00  0.00     0.116 C
HETATM   16  C12 UNL     1     -26.833 101.770   7.163  1.00  0.00     0.050 C
HETATM   17  C13 UNL     1     -25.706 102.167   6.396  1.00  0.00     0.068 C
HETATM   18 CL1  UNL     1     -24.782 103.615   6.912  1.00  0.00    -0.114 Cl
HETATM   19  C14 UNL     1     -24.637 101.093   6.305  1.00  0.00     0.037 C
HETATM   20  C15 UNL     1     -23.469 101.576   5.492  1.00  0.00     0.060 C
ENDROOT
BRANCH   1  21
HETATM   21  S1  UNL     1     -22.537 102.029   0.361  1.00  0.00    -0.090 SA
BRANCH  21  22
HETATM   22  C2  UNL     1     -22.558 100.343  -0.238  1.00  0.00     0.047 C
HETATM   23  C1  UNL     1     -21.289  99.651   0.187  1.00  0.00     0.021 C
HETATM   24  C3  UNL     1     -23.784  99.576   0.212  1.00  0.00     0.021 C
ENDBRANCH  21  22
ENDBRANCH   1  21
TORSDOF 2
ENDMDL