MODEL 5
REMARK VINA RESULT: -7.322012099      3.067      7.804
REMARK  2 active torsions:
REMARK  status: ('A' for Active; 'I' for Inactive)
REMARK    1  A    between atoms: C5_5  and  N1_6
REMARK    2  A    between atoms: N1_6  and  N2_8
ROOT
HETATM    1  N2  UNL     1     -25.803 102.906   1.877  1.00  0.00    -0.297 N
ATOM      2  H2  UNL     1     -26.514 103.221   1.217  1.00  0.00     0.187 HD
HETATM    3  C6  UNL     1     -26.154 102.772   3.091  1.00  0.00     0.073 C
HETATM    4  C7  UNL     1     -27.566 103.073   3.498  1.00  0.00     0.104 C
HETATM    5  C8  UNL     1     -27.449 103.807   4.800  1.00  0.00    -0.030 C
HETATM    6  C9  UNL     1     -27.494 105.111   4.781  1.00  0.00     0.192 C
HETATM    7  F1  UNL     1     -27.646 105.800   3.586  1.00  0.00    -0.219 F
HETATM    8  C10 UNL     1     -27.289 103.031   6.037  1.00  0.00     0.057 C
HETATM    9  C11 UNL     1     -27.284 103.937   7.236  1.00  0.00     0.023 C
HETATM   10  C12 UNL     1     -28.718 104.314   7.529  1.00  0.00     0.002 C
HETATM   11  C13 UNL     1     -29.305 103.123   8.301  1.00  0.00     0.000 C
HETATM   12  C14 UNL     1     -28.701 101.875   7.696  1.00  0.00     0.002 C
HETATM   13  C15 UNL     1     -28.406 102.024   6.225  1.00  0.00     0.023 C
HETATM   14  C16 UNL     1     -25.965 102.314   5.917  1.00  0.00     0.204 C
HETATM   15  O1  UNL     1     -25.519 101.779   6.904  1.00  0.00    -0.284 OA
HETATM   16  S1  UNL     1     -25.049 102.229   4.389  1.00  0.00    -0.036 SA
ENDROOT
BRANCH   1  17
HETATM   17  N1  UNL     1     -24.543 102.662   1.376  1.00  0.00    -0.293 N
ATOM     18  H1  UNL     1     -23.856 103.417   1.358  1.00  0.00     0.187 HD
BRANCH  17  19
HETATM   19  C5  UNL     1     -24.174 101.355   0.873  1.00  0.00     0.089 A
HETATM   20  C4  UNL     1     -25.002 100.293   0.611  1.00  0.00     0.039 A
HETATM   21  C3  UNL     1     -24.434  99.176   0.136  1.00  0.00     0.017 A
HETATM   22  C2  UNL     1     -23.076  99.189  -0.046  1.00  0.00    -0.019 A
HETATM   23  C1  UNL     1     -22.206  98.068  -0.565  1.00  0.00     0.056 C
HETATM   24  S2  UNL     1     -22.634 100.755   0.448  1.00  0.00    -0.076 SA
ENDBRANCH  17  19
ENDBRANCH   1  17
TORSDOF 2
ENDMDL