MODEL 4
REMARK VINA RESULT: -7.787730530      1.297      1.310
REMARK  2 active torsions:
REMARK  status: ('A' for Active; 'I' for Inactive)
REMARK    1  A    between atoms: C1_2  and  C2_4
REMARK    2  A    between atoms: C4_6  and  C5_7
ROOT
HETATM    1  C5  UNL     1     -24.703 101.352   1.987  1.00  0.00     0.045 C
HETATM    2  N2  UNL     1     -25.409 100.504   1.348  1.00  0.00    -0.289 N
ATOM      3  H2  UNL     1     -26.346 100.325   1.708  1.00  0.00     0.188 HD
HETATM    4  N3  UNL     1     -25.029  99.794   0.205  1.00  0.00    -0.247 N
ATOM      5  H3  UNL     1     -25.780  99.572  -0.449  1.00  0.00     0.208 HD
HETATM    6  N4  UNL     1     -23.853  99.384  -0.132  1.00  0.00    -0.321 N
ATOM      7  H4  UNL     1     -23.730  98.874  -1.006  1.00  0.00     0.181 HD
HETATM    8  C6  UNL     1     -22.686  99.641   0.729  1.00  0.00     0.150 C
HETATM    9  C7  UNL     1     -22.487 101.120   0.819  1.00  0.00    -0.018 C
HETATM   10  C8  UNL     1     -22.650 101.764  -0.546  1.00  0.00     0.011 C
HETATM   11  C9  UNL     1     -21.350 102.295  -1.090  1.00  0.00     0.001 C
HETATM   12  C10 UNL     1     -20.679 103.255  -0.140  1.00  0.00     0.000 C
HETATM   13  C11 UNL     1     -20.770 102.790   1.296  1.00  0.00     0.001 C
HETATM   14  C12 UNL     1     -21.037 101.316   1.292  1.00  0.00     0.011 C
HETATM   15  C13 UNL     1     -23.358 101.848   1.770  1.00  0.00     0.071 C
ENDROOT
BRANCH   1  16
HETATM   16  C4  UNL     1     -25.352 101.956   3.166  1.00  0.00     0.031 A
HETATM   17  C3  UNL     1     -25.775 103.244   3.331  1.00  0.00     0.037 A
HETATM   18  C2  UNL     1     -26.343 103.563   4.501  1.00  0.00     0.029 A
HETATM   19  C14 UNL     1     -26.451 102.571   5.439  1.00  0.00     0.088 A
HETATM   20  S2  UNL     1     -25.756 101.225   4.649  1.00  0.00    -0.075 SA
HETATM   21 CL1  UNL     1     -27.148 102.683   7.065  1.00  0.00    -0.075 Cl
BRANCH  18  22
HETATM   22  C1  UNL     1     -26.854 104.926   4.830  1.00  0.00     0.125 C
HETATM   23  N1  UNL     1     -26.050 105.874   5.518  1.00  0.00    -0.089 NA
HETATM   24  S1  UNL     1     -28.365 105.374   4.406  1.00  0.00    -0.063 SA
ENDBRANCH  18  22
ENDBRANCH   1  16
TORSDOF 2
ENDMDL