MODEL 3
REMARK VINA RESULT: -6.820792047      1.272      1.376
REMARK  3 active torsions:
REMARK  status: ('A' for Active; 'I' for Inactive)
REMARK    1  A    between atoms: C4_6  and  C5_7
REMARK    2  A    between atoms: N3_13  and  N4_14
REMARK    3  A    between atoms: C7_16  and  C8_17
ROOT
HETATM    1  C1  UNL     1     -21.122 102.604   2.647  1.00  0.00     0.091 C
HETATM    2  C2  UNL     1     -22.501 102.005   2.661  1.00  0.00     0.103 A
HETATM    3  N1  UNL     1     -22.869 101.268   1.674  1.00  0.00    -0.331 N
ATOM      4  H1  UNL     1     -22.209 101.114   0.912  1.00  0.00     0.168 HD
HETATM    5  C3  UNL     1     -24.147 100.657   1.593  1.00  0.00     0.105 A
HETATM    6  C4  UNL     1     -24.502  99.896   0.555  1.00  0.00     0.037 C
HETATM    7  N2  UNL     1     -25.046 100.890   2.669  1.00  0.00    -0.318 N
ATOM      8  H2  UNL     1     -25.977 100.473   2.657  1.00  0.00     0.170 HD
HETATM    9  C6  UNL     1     -24.641 101.714   3.776  1.00  0.00     0.200 A
HETATM   10  S1  UNL     1     -25.637 101.998   5.014  1.00  0.00    -0.038 SA
HETATM   11  N3  UNL     1     -23.331 102.292   3.780  1.00  0.00    -0.218 N
ENDROOT
BRANCH  11  12
HETATM   12  N4  UNL     1     -22.857 103.095   4.799  1.00  0.00    -0.300 N
HETATM   13  C7  UNL     1     -22.891 104.385   4.771  1.00  0.00     0.127 C
ATOM     14  H4  UNL     1     -22.457 102.643   5.621  1.00  0.00     0.186 HD
BRANCH  13  15
HETATM   15  C8  UNL     1     -22.351 105.124   5.925  1.00  0.00     0.028 A
HETATM   16  S2  UNL     1     -23.195 105.616   7.340  1.00  0.00    -0.093 SA
HETATM   17  C9  UNL     1     -21.918 106.384   8.161  1.00  0.00    -0.014 A
HETATM   18  C10 UNL     1     -21.970 107.052   9.495  1.00  0.00     0.057 C
HETATM   19  C11 UNL     1     -20.859 106.235   7.301  1.00  0.00    -0.042 A
HETATM   20  C12 UNL     1     -19.516 106.809   7.706  1.00  0.00     0.050 C
HETATM   21  C13 UNL     1     -21.084 105.586   6.155  1.00  0.00    -0.036 A
HETATM   22  C14 UNL     1     -20.011 105.347   5.111  1.00  0.00     0.050 C
ENDBRANCH  13  15
ENDBRANCH  11  12
BRANCH   6  23
HETATM   23  C5  UNL     1     -23.602  99.630  -0.580  1.00  0.00     0.145 C
HETATM   24 CL1  UNL     1     -23.202  97.883  -0.569  1.00  0.00    -0.126 Cl
ENDBRANCH   6  23
TORSDOF 3
ENDMDL