MODEL 3
REMARK VINA RESULT: -6.573129516      3.740      5.624
REMARK  7 active torsions:
REMARK  status: ('A' for Active; 'I' for Inactive)
REMARK    1  A    between atoms: C2_2  and  C3_4
REMARK    2  A    between atoms: C3_4  and  C4_5
REMARK    3  A    between atoms: C4_5  and  C5_6
REMARK    4  A    between atoms: C5_6  and  N1_7
REMARK    5  A    between atoms: N1_7  and  N2_9
REMARK    6  A    between atoms: C6_10  and  C7_11
REMARK    7  A    between atoms: N3_14  and  C10_15
ROOT
HETATM    1  N2  UNL     1     -24.489 101.075   1.551  1.00  0.00    -0.208 N
HETATM    2  C6  UNL     1     -25.631 101.777   1.658  1.00  0.00     0.126 A
HETATM    3  N4  UNL     1     -26.416 101.354   0.654  1.00  0.00    -0.285 N
ATOM      4  H4  UNL     1     -27.358 101.695   0.458  1.00  0.00     0.188 HD
HETATM    5  N5  UNL     1     -25.774 100.420  -0.047  1.00  0.00    -0.273 N
ATOM      6  H5  UNL     1     -26.140  99.929  -0.863  1.00  0.00     0.189 HD
HETATM    7  C16 UNL     1     -24.564 100.236   0.504  1.00  0.00     0.214 A
HETATM    8  S1  UNL     1     -23.402  99.179  -0.012  1.00  0.00    -0.037 SA
ENDROOT
BRANCH   2   9
HETATM    9  C7  UNL     1     -25.959 102.821   2.693  1.00  0.00     0.060 C
HETATM   10  C8  UNL     1     -26.130 102.082   4.022  1.00  0.00     0.042 C
HETATM   11  C9  UNL     1     -26.354 103.072   5.140  1.00  0.00     0.274 C
HETATM   12  N3  UNL     1     -26.710 104.344   4.592  1.00  0.00     0.097 N
HETATM   13  C14 UNL     1     -27.727 104.245   3.589  1.00  0.00     0.274 C
HETATM   14  C15 UNL     1     -27.226 103.535   2.339  1.00  0.00     0.042 C
BRANCH  12  15
HETATM   15  C10 UNL     1     -27.093 105.237   5.639  1.00  0.00     0.149 C
HETATM   16  C11 UNL     1     -26.059 105.359   6.740  1.00  0.00     0.048 C
HETATM   17  C12 UNL     1     -27.368 106.617   5.079  1.00  0.00     0.048 C
HETATM   18  C13 UNL     1     -28.380 104.734   6.287  1.00  0.00     0.048 C
ENDBRANCH  12  15
ENDBRANCH   2   9
BRANCH   1  19
HETATM   19  N1  UNL     1     -23.416 101.242   2.433  1.00  0.00    -0.255 N
ATOM     20  H1  UNL     1     -23.234 100.590   3.196  1.00  0.00     0.197 HD
BRANCH  19  21
HETATM   21  C5  UNL     1     -22.669 102.277   2.220  1.00  0.00    -0.025 C
BRANCH  21  22
HETATM   22  C4  UNL     1     -21.723 103.164   2.140  1.00  0.00     0.079 C
BRANCH  22  23
HETATM   23  C3  UNL     1     -20.694 103.017   1.141  1.00  0.00     0.047 C
BRANCH  23  24
HETATM   24  C2  UNL     1     -20.890 103.130  -0.147  1.00  0.00     0.090 C
HETATM   25  C1  UNL     1     -21.030 101.967  -1.060  1.00  0.00     0.082 C
HETATM   26  F1  UNL     1     -20.969 104.369  -0.689  1.00  0.00    -0.211 F
ENDBRANCH  23  24
ENDBRANCH  22  23
ENDBRANCH  21  22
ENDBRANCH  19  21
ENDBRANCH   1  19
TORSDOF 7
ENDMDL