MODEL 1
REMARK VINA RESULT: -7.339802438      0.000      0.000
REMARK  2 active torsions:
REMARK  status: ('A' for Active; 'I' for Inactive)
REMARK    1  A    between atoms: O1_2  and  C2_3
REMARK    2  A    between atoms: C5_7  and  C6_8
ROOT
HETATM    1  C2  UNL     1     -23.742 101.788   1.524  1.00  0.00     0.120 A
HETATM    2  C3  UNL     1     -23.944 102.047   2.849  1.00  0.00     0.070 A
HETATM    3 CL1  UNL     1     -25.427 101.415   3.574  1.00  0.00    -0.081 Cl
HETATM    4  C4  UNL     1     -23.023 102.770   3.579  1.00  0.00     0.041 A
HETATM    5  C5  UNL     1     -21.849 103.277   3.037  1.00  0.00    -0.001 A
HETATM    6  C15 UNL     1     -21.662 103.009   1.712  1.00  0.00     0.098 A
HETATM    7  N2  UNL     1     -20.670 103.327   0.882  1.00  0.00    -0.239 N
ATOM      8  H2  UNL     1     -19.836 103.863   1.125  1.00  0.00     0.197 HD
HETATM    9  O2  UNL     1     -20.945 102.838  -0.290  1.00  0.00    -0.156 OA
HETATM   10  N3  UNL     1     -22.079 102.208  -0.276  1.00  0.00    -0.237 N
ATOM     11  H3  UNL     1     -22.516 101.736  -1.067  1.00  0.00     0.197 HD
HETATM   12  C16 UNL     1     -22.577 102.288   0.976  1.00  0.00     0.121 A
ENDROOT
BRANCH   5  13
HETATM   13  C6  UNL     1     -21.001 104.068   3.909  1.00  0.00    -0.063 C
HETATM   14  C7  UNL     1     -21.813 104.425   5.143  1.00  0.00     0.065 C
HETATM   15  C8  UNL     1     -21.037 104.684   6.392  1.00  0.00     0.022 C
HETATM   16  C9  UNL     1     -20.726 106.170   6.574  1.00  0.00     0.038 C
HETATM   17  C10 UNL     1     -22.044 104.438   7.544  1.00  0.00     0.038 C
HETATM   18  N1  UNL     1     -19.957 103.823   6.658  1.00  0.00    -0.405 N
HETATM   19  C11 UNL     1     -19.304 103.188   5.588  1.00  0.00     0.022 C
ATOM     20  H1  UNL     1     -19.651 103.661   7.618  1.00  0.00     0.154 HD
HETATM   21  C12 UNL     1     -17.801 103.496   5.780  1.00  0.00     0.038 C
HETATM   22  C13 UNL     1     -19.387 101.686   5.601  1.00  0.00     0.038 C
HETATM   23  C14 UNL     1     -19.630 103.769   4.210  1.00  0.00     0.065 C
ENDBRANCH   5  13
BRANCH   1  24
HETATM   24  O1  UNL     1     -24.671 101.055   0.768  1.00  0.00    -0.352 OA
HETATM   25  C1  UNL     1     -24.352  99.672   0.574  1.00  0.00     0.210 C
ENDBRANCH   1  24
TORSDOF 2
ENDMDL