MODEL 3
REMARK VINA RESULT: -6.921179760      2.325      3.415
REMARK  2 active torsions:
REMARK  status: ('A' for Active; 'I' for Inactive)
REMARK    1  A    between atoms: C3_4  and  N2_5
REMARK    2  A    between atoms: N2_5  and  C4_7
ROOT
HETATM    1  N1  UNL     1     -24.156  98.544   0.122  1.00  0.00    -0.191 NA
HETATM    2  C1  UNL     1     -23.944  99.597   0.614  1.00  0.00     0.103 C
HETATM    3  C2  UNL     1     -23.608 100.907   1.243  1.00  0.00     0.085 A
HETATM    4  C3  UNL     1     -24.274 101.323   2.340  1.00  0.00     0.097 A
HETATM    5  S2  UNL     1     -23.356 102.794   2.737  1.00  0.00    -0.075 SA
HETATM    6  C7  UNL     1     -22.227 102.764   1.496  1.00  0.00    -0.007 A
HETATM    7  C8  UNL     1     -22.548 101.649   0.798  1.00  0.00    -0.021 A
HETATM    8  C9  UNL     1     -21.665 101.374  -0.420  1.00  0.00     0.041 C
HETATM    9  C10 UNL     1     -21.392 102.720  -1.040  1.00  0.00     0.005 C
HETATM   10  C11 UNL     1     -20.430 103.423  -0.120  1.00  0.00     0.005 C
HETATM   11  C12 UNL     1     -21.107 103.698   1.172  1.00  0.00     0.047 C
ENDROOT
BRANCH   4  12
HETATM   12  N2  UNL     1     -25.444 100.979   3.057  1.00  0.00    -0.343 N
ATOM     13  H2  UNL     1     -25.719 100.002   2.952  1.00  0.00     0.167 HD
BRANCH  12  14
HETATM   14  C4  UNL     1     -26.293 101.718   3.878  1.00  0.00     0.092 A
HETATM   15  C5  UNL     1     -26.540 101.476   5.242  1.00  0.00     0.126 A
HETATM   16  N3  UNL     1     -27.283 102.313   5.865  1.00  0.00    -0.352 N
HETATM   17  C6  UNL     1     -27.797 103.360   5.258  1.00  0.00     0.123 A
ATOM     18  H3  UNL     1     -27.481 102.164   6.855  1.00  0.00     0.166 HD
HETATM   19 BR1  UNL     1     -28.921 104.704   6.029  1.00  0.00    -0.023 Br
HETATM   20  S1  UNL     1     -27.199 103.167   3.684  1.00  0.00    -0.046 SA
ENDBRANCH  12  14
ENDBRANCH   4  12
TORSDOF 2
ENDMDL