MODEL 1
REMARK VINA RESULT: -7.167357727      0.000      0.000
REMARK  7 active torsions:
REMARK  status: ('A' for Active; 'I' for Inactive)
REMARK    1  A    between atoms: N1_1  and  S1_4
REMARK    2  A    between atoms: S1_4  and  C1_6
REMARK    3  A    between atoms: S1_4  and  C13_24
REMARK    4  A    between atoms: C4_9  and  N2_10
REMARK    5  A    between atoms: N3_12  and  C5_14
REMARK    6  A    between atoms: C8_17  and  O2_18
REMARK    7  A    between atoms: C16_27  and  N4_28
ROOT
HETATM    1  C1  UNL     1      48.431  66.084  45.535  1.00  0.00     0.045 A
HETATM    2  C2  UNL     1      49.604  66.539  44.967  1.00  0.00     0.024 A
HETATM    3  C3  UNL     1      49.994  67.862  45.046  1.00  0.00     0.032 A
HETATM    4  C4  UNL     1      49.223  68.796  45.704  1.00  0.00     0.048 A
HETATM    5  C11 UNL     1      48.050  68.348  46.274  1.00  0.00     0.032 A
HETATM    6  C12 UNL     1      47.662  67.022  46.192  1.00  0.00     0.024 A
ENDROOT
BRANCH   1   7
HETATM    7  S1  UNL     1      47.941  64.409  45.431  1.00  0.00     0.104 S
HETATM    8  O1  UNL     1      46.648  64.215  46.189  1.00  0.00    -0.238 OA
BRANCH   7   9
HETATM    9  N1  UNL     1      48.989  63.463  46.096  1.00  0.00    -0.351 N
ATOM     10  H12 UNL     1      48.833  62.493  46.369  1.00  0.00     0.166 HD
ATOM     11  H11 UNL     1      49.846  64.007  46.198  1.00  0.00     0.166 HD
ENDBRANCH   7   9
BRANCH   7  12
HETATM   12  C13 UNL     1      47.706  63.957  43.750  1.00  0.00     0.156 A
HETATM   13  C14 UNL     1      47.828  64.813  42.671  1.00  0.00     0.053 A
HETATM   14  C15 UNL     1      47.566  64.078  41.535  1.00  0.00     0.066 A
HETATM   15  C16 UNL     1      47.291  62.781  41.969  1.00  0.00     0.215 A
HETATM   16  O5  UNL     1      47.392  62.797  43.257  1.00  0.00    -0.278 OA
BRANCH  15  17
HETATM   17  N4  UNL     1      46.968  61.702  41.092  1.00  0.00    -0.090 N
HETATM   18  O3  UNL     1      47.152  61.845  39.872  1.00  0.00    -0.530 OA
HETATM   19  O4  UNL     1      46.462  60.514  41.546  1.00  0.00    -0.530 OA
ENDBRANCH  15  17
ENDBRANCH   7  12
ENDBRANCH   1   7
BRANCH   4  20
HETATM   20  N2  UNL     1      49.614  70.165  45.794  1.00  0.00    -0.300 N
HETATM   21  N3  UNL     1      50.307  70.646  46.718  1.00  0.00    -0.300 N
ATOM     22  H3  UNL     1      50.559  71.635  46.733  1.00  0.00     0.187 HD
ATOM     23  H2  UNL     1      49.307  70.795  45.053  1.00  0.00     0.187 HD
BRANCH  21  24
HETATM   24  C5  UNL     1      50.733  69.758  47.751  1.00  0.00     0.048 A
HETATM   25  C6  UNL     1      49.983  69.707  48.905  1.00  0.00     0.034 A
HETATM   26  C7  UNL     1      50.365  68.868  49.909  1.00  0.00     0.039 A
HETATM   27  C8  UNL     1      51.507  68.075  49.749  1.00  0.00     0.065 A
HETATM   28  C9  UNL     1      52.264  68.114  48.604  1.00  0.00     0.039 A
HETATM   29  C10 UNL     1      51.870  68.966  47.594  1.00  0.00     0.034 A
BRANCH  27  30
HETATM   30  O2  UNL     1      51.874  67.229  50.787  1.00  0.00    -0.361 OA
ATOM     31  H2  UNL     1      52.799  67.069  50.934  1.00  0.00     0.217 HD
ENDBRANCH  27  30
ENDBRANCH  21  24
ENDBRANCH   4  20
TORSDOF 7
ENDMDL