MODEL 2
REMARK VINA RESULT: -7.617620344      1.849      2.976
REMARK  7 active torsions:
REMARK  status: ('A' for Active; 'I' for Inactive)
REMARK    1  A    between atoms: C3_3  and  C4_4
REMARK    2  A    between atoms: C4_4  and  C5_5
REMARK    3  A    between atoms: C4_4  and  C8_12
REMARK    4  A    between atoms: C11_15  and  O1_16
REMARK    5  A    between atoms: C12_18  and  N3_19
REMARK    6  A    between atoms: N4_21  and  C13_23
REMARK    7  A    between atoms: C16_26  and  N5_27
ROOT
HETATM    1  C1  UNL     1      46.260  64.765  35.093  1.00  0.00     0.112 C
HETATM    2  C2  UNL     1      46.998  63.653  35.712  1.00  0.00    -0.110 C
HETATM    3  C3  UNL     1      47.594  62.746  36.237  1.00  0.00    -0.090 C
ENDROOT
BRANCH   3   4
HETATM    4  C4  UNL     1      48.319  61.639  36.906  1.00  0.00     0.165 C
BRANCH   4   5
HETATM    5  C5  UNL     1      48.467  60.536  35.926  1.00  0.00     0.093 C
HETATM    6  N1  UNL     1      49.090  59.426  36.122  1.00  0.00    -0.377 N
HETATM    7  C6  UNL     1      49.032  58.587  34.952  1.00  0.00     0.140 C
ATOM      8  H1  UNL     1      49.562  59.174  36.990  1.00  0.00     0.160 HD
HETATM    9  C7  UNL     1      48.668  59.552  33.850  1.00  0.00     0.140 C
HETATM   10  N2  UNL     1      47.926  60.564  34.612  1.00  0.00    -0.377 N
ATOM     11  H2  UNL     1      47.177  61.165  34.269  1.00  0.00     0.160 HD
ENDBRANCH   4   5
BRANCH   4  12
HETATM   12  C8  UNL     1      47.569  61.266  38.099  1.00  0.00    -0.033 A
HETATM   13  C9  UNL     1      46.778  60.138  38.067  1.00  0.00     0.012 A
HETATM   14  C10 UNL     1      46.033  59.706  39.146  1.00  0.00     0.039 A
HETATM   15  C11 UNL     1      46.061  60.416  40.329  1.00  0.00     0.093 A
HETATM   16  C12 UNL     1      46.851  61.545  40.364  1.00  0.00     0.081 A
HETATM   17  C19 UNL     1      47.595  61.975  39.286  1.00  0.00     0.042 A
BRANCH  15  18
HETATM   18  O1  UNL     1      45.342  60.047  41.455  1.00  0.00    -0.358 OA
ATOM     19  H1  UNL     1      45.729  59.972  42.319  1.00  0.00     0.217 HD
ENDBRANCH  15  18
BRANCH  16  20
HETATM   20  N3  UNL     1      46.888  62.284  41.577  1.00  0.00    -0.298 N
HETATM   21  N4  UNL     1      47.662  63.303  41.652  1.00  0.00    -0.300 N
ATOM     22  H4  UNL     1      48.223  63.546  40.835  1.00  0.00     0.187 HD
ATOM     23  H3  UNL     1      46.310  62.009  42.372  1.00  0.00     0.187 HD
BRANCH  21  24
HETATM   24  C13 UNL     1      47.776  64.101  42.800  1.00  0.00     0.048 A
HETATM   25  C14 UNL     1      47.558  63.605  44.077  1.00  0.00     0.033 A
HETATM   26  C15 UNL     1      47.677  64.418  45.198  1.00  0.00     0.038 A
HETATM   27  C16 UNL     1      48.014  65.738  45.081  1.00  0.00     0.103 A
HETATM   28  C17 UNL     1      48.234  66.243  43.804  1.00  0.00     0.038 A
HETATM   29  C18 UNL     1      48.121  65.452  42.681  1.00  0.00     0.033 A
BRANCH  27  30
HETATM   30  N5  UNL     1      48.140  66.585  46.226  1.00  0.00    -0.116 N
HETATM   31  O2  UNL     1      47.305  67.484  46.389  1.00  0.00    -0.532 OA
HETATM   32  O3  UNL     1      49.171  66.379  47.098  1.00  0.00    -0.532 OA
ENDBRANCH  27  30
ENDBRANCH  21  24
ENDBRANCH  16  20
ENDBRANCH   4  12
ENDBRANCH   3   4
TORSDOF 7
ENDMDL