MODEL 1
REMARK VINA RESULT: -7.617608691      0.000      0.000
REMARK  7 active torsions:
REMARK  status: ('A' for Active; 'I' for Inactive)
REMARK    1  A    between atoms: N2_6  and  N3_7
REMARK    2  A    between atoms: C4_9  and  C5_10
REMARK    3  A    between atoms: C7_12  and  S1_13
REMARK    4  A    between atoms: S1_13  and  C8_14
REMARK    5  A    between atoms: C8_14  and  C9_15
REMARK    6  A    between atoms: C15_21  and  O1_22
REMARK    7  A    between atoms: C17_25  and  O2_26
ROOT
HETATM    1  C5  UNL     1      49.142  59.484  35.821  1.00  0.00     0.015 A
HETATM    2  C6  UNL     1      48.204  60.086  36.638  1.00  0.00     0.037 A
HETATM    3  C7  UNL     1      48.048  61.450  36.759  1.00  0.00     0.034 A
HETATM    4  C15 UNL     1      48.880  62.258  36.019  1.00  0.00     0.085 A
HETATM    5  C16 UNL     1      49.830  61.693  35.193  1.00  0.00     0.075 A
HETATM    6  C17 UNL     1      49.969  60.327  35.086  1.00  0.00     0.080 A
ENDROOT
BRANCH   1   7
HETATM    7  C4  UNL     1      49.261  58.021  35.734  1.00  0.00     0.122 C
HETATM    8  N3  UNL     1      49.107  57.478  34.602  1.00  0.00    -0.303 N
ATOM      9  H3  UNL     1      48.906  58.106  33.823  1.00  0.00     0.186 HD
BRANCH   8  10
HETATM   10  N2  UNL     1      49.177  56.137  34.302  1.00  0.00    -0.255 N
HETATM   11  C3  UNL     1      50.260  55.360  34.463  1.00  0.00     0.207 A
HETATM   12  N1  UNL     1      49.978  54.095  34.067  1.00  0.00    -0.353 N
HETATM   13  C2  UNL     1      48.716  54.054  33.650  1.00  0.00     0.030 A
ATOM     14  H1  UNL     1      50.626  53.308  34.085  1.00  0.00     0.166 HD
HETATM   15  C1  UNL     1      47.969  52.884  33.128  1.00  0.00     0.070 C
HETATM   16  C18 UNL     1      48.213  55.350  33.801  1.00  0.00     0.053 A
HETATM   17  C19 UNL     1      46.854  55.785  33.468  1.00  0.00     0.072 C
ENDBRANCH   8  10
ENDBRANCH   1   7
BRANCH   6  18
HETATM   18  O2  UNL     1      50.921  59.729  34.257  1.00  0.00    -0.360 OA
ATOM     19  H2  UNL     1      51.749  59.478  34.650  1.00  0.00     0.217 HD
ENDBRANCH   6  18
BRANCH   3  20
HETATM   20  S1  UNL     1      46.806  62.108  37.841  1.00  0.00    -0.127 SA
BRANCH  20  21
HETATM   21  C8  UNL     1      47.118  61.647  39.568  1.00  0.00     0.084 C
BRANCH  21  22
HETATM   22  C9  UNL     1      45.914  60.878  40.077  1.00  0.00    -0.005 C
HETATM   23  C10 UNL     1      45.429  60.014  38.936  1.00  0.00     0.005 C
HETATM   24  C11 UNL     1      45.805  58.556  39.187  1.00  0.00     0.000 C
HETATM   25  C12 UNL     1      44.970  58.094  40.361  1.00  0.00     0.000 C
HETATM   26  C13 UNL     1      45.305  58.938  41.541  1.00  0.00     0.000 C
HETATM   27  C14 UNL     1      46.280  60.038  41.258  1.00  0.00     0.005 C
ENDBRANCH  21  22
ENDBRANCH  20  21
ENDBRANCH   3  20
BRANCH   4  28
HETATM   28  O1  UNL     1      48.713  63.627  36.149  1.00  0.00    -0.359 OA
ATOM     29  H1  UNL     1      49.093  64.178  35.474  1.00  0.00     0.217 HD
ENDBRANCH   4  28
TORSDOF 7
ENDMDL