MODEL 1
REMARK VINA RESULT: -6.373285318      0.000      0.000
REMARK  7 active torsions:
REMARK  status: ('A' for Active; 'I' for Inactive)
REMARK    1  A    between atoms: C2_2  and  C3_3
REMARK    2  A    between atoms: C3_3  and  C4_4
REMARK    3  A    between atoms: C7_8  and  C8_9
REMARK    4  A    between atoms: C12_14  and  O2_15
REMARK    5  A    between atoms: C14_18  and  O3_19
REMARK    6  A    between atoms: C15_21  and  C16_22
REMARK    7  A    between atoms: C16_22  and  N1_23
ROOT
HETATM    1  C8  UNL     1      48.756  56.258  34.107  1.00  0.00    -0.013 A
HETATM    2  C9  UNL     1      48.752  57.077  33.002  1.00  0.00     0.027 A
HETATM    3  C10 UNL     1      49.215  58.365  33.069  1.00  0.00     0.005 A
HETATM    4  C11 UNL     1      49.321  59.401  32.142  1.00  0.00     0.157 A
HETATM    5  O1  UNL     1      49.839  60.433  32.770  1.00  0.00    -0.299 OA
HETATM    6  C12 UNL     1      50.069  60.130  34.030  1.00  0.00     0.197 A
HETATM    7  C13 UNL     1      49.689  58.824  34.274  1.00  0.00     0.068 A
HETATM    8  C14 UNL     1      49.691  57.982  35.391  1.00  0.00     0.090 A
HETATM    9  C15 UNL     1      49.232  56.690  35.349  1.00  0.00     0.005 A
ENDROOT
BRANCH   1  10
HETATM   10  C7  UNL     1      48.140  54.918  33.922  1.00  0.00    -0.012 A
HETATM   11  C4  UNL     1      48.839  53.810  33.606  1.00  0.00    -0.037 A
HETATM   12  C5  UNL     1      48.123  52.673  33.367  1.00  0.00     0.057 A
HETATM   13  S1  UNL     1      46.504  53.167  33.590  1.00  0.00    -0.112 SA
HETATM   14  C6  UNL     1      46.781  54.808  33.980  1.00  0.00     0.062 A
BRANCH  11  15
HETATM   15  C3  UNL     1      50.362  53.757  33.593  1.00  0.00     0.066 C
BRANCH  15  16
HETATM   16  C2  UNL     1      50.846  52.498  33.019  1.00  0.00    -0.032 C
HETATM   17  C1  UNL     1      52.033  52.043  33.325  1.00  0.00     0.007 C
ENDBRANCH  15  16
ENDBRANCH  11  15
ENDBRANCH   1  10
BRANCH   9  18
HETATM   18  C16 UNL     1      49.200  55.704  36.414  1.00  0.00     0.171 C
BRANCH  18  19
HETATM   19  N1  UNL     1      48.147  55.764  37.363  1.00  0.00    -0.347 N
HETATM   20  C17 UNL     1      47.282  54.789  37.651  1.00  0.00     0.109 A
HETATM   21  C18 UNL     1      46.374  55.214  38.591  1.00  0.00     0.106 A
HETATM   22  N2  UNL     1      46.736  56.497  38.848  1.00  0.00    -0.361 N
HETATM   23  C19 UNL     1      47.808  56.819  38.104  1.00  0.00     0.182 A
ATOM     24  H2  UNL     1      46.268  57.119  39.506  1.00  0.00     0.166 HD
ENDBRANCH  18  19
ENDBRANCH   9  18
BRANCH   8  25
HETATM   25  O3  UNL     1      50.173  58.468  36.561  1.00  0.00    -0.359 OA
ATOM     26  H3  UNL     1      50.043  57.954  37.350  1.00  0.00     0.217 HD
ENDBRANCH   8  25
BRANCH   6  27
HETATM   27  O2  UNL     1      50.605  61.009  34.926  1.00  0.00    -0.340 OA
ATOM     28  H2  UNL     1      51.481  61.368  34.845  1.00  0.00     0.220 HD
ENDBRANCH   6  27
TORSDOF 7
ENDMDL