MODEL 1
REMARK VINA RESULT: -6.405496633      0.000      0.000
REMARK  6 active torsions:
REMARK  status: ('A' for Active; 'I' for Inactive)
REMARK    1  A    between atoms: O1_1  and  C1_3
REMARK    2  A    between atoms: C1_3  and  C11_20
REMARK    3  A    between atoms: C2_4  and  S1_5
REMARK    4  A    between atoms: S1_5  and  C3_6
REMARK    5  A    between atoms: N3_13  and  C5_14
REMARK    6  A    between atoms: C14_24  and  O2_25
ROOT
HETATM    1  C3  UNL     1      49.093  67.561  44.429  1.00  0.00     0.168 A
HETATM    2  N1  UNL     1      49.323  67.288  43.135  1.00  0.00    -0.277 N
ATOM      3  H1  UNL     1      48.905  66.526  42.603  1.00  0.00     0.189 HD
HETATM    4  N2  UNL     1      50.193  68.189  42.662  1.00  0.00    -0.274 N
ATOM      5  H2  UNL     1      50.555  68.234  41.710  1.00  0.00     0.189 HD
HETATM    6  C4  UNL     1      50.505  69.028  43.676  1.00  0.00     0.195 A
HETATM    7  S2  UNL     1      51.518  70.300  43.641  1.00  0.00    -0.039 SA
HETATM    8  N3  UNL     1      49.823  68.639  44.772  1.00  0.00    -0.297 N
ENDROOT
BRANCH   1   9
HETATM    9  S1  UNL     1      47.992  66.607  45.458  1.00  0.00    -0.061 SA
BRANCH   9  10
HETATM   10  C2  UNL     1      48.830  65.167  46.025  1.00  0.00     0.091 C
HETATM   11  C1  UNL     1      48.626  63.871  45.442  1.00  0.00     0.092 C
BRANCH  11  12
HETATM   12  O1  UNL     1      49.339  62.887  46.009  1.00  0.00    -0.359 OA
ATOM     13  H1  UNL     1      49.221  62.034  45.609  1.00  0.00     0.217 HD
ENDBRANCH  11  12
BRANCH  11  14
HETATM   14  C11 UNL     1      47.814  63.363  44.358  1.00  0.00     0.071 A
HETATM   15  S3  UNL     1      46.585  62.115  44.566  1.00  0.00    -0.096 SA
HETATM   16  C12 UNL     1      46.030  61.983  42.974  1.00  0.00     0.053 A
HETATM   17  C13 UNL     1      46.792  62.894  42.318  1.00  0.00     0.045 A
HETATM   18  C14 UNL     1      47.703  63.599  43.025  1.00  0.00     0.086 A
BRANCH  18  19
HETATM   19  O2  UNL     1      48.526  64.566  42.383  1.00  0.00    -0.359 OA
ATOM     20  H2  UNL     1      49.239  64.299  41.816  1.00  0.00     0.217 HD
ENDBRANCH  18  19
ENDBRANCH  11  14
ENDBRANCH   9  10
ENDBRANCH   1   9
BRANCH   8  21
HETATM   21  C5  UNL     1      49.834  69.217  46.066  1.00  0.00     0.094 C
HETATM   22  C6  UNL     1      48.498  69.352  46.743  1.00  0.00     0.026 C
HETATM   23  C7  UNL     1      48.681  70.458  47.796  1.00  0.00     0.002 C
HETATM   24  C8  UNL     1      50.010  70.312  48.491  1.00  0.00     0.000 C
HETATM   25  C9  UNL     1      50.556  68.910  48.409  1.00  0.00     0.002 C
HETATM   26  C10 UNL     1      50.707  68.389  47.010  1.00  0.00     0.026 C
ENDBRANCH   8  21
TORSDOF 6
ENDMDL