MODEL 5
REMARK VINA RESULT: -7.899658779      1.966      6.313
REMARK  7 active torsions:
REMARK  status: ('A' for Active; 'I' for Inactive)
REMARK       I    between atoms: C3_3  and  N1_5
REMARK    1  A    between atoms: N2_7  and  C4_9
REMARK    2  A    between atoms: C5_10  and  O2_11
REMARK    3  A    between atoms: C6_13  and  O3_14
REMARK    4  A    between atoms: N3_16  and  C7_17
REMARK    5  A    between atoms: C13_23  and  O4_24
REMARK    6  A    between atoms: O4_24  and  C14_25
REMARK    7  A    between atoms: C14_25  and  C15_26
ROOT
HETATM    1  C1  UNL     1      47.672  70.657  48.182  1.00  0.00     0.023 C
HETATM    2  C2  UNL     1      48.222  70.043  47.293  1.00  0.00    -0.015 C
HETATM    3  C3  UNL     1      48.879  69.336  46.233  1.00  0.00     0.314 C
HETATM    4  O1  UNL     1      49.778  69.917  45.575  1.00  0.00    -0.256 OA
HETATM    5  N1  UNL     1      48.557  67.997  45.889  1.00  0.00    -0.258 N
ATOM      6  H1  UNL     1      48.161  67.395  46.612  1.00  0.00     0.191 HD
HETATM    7  N2  UNL     1      48.734  67.513  44.739  1.00  0.00    -0.291 N
ATOM      8  H2  UNL     1      49.127  68.081  43.989  1.00  0.00     0.187 HD
ENDROOT
BRANCH   7   9
HETATM    9  C4  UNL     1      48.373  66.157  44.511  1.00  0.00     0.137 A
HETATM   10  C5  UNL     1      48.510  65.163  45.457  1.00  0.00     0.150 A
HETATM   11  C6  UNL     1      48.054  64.012  44.846  1.00  0.00     0.181 A
HETATM   12  N3  UNL     1      47.653  64.270  43.592  1.00  0.00    -0.299 N
HETATM   13  C13 UNL     1      47.843  65.583  43.370  1.00  0.00     0.179 A
BRANCH  10  14
HETATM   14  O2  UNL     1      49.014  65.315  46.765  1.00  0.00    -0.355 OA
ATOM     15  H2  UNL     1      48.602  65.018  47.567  1.00  0.00     0.218 HD
ENDBRANCH  10  14
BRANCH  11  16
HETATM   16  O3  UNL     1      48.019  62.771  45.458  1.00  0.00    -0.344 OA
ATOM     17  H3  UNL     1      47.724  62.625  46.349  1.00  0.00     0.219 HD
ENDBRANCH  11  16
BRANCH  12  18
HETATM   18  C7  UNL     1      47.113  63.368  42.606  1.00  0.00     0.094 C
HETATM   19  C8  UNL     1      48.206  62.617  41.851  1.00  0.00     0.026 C
HETATM   20  C9  UNL     1      47.504  61.902  40.705  1.00  0.00     0.002 C
HETATM   21  C10 UNL     1      46.448  60.946  41.206  1.00  0.00     0.000 C
HETATM   22  C11 UNL     1      45.436  61.705  42.045  1.00  0.00     0.002 C
HETATM   23  C12 UNL     1      46.228  62.286  43.222  1.00  0.00     0.026 C
ENDBRANCH  12  18
BRANCH  13  24
HETATM   24  O4  UNL     1      47.580  66.316  42.226  1.00  0.00    -0.327 OA
BRANCH  24  25
HETATM   25  C14 UNL     1      48.482  66.356  41.161  1.00  0.00     0.242 C
BRANCH  25  26
HETATM   26  C15 UNL     1      49.488  67.422  41.307  1.00  0.00     0.076 A
HETATM   27  C16 UNL     1      49.174  68.766  41.073  1.00  0.00     0.037 A
HETATM   28  C17 UNL     1      50.308  69.511  41.289  1.00  0.00     0.027 A
HETATM   29  C18 UNL     1      51.279  68.590  41.648  1.00  0.00     0.142 A
HETATM   30  O5  UNL     1      50.737  67.407  41.637  1.00  0.00    -0.325 OA
ENDBRANCH  25  26
ENDBRANCH  24  25
ENDBRANCH  13  24
ENDBRANCH   7   9
TORSDOF 7
ENDMDL