MODEL 5
REMARK VINA RESULT: -7.576643079      5.120      9.988
REMARK  8 active torsions:
REMARK  status: ('A' for Active; 'I' for Inactive)
REMARK    1  A    between atoms: C2_2  and  C3_3
REMARK    2  A    between atoms: C3_3  and  C4_4
REMARK    3  A    between atoms: C4_4  and  C5_5
REMARK    4  A    between atoms: C5_5  and  O1_6
REMARK    5  A    between atoms: C5_5  and  C6_8
REMARK    6  A    between atoms: C6_8  and  C7_9
REMARK    7  A    between atoms: C7_9  and  C8_10
REMARK    8  A    between atoms: C9_11  and  O2_12
ROOT
HETATM    1  C8  UNL     1      45.990  59.303  39.752  1.00  0.00     0.051 A
HETATM    2  C9  UNL     1      46.864  59.310  38.686  1.00  0.00     0.091 A
HETATM    3  C10 UNL     1      47.263  58.119  38.075  1.00  0.00     0.035 A
HETATM    4  C11 UNL     1      48.133  58.090  37.009  1.00  0.00     0.057 A
HETATM    5  C12 UNL     1      48.530  56.916  36.401  1.00  0.00     0.114 A
HETATM    6  O3  UNL     1      49.310  56.568  35.413  1.00  0.00    -0.276 OA
HETATM    7  C13 UNL     1      49.329  55.278  35.255  1.00  0.00     0.265 A
HETATM    8  S1  UNL     1      50.201  54.509  34.110  1.00  0.00    -0.024 SA
HETATM    9  O4  UNL     1      48.544  54.748  36.158  1.00  0.00    -0.275 OA
HETATM   10  C14 UNL     1      48.023  55.724  36.897  1.00  0.00     0.121 A
HETATM   11  C15 UNL     1      47.161  55.739  37.952  1.00  0.00     0.010 A
HETATM   12  C16 UNL     1      46.621  54.458  38.479  1.00  0.00     0.054 C
HETATM   13  C17 UNL     1      46.767  56.929  38.555  1.00  0.00     0.101 A
HETATM   14  O5  UNL     1      45.942  56.952  39.567  1.00  0.00    -0.274 OA
HETATM   15  C18 UNL     1      45.544  58.069  40.169  1.00  0.00     0.297 A
HETATM   16  O6  UNL     1      44.742  57.905  41.130  1.00  0.00    -0.259 OA
ENDROOT
BRANCH   1  17
HETATM   17  C7  UNL     1      45.548  60.515  40.410  1.00  0.00     0.050 C
BRANCH  17  18
HETATM   18  C6  UNL     1      46.290  60.955  41.616  1.00  0.00     0.036 C
BRANCH  18  19
HETATM   19  C5  UNL     1      47.405  61.920  41.392  1.00  0.00     0.118 C
BRANCH  19  20
HETATM   20  C4  UNL     1      47.368  63.012  42.439  1.00  0.00     0.032 C
BRANCH  20  21
HETATM   21  C3  UNL     1      46.706  62.575  43.721  1.00  0.00     0.002 C
BRANCH  21  22
HETATM   22  C2  UNL     1      47.372  63.137  44.950  1.00  0.00    -0.004 C
HETATM   23  C1  UNL     1      46.308  63.502  45.990  1.00  0.00     0.005 C
ENDBRANCH  21  22
ENDBRANCH  20  21
ENDBRANCH  19  20
BRANCH  19  24
HETATM   24  O1  UNL     1      47.314  62.547  40.130  1.00  0.00    -0.396 OA
ATOM     25  H1  UNL     1      46.628  62.103  39.643  1.00  0.00     0.210 HD
ENDBRANCH  19  24
ENDBRANCH  18  19
ENDBRANCH  17  18
ENDBRANCH   1  17
BRANCH   2  26
HETATM   26  O2  UNL     1      47.332  60.509  38.238  1.00  0.00    -0.359 OA
ATOM     27  H2  UNL     1      46.822  60.982  37.591  1.00  0.00     0.217 HD
ENDBRANCH   2  26
TORSDOF 8
ENDMDL