MODEL 4
REMARK VINA RESULT: -5.650895308      8.668     12.531
REMARK  8 active torsions:
REMARK  status: ('A' for Active; 'I' for Inactive)
REMARK    1  A    between atoms: C2_2  and  C3_3
REMARK    2  A    between atoms: C3_3  and  O2_5
REMARK    3  A    between atoms: O2_5  and  C4_6
REMARK    4  A    between atoms: C5_7  and  C6_8
REMARK    5  A    between atoms: N1_9  and  O3_11
REMARK    6  A    between atoms: C15_21  and  O4_22
REMARK    7  A    between atoms: N2_24  and  C16_25
REMARK    8  A    between atoms: C18_27  and  O5_28
ROOT
HETATM    1  C4  UNL     1      48.559  61.866  35.739  1.00  0.00     0.103 A
HETATM    2  C5  UNL     1      49.242  61.243  34.808  1.00  0.00     0.008 A
HETATM    3  C7  UNL     1      49.288  59.780  35.149  1.00  0.00     0.023 A
HETATM    4  C8  UNL     1      48.699  58.977  34.054  1.00  0.00     0.019 C
HETATM    5  C9  UNL     1      49.517  58.003  33.333  1.00  0.00     0.001 C
HETATM    6  C10 UNL     1      50.842  57.652  33.884  1.00  0.00     0.000 C
HETATM    7  C11 UNL     1      51.523  58.689  34.664  1.00  0.00     0.001 C
HETATM    8  C12 UNL     1      50.688  59.486  35.559  1.00  0.00     0.019 C
HETATM    9  C13 UNL     1      48.440  59.712  36.399  1.00  0.00     0.024 A
HETATM   10  C14 UNL     1      48.047  60.969  36.737  1.00  0.00     0.061 A
HETATM   11  C15 UNL     1      47.282  60.910  37.909  1.00  0.00     0.158 A
HETATM   12  N2  UNL     1      47.224  59.619  38.259  1.00  0.00    -0.307 N
HETATM   13  C18 UNL     1      47.923  58.852  37.356  1.00  0.00     0.154 A
ENDROOT
BRANCH   1  14
HETATM   14  O2  UNL     1      48.350  63.273  35.743  1.00  0.00    -0.277 OA
BRANCH  14  15
HETATM   15  C3  UNL     1      47.067  63.743  35.506  1.00  0.00     0.263 C
HETATM   16  O1  UNL     1      46.453  63.311  34.512  1.00  0.00    -0.265 OA
BRANCH  15  17
HETATM   17  C2  UNL     1      46.399  64.734  36.385  1.00  0.00     0.107 C
HETATM   18  C1  UNL     1      47.426  65.606  37.070  1.00  0.00     0.015 C
ENDBRANCH  15  17
ENDBRANCH  14  15
ENDBRANCH   1  14
BRANCH   2  19
HETATM   19  C6  UNL     1      49.863  61.930  33.657  1.00  0.00     0.124 C
HETATM   20  N1  UNL     1      50.409  63.053  33.799  1.00  0.00    -0.280 N
ATOM     21  H1  UNL     1      50.395  63.448  34.739  1.00  0.00     0.193 HD
BRANCH  20  22
HETATM   22  O3  UNL     1      51.013  63.795  32.846  1.00  0.00    -0.290 OA
ATOM     23  H3  UNL     1      51.162  63.557  31.939  1.00  0.00     0.244 HD
ENDBRANCH  20  22
ENDBRANCH   2  19
BRANCH  11  24
HETATM   24  O4  UNL     1      46.724  61.995  38.535  1.00  0.00    -0.345 OA
ATOM     25  H4  UNL     1      46.171  61.950  39.305  1.00  0.00     0.219 HD
ENDBRANCH  11  24
BRANCH  13  26
HETATM   26  O5  UNL     1      48.018  57.506  37.488  1.00  0.00    -0.340 OA
HETATM   27  C19 UNL     1      48.771  56.528  36.940  1.00  0.00     0.211 C
ENDBRANCH  13  26
BRANCH  12  28
HETATM   28  C16 UNL     1      46.542  59.056  39.408  1.00  0.00     0.129 C
HETATM   29  C17 UNL     1      45.054  59.104  39.298  1.00  0.00     0.027 C
ENDBRANCH  12  28
TORSDOF 8
ENDMDL