MODEL 4
REMARK VINA RESULT: -7.357991802      0.904      1.579
REMARK  7 active torsions:
REMARK  status: ('A' for Active; 'I' for Inactive)
REMARK    1  A    between atoms: C6_6  and  N1_7
REMARK    2  A    between atoms: N1_7  and  C7_9
REMARK    3  A    between atoms: C7_9  and  S1_10
REMARK    4  A    between atoms: S1_10  and  C8_11
REMARK    5  A    between atoms: C8_11  and  N2_12
REMARK    6  A    between atoms: C18_24  and  N4_25
REMARK    7  A    between atoms: N4_25  and  N5_27
ROOT
HETATM    1  N2  UNL     1      48.076  65.856  43.929  1.00  0.00    -0.208 N
HETATM    2  C9  UNL     1      49.040  66.587  43.146  1.00  0.00     0.142 C
HETATM    3  C10 UNL     1      49.211  67.954  43.831  1.00  0.00     0.023 C
HETATM    4  C11 UNL     1      50.035  67.817  45.073  1.00  0.00     0.033 C
HETATM    5  C12 UNL     1      49.232  67.694  46.319  1.00  0.00     0.047 C
HETATM    6  C13 UNL     1      48.358  68.899  46.582  1.00  0.00     0.031 C
HETATM    7  C14 UNL     1      49.229  70.102  46.764  1.00  0.00     0.002 C
HETATM    8  C15 UNL     1      50.034  69.874  48.049  1.00  0.00     0.000 C
HETATM    9  C16 UNL     1      50.926  68.662  47.908  1.00  0.00     0.002 C
HETATM   10  C17 UNL     1      50.186  67.440  47.464  1.00  0.00     0.031 C
HETATM   11  N3  UNL     1      48.367  66.544  46.236  1.00  0.00    -0.216 N
ATOM     12  H3  UNL     1      48.052  66.251  47.160  1.00  0.00     0.178 HD
HETATM   13  C18 UNL     1      47.893  65.801  45.333  1.00  0.00     0.691 C
ENDROOT
BRANCH   1  14
HETATM   14  C8  UNL     1      47.159  65.053  43.171  1.00  0.00     0.216 C
BRANCH  14  15
HETATM   15  S1  UNL     1      47.806  63.461  42.695  1.00  0.00    -0.129 SA
BRANCH  15  16
HETATM   16  C7  UNL     1      46.740  62.095  43.107  1.00  0.00     0.197 C
BRANCH  16  17
HETATM   17  N1  UNL     1      45.686  61.906  42.127  1.00  0.00    -0.368 N
ATOM     18  H1  UNL     1      44.789  62.374  42.255  1.00  0.00     0.161 HD
BRANCH  17  19
HETATM   19  C6  UNL     1      45.891  61.078  40.995  1.00  0.00     0.101 A
HETATM   20  C5  UNL     1      45.396  59.770  41.001  1.00  0.00     0.048 A
HETATM   21  C4  UNL     1      45.581  58.950  39.918  1.00  0.00     0.006 A
HETATM   22  C3  UNL     1      46.265  59.451  38.830  1.00  0.00     0.025 A
HETATM   23  C2  UNL     1      46.752  60.739  38.822  1.00  0.00     0.007 A
HETATM   24  C1  UNL     1      47.489  61.246  37.621  1.00  0.00     0.068 C
HETATM   25  N6  UNL     1      46.548  61.509  39.906  1.00  0.00    -0.347 N
ATOM     26  H6  UNL     1      46.910  62.463  39.901  1.00  0.00     0.167 HD
ENDBRANCH  17  19
ENDBRANCH  16  17
ENDBRANCH  15  16
ENDBRANCH  14  15
ENDBRANCH   1  14
BRANCH  13  27
HETATM   27  N4  UNL     1      47.044  64.742  45.758  1.00  0.00    -0.139 N
ATOM     28  H4  UNL     1      46.863  63.966  45.121  1.00  0.00     0.205 HD
BRANCH  27  29
HETATM   29  N5  UNL     1      46.500  64.733  46.923  1.00  0.00    -0.331 N
ATOM     30  H52 UNL     1      47.105  64.606  47.733  1.00  0.00     0.177 HD
ATOM     31  H51 UNL     1      45.494  64.848  47.049  1.00  0.00     0.177 HD
ENDBRANCH  27  29
ENDBRANCH  13  27
TORSDOF 7
ENDMDL