MODEL 3
REMARK VINA RESULT: -7.534189501      1.520      2.073
REMARK  7 active torsions:
REMARK  status: ('A' for Active; 'I' for Inactive)
REMARK    1  A    between atoms: C2_2  and  C3_3
REMARK    2  A    between atoms: C3_3  and  S1_4
REMARK    3  A    between atoms: S1_4  and  C4_5
REMARK    4  A    between atoms: C6_7  and  O1_8
REMARK    5  A    between atoms: N1_10  and  C7_11
REMARK    6  A    between atoms: C9_14  and  C10_15
REMARK    7  A    between atoms: C16_23  and  O2_24
ROOT
HETATM    1  C4  UNL     1      48.976  67.345  45.456  1.00  0.00     0.056 A
HETATM    2  C5  UNL     1      49.355  67.461  44.144  1.00  0.00     0.079 A
HETATM    3  C6  UNL     1      48.863  66.326  43.500  1.00  0.00     0.151 A
HETATM    4  N1  UNL     1      48.218  65.568  44.397  1.00  0.00    -0.256 N
HETATM    5  C16 UNL     1      48.276  66.169  45.585  1.00  0.00     0.167 A
ENDROOT
BRANCH   4   6
HETATM    6  C7  UNL     1      47.563  64.300  44.112  1.00  0.00     0.123 A
HETATM    7  C8  UNL     1      47.233  63.474  45.166  1.00  0.00     0.100 A
HETATM    8  S2  UNL     1      46.512  62.151  44.362  1.00  0.00    -0.084 SA
HETATM    9  C9  UNL     1      46.668  62.712  42.757  1.00  0.00     0.056 A
HETATM   10  N2  UNL     1      47.263  63.879  42.921  1.00  0.00    -0.339 N
ATOM     11  H2  UNL     1      47.488  64.453  42.109  1.00  0.00     0.168 HD
BRANCH   9  12
HETATM   12  C10 UNL     1      46.242  62.055  41.461  1.00  0.00     0.043 C
HETATM   13  C11 UNL     1      45.809  60.657  41.759  1.00  0.00     0.011 C
HETATM   14  C12 UNL     1      46.116  59.794  40.553  1.00  0.00     0.001 C
HETATM   15  C13 UNL     1      45.968  60.564  39.255  1.00  0.00     0.000 C
HETATM   16  C14 UNL     1      46.918  61.718  39.150  1.00  0.00     0.001 C
HETATM   17  C15 UNL     1      47.469  61.966  40.558  1.00  0.00     0.011 C
ENDBRANCH   9  12
ENDBRANCH   4   6
BRANCH   3  18
HETATM   18  O1  UNL     1      49.023  66.041  42.151  1.00  0.00    -0.346 OA
ATOM     19  H1  UNL     1      49.663  66.448  41.578  1.00  0.00     0.219 HD
ENDBRANCH   3  18
BRANCH   5  20
HETATM   20  O2  UNL     1      47.739  65.738  46.806  1.00  0.00    -0.345 OA
ATOM     21  H2  UNL     1      47.009  65.132  46.861  1.00  0.00     0.219 HD
ENDBRANCH   5  20
BRANCH   1  22
HETATM   22  S1  UNL     1      49.344  68.540  46.760  1.00  0.00    -0.122 SA
BRANCH  22  23
HETATM   23  C3  UNL     1      50.998  68.144  47.450  1.00  0.00     0.119 C
BRANCH  23  24
HETATM   24  C2  UNL     1      51.042  68.499  48.913  1.00  0.00     0.087 A
HETATM   25  C1  UNL     1      50.281  69.760  49.289  1.00  0.00     0.049 C
HETATM   26  C17 UNL     1      52.230  68.189  49.687  1.00  0.00     0.207 A
HETATM   27  O3  UNL     1      50.966  67.478  49.841  1.00  0.00    -0.375 OA
ENDBRANCH  23  24
ENDBRANCH  22  23
ENDBRANCH   1  22
TORSDOF 7
ENDMDL