MODEL 5
REMARK VINA RESULT: -6.845467119      2.681      4.924
REMARK  5 active torsions:
REMARK  status: ('A' for Active; 'I' for Inactive)
REMARK    1  A    between atoms: C2_2  and  O2_4
REMARK    2  A    between atoms: O2_4  and  C3_5
REMARK    3  A    between atoms: C3_5  and  C4_6
REMARK    4  A    between atoms: N1_8  and  C6_10
REMARK    5  A    between atoms: C13_18  and  C14_20
ROOT
HETATM    1  C3  UNL     1      25.457  13.341 -12.722  1.00  0.00     0.226 C
HETATM    2  S1  UNL     1      25.928  12.333 -14.207  1.00  0.00    -0.071 SA
HETATM    3  C12 UNL     1      24.355  11.823 -13.559  1.00  0.00     0.078 C
HETATM    4  C13 UNL     1      23.213  11.407 -14.085  1.00  0.00     0.082 C
HETATM    5 CL1  UNL     1      23.066  11.278 -15.817  1.00  0.00    -0.080 Cl
HETATM    6  C18 UNL     1      24.881  12.060 -12.225  1.00  0.00     0.219 C
HETATM    7  O3  UNL     1      24.805  11.379 -11.176  1.00  0.00    -0.287 OA
ENDROOT
BRANCH   1   8
HETATM    8  O2  UNL     1      24.588  14.322 -13.151  1.00  0.00    -0.284 OA
BRANCH   8   9
HETATM    9  C2  UNL     1      24.723  15.148 -14.220  1.00  0.00     0.257 C
HETATM   10  C1  UNL     1      23.737  15.151 -15.367  1.00  0.00     0.126 C
HETATM   11  O1  UNL     1      25.689  15.942 -14.280  1.00  0.00    -0.266 OA
ENDBRANCH   8   9
ENDBRANCH   1   8
BRANCH   1  12
HETATM   12  C4  UNL     1      26.664  13.786 -11.992  1.00  0.00     0.033 C
HETATM   13  C5  UNL     1      28.055  13.696 -12.592  1.00  0.00     0.068 C
HETATM   14  N1  UNL     1      26.629  14.230 -10.851  1.00  0.00    -0.389 N
ATOM     15  H1  UNL     1      27.579  14.467 -10.565  1.00  0.00     0.159 HD
BRANCH  14  16
HETATM   16  C6  UNL     1      25.778  14.522  -9.820  1.00  0.00     0.081 C
HETATM   17  C7  UNL     1      25.879  13.339  -8.813  1.00  0.00     0.025 C
HETATM   18  C8  UNL     1      24.887  13.511  -7.696  1.00  0.00     0.002 C
HETATM   19  C9  UNL     1      25.272  14.761  -6.900  1.00  0.00     0.000 C
HETATM   20  C10 UNL     1      25.181  15.911  -7.886  1.00  0.00     0.002 C
HETATM   21  C11 UNL     1      26.172  15.749  -9.006  1.00  0.00     0.025 C
ENDBRANCH  14  16
ENDBRANCH   1  12
BRANCH   4  22
HETATM   22  C14 UNL     1      22.055  11.040 -13.216  1.00  0.00     0.062 A
HETATM   23  C15 UNL     1      20.823  11.623 -13.388  1.00  0.00     0.082 A
HETATM   24  S2  UNL     1      19.910  10.865 -12.156  1.00  0.00    -0.087 SA
HETATM   25  C16 UNL     1      21.134   9.870 -11.506  1.00  0.00     0.047 A
HETATM   26  C17 UNL     1      21.062   8.894 -10.352  1.00  0.00     0.076 C
HETATM   27  N2  UNL     1      22.175  10.168 -12.265  1.00  0.00    -0.352 N
ATOM     28  H2  UNL     1      23.073   9.713 -12.102  1.00  0.00     0.166 HD
ENDBRANCH   4  22
TORSDOF 5
ENDMDL