MODEL 4
REMARK VINA RESULT: -7.130226777      5.309      7.948
REMARK  3 active torsions:
REMARK  status: ('A' for Active; 'I' for Inactive)
REMARK    1  A    between atoms: O1_2  and  C2_3
REMARK    2  A    between atoms: C3_6  and  N2_7
REMARK    3  A    between atoms: C10_15  and  N3_16
ROOT
HETATM    1  C2  UNL     1      20.038  11.762 -18.786  1.00  0.00     0.225 A
HETATM    2  N1  UNL     1      20.148  12.111 -20.071  1.00  0.00    -0.307 N
ATOM      3  H1  UNL     1      19.424  11.838 -20.736  1.00  0.00     0.171 HD
HETATM    4  C3  UNL     1      21.226  12.834 -20.495  1.00  0.00     0.118 A
HETATM    5  C6  UNL     1      22.168  13.167 -19.532  1.00  0.00     0.037 A
HETATM    6  C7  UNL     1      23.281  13.888 -19.902  1.00  0.00     0.021 A
HETATM    7  C8  UNL     1      24.226  14.219 -18.946  1.00  0.00     0.046 A
HETATM    8  C9  UNL     1      24.050  13.827 -17.641  1.00  0.00     0.145 A
HETATM    9  F1  UNL     1      25.009  14.181 -16.753  1.00  0.00    -0.204 F
HETATM   10  C10 UNL     1      22.952  13.103 -17.226  1.00  0.00     0.097 A
HETATM   11  C22 UNL     1      22.031  12.792 -18.202  1.00  0.00     0.079 A
HETATM   12  N4  UNL     1      20.947  12.085 -17.861  1.00  0.00    -0.319 N
ATOM     13  H4  UNL     1      20.813  11.794 -16.893  1.00  0.00     0.169 HD
ENDROOT
BRANCH  10  14
HETATM   14  N3  UNL     1      22.794  12.712 -15.869  1.00  0.00    -0.376 N
HETATM   15  C11 UNL     1      23.432  11.500 -15.402  1.00  0.00     0.126 C
HETATM   16  C12 UNL     1      23.454  11.404 -13.900  1.00  0.00     0.061 C
HETATM   17  C13 UNL     1      22.137  11.684 -13.258  1.00  0.00     0.102 C
HETATM   18  C14 UNL     1      21.179  12.432 -14.156  1.00  0.00     0.061 C
HETATM   19  C16 UNL     1      21.550  10.378 -12.767  1.00  0.00     0.082 C
HETATM   20  O3  UNL     1      22.239  12.414 -12.072  1.00  0.00    -0.229 OA
HETATM   21  C15 UNL     1      22.023  13.464 -14.912  1.00  0.00     0.126 C
HETATM   22  C17 UNL     1      21.244  10.730 -11.316  1.00  0.00     0.099 C
HETATM   23  C18 UNL     1      19.997  10.050 -10.870  1.00  0.00     0.041 C
HETATM   24  C21 UNL     1      22.312  10.283 -10.375  1.00  0.00     0.041 C
HETATM   25  O2  UNL     1      21.128  12.113 -11.393  1.00  0.00    -0.229 OA
HETATM   26  C19 UNL     1      20.500   8.684 -10.445  1.00  0.00     0.003 C
HETATM   27  C20 UNL     1      21.893   8.916  -9.949  1.00  0.00     0.003 C
ENDBRANCH  10  14
BRANCH   4  28
HETATM   28  N2  UNL     1      21.328  13.218 -21.855  1.00  0.00    -0.375 N
HETATM   29  C4  UNL     1      22.068  12.445 -22.817  1.00  0.00     0.150 C
HETATM   30  C5  UNL     1      20.667  14.427 -22.280  1.00  0.00     0.150 C
ENDBRANCH   4  28
BRANCH   1  31
HETATM   31  O1  UNL     1      18.936  11.017 -18.320  1.00  0.00    -0.327 OA
HETATM   32  C1  UNL     1      17.782  10.981 -19.103  1.00  0.00     0.213 C
ENDBRANCH   1  31
TORSDOF 3
ENDMDL