MODEL 5
REMARK VINA RESULT: -8.256433618      6.556      8.983
REMARK  3 active torsions:
REMARK  status: ('A' for Active; 'I' for Inactive)
REMARK    1  A    between atoms: N4_13  and  C7_14
REMARK    2  A    between atoms: C13_22  and  C14_23
REMARK    3  A    between atoms: C14_23  and  C15_24
ROOT
HETATM    1  C7  UNL     1      26.076  15.574  -7.454  1.00  0.00     0.092 C
HETATM    2  C8  UNL     1      25.040  15.750  -8.586  1.00  0.00     0.031 C
HETATM    3  C9  UNL     1      25.332  14.694  -9.595  1.00  0.00     0.073 C
HETATM    4  C10 UNL     1      25.274  13.309  -9.058  1.00  0.00     0.200 C
HETATM    5  C11 UNL     1      25.680  13.121  -7.671  1.00  0.00     0.073 C
HETATM    6  C12 UNL     1      25.740  14.305  -6.774  1.00  0.00     0.031 C
HETATM    7  O1  UNL     1      26.085  12.511  -9.874  1.00  0.00    -0.198 OA
HETATM    8  O2  UNL     1      25.340  12.086 -10.845  1.00  0.00    -0.204 OA
HETATM    9  C13 UNL     1      24.171  11.700 -10.117  1.00  0.00     0.313 C
HETATM   10  O3  UNL     1      23.977  12.796  -9.344  1.00  0.00    -0.318 OA
ENDROOT
BRANCH   9  11
HETATM   11  C14 UNL     1      23.091  11.386 -11.139  1.00  0.00     0.040 A
HETATM   12  C21 UNL     1      22.553  12.392 -12.062  1.00  0.00     0.020 A
HETATM   13  C22 UNL     1      23.518  11.368 -12.548  1.00  0.00     0.020 A
BRANCH  11  14
HETATM   14  C15 UNL     1      22.165  10.360 -10.582  1.00  0.00    -0.042 A
HETATM   15  C16 UNL     1      22.524   9.690  -9.440  1.00  0.00     0.008 A
HETATM   16  C17 UNL     1      21.712   8.703  -8.916  1.00  0.00     0.004 A
HETATM   17  C18 UNL     1      20.530   8.375  -9.535  1.00  0.00     0.042 A
HETATM   18  C19 UNL     1      20.152   9.025 -10.671  1.00  0.00     0.117 A
HETATM   19  F1  UNL     1      18.996   8.732 -11.298  1.00  0.00    -0.206 F
HETATM   20  C20 UNL     1      20.986  10.032 -11.195  1.00  0.00     0.050 A
ENDBRANCH  11  14
ENDBRANCH   9  11
BRANCH   1  21
HETATM   21  N4  UNL     1      26.019  16.745  -6.612  1.00  0.00    -0.323 N
HETATM   22  C4  UNL     1      25.185  17.114  -5.643  1.00  0.00     0.139 A
HETATM   23  N2  UNL     1      24.125  16.494  -5.101  1.00  0.00    -0.336 N
HETATM   24  C5  UNL     1      25.536  18.384  -5.146  1.00  0.00     0.100 A
HETATM   25  C3  UNL     1      23.453  17.106  -4.119  1.00  0.00     0.182 A
ATOM     26  H2  UNL     1      23.836  15.573  -5.432  1.00  0.00     0.168 HD
HETATM   27  N1  UNL     1      23.783  18.334  -3.632  1.00  0.00    -0.354 N
HETATM   28  C2  UNL     1      24.830  18.997  -4.137  1.00  0.00     0.037 A
ATOM     29  H1  UNL     1      23.231  18.749  -2.881  1.00  0.00     0.166 HD
HETATM   30  C1  UNL     1      25.217  20.331  -3.657  1.00  0.00     0.070 C
HETATM   31  N3  UNL     1      26.623  18.729  -5.883  1.00  0.00    -0.348 N
HETATM   32  C6  UNL     1      26.906  17.754  -6.751  1.00  0.00     0.185 A
ATOM     33  H3  UNL     1      27.144  19.601  -5.788  1.00  0.00     0.167 HD
ENDBRANCH   1  21
TORSDOF 3
ENDMDL