MODEL 2
REMARK VINA RESULT: -7.862358453      3.195      4.239
REMARK  3 active torsions:
REMARK  status: ('A' for Active; 'I' for Inactive)
REMARK    1  A    between atoms: C8_8  and  C9_9
REMARK    2  A    between atoms: C9_9  and  C10_10
REMARK    3  A    between atoms: C10_10  and  N1_11
ROOT
HETATM    1  N1  UNL     1      23.781  12.411  -9.228  1.00  0.00    -0.352 N
HETATM    2  C11 UNL     1      22.877  12.863  -8.187  1.00  0.00     0.131 C
HETATM    3  C12 UNL     1      23.753  13.285  -7.025  1.00  0.00     0.095 C
HETATM    4  C13 UNL     1      24.471  14.551  -7.350  1.00  0.00     0.239 C
HETATM    5  C14 UNL     1      25.094  14.460  -8.724  1.00  0.00     0.177 C
HETATM    6  C15 UNL     1      25.036  13.096  -9.304  1.00  0.00     0.225 C
HETATM    7  O1  UNL     1      26.026  12.552  -9.840  1.00  0.00    -0.273 OA
HETATM    8  O2  UNL     1      23.545  15.613  -7.362  1.00  0.00    -0.194 OA
HETATM    9  O3  UNL     1      23.084  15.831  -6.147  1.00  0.00    -0.194 OA
HETATM   10  C16 UNL     1      24.158  16.271  -5.370  1.00  0.00     0.233 C
HETATM   11  C17 UNL     1      23.647  16.550  -3.991  1.00  0.00     0.082 C
HETATM   12  C18 UNL     1      23.408  17.999  -3.712  1.00  0.00     0.087 C
HETATM   13  C19 UNL     1      24.702  18.726  -3.918  1.00  0.00     0.160 C
HETATM   14  O4  UNL     1      25.115  19.569  -3.159  1.00  0.00    -0.295 OA
HETATM   15  C20 UNL     1      25.495  18.381  -5.112  1.00  0.00     0.244 C
HETATM   16  F1  UNL     1      26.725  17.869  -4.755  1.00  0.00    -0.241 F
HETATM   17  C21 UNL     1      24.743  17.477  -6.052  1.00  0.00     0.119 C
HETATM   18  O5  UNL     1      25.058  15.213  -5.285  1.00  0.00    -0.194 OA
HETATM   19  O6  UNL     1      25.492  14.822  -6.445  1.00  0.00    -0.194 OA
ENDROOT
BRANCH   1  20
HETATM   20  C10 UNL     1      23.459  11.337 -10.147  1.00  0.00     0.130 C
BRANCH  20  21
HETATM   21  C9  UNL     1      22.240  11.718 -10.931  1.00  0.00     0.054 C
BRANCH  21  22
HETATM   22  C8  UNL     1      22.526  12.126 -12.327  1.00  0.00    -0.078 C
HETATM   23  C2  UNL     1      23.949  12.182 -12.686  1.00  0.00     0.010 C
HETATM   24  C1  UNL     1      24.407  13.631 -12.898  1.00  0.00     0.015 C
HETATM   25  C3  UNL     1      24.294  11.332 -13.884  1.00  0.00     0.009 C
HETATM   26  C4  UNL     1      23.084  11.039 -14.740  1.00  0.00     0.001 C
HETATM   27  C5  UNL     1      22.612  12.340 -15.338  1.00  0.00     0.004 C
HETATM   28  C6  UNL     1      21.440  12.832 -14.540  1.00  0.00     0.027 C
HETATM   29  C7  UNL     1      21.473  12.403 -13.121  1.00  0.00    -0.024 C
ENDBRANCH  21  22
ENDBRANCH  20  21
ENDBRANCH   1  20
TORSDOF 3
ENDMDL