MODEL 4
REMARK VINA RESULT: -7.625199926      1.580      1.905
REMARK  3 active torsions:
REMARK  status: ('A' for Active; 'I' for Inactive)
REMARK    1  A    between atoms: C2_5  and  N2_6
REMARK    2  A    between atoms: N3_9  and  C5_10
REMARK    3  A    between atoms: N6_23  and  C14_24
ROOT
HETATM    1 CL1  UNL     1      22.239   9.295  -8.700  1.00  0.00    -0.045 Cl
HETATM    2  C1  UNL     1      23.117  10.691  -9.293  1.00  0.00     0.182 A
HETATM    3  N1  UNL     1      23.478  11.680  -8.467  1.00  0.00    -0.317 N
ATOM      4  H1  UNL     1      23.223  11.593  -7.483  1.00  0.00     0.170 HD
HETATM    5  C2  UNL     1      24.157  12.789  -8.847  1.00  0.00     0.136 A
HETATM    6  C12 UNL     1      24.487  12.875 -10.194  1.00  0.00     0.122 A
HETATM    7  N5  UNL     1      25.131  13.777 -10.938  1.00  0.00    -0.346 N
ATOM      8  H5  UNL     1      25.530  14.650 -10.592  1.00  0.00     0.167 HD
HETATM    9  C13 UNL     1      25.173  13.358 -12.215  1.00  0.00     0.185 A
HETATM   10  N6  UNL     1      24.554  12.170 -12.323  1.00  0.00    -0.322 N
HETATM   11  C21 UNL     1      24.128  11.872 -11.065  1.00  0.00     0.142 A
HETATM   12  N7  UNL     1      23.448  10.802 -10.578  1.00  0.00    -0.317 N
ATOM     13  H7  UNL     1      23.181  10.057 -11.221  1.00  0.00     0.170 HD
ENDROOT
BRANCH   5  14
HETATM   14  N2  UNL     1      24.514  13.803  -7.940  1.00  0.00    -0.362 N
HETATM   15  C3  UNL     1      23.877  15.093  -8.028  1.00  0.00     0.144 C
HETATM   16  C4  UNL     1      23.372  15.417  -6.638  1.00  0.00     0.144 C
HETATM   17  N3  UNL     1      24.509  15.520  -5.765  1.00  0.00    -0.364 N
HETATM   18  C10 UNL     1      25.745  14.867  -6.117  1.00  0.00     0.144 C
HETATM   19  C11 UNL     1      25.501  13.597  -6.920  1.00  0.00     0.144 C
BRANCH  17  20
HETATM   20  C5  UNL     1      24.398  16.263  -4.561  1.00  0.00     0.102 A
HETATM   21  C6  UNL     1      25.487  16.713  -3.848  1.00  0.00     0.048 A
HETATM   22  C7  UNL     1      25.379  17.442  -2.662  1.00  0.00     0.005 A
HETATM   23  C8  UNL     1      24.114  17.711  -2.205  1.00  0.00     0.017 A
HETATM   24  C9  UNL     1      23.026  17.263  -2.916  1.00  0.00     0.089 A
HETATM   25  N4  UNL     1      23.169  16.569  -4.043  1.00  0.00    -0.352 N
ATOM     26  H4  UNL     1      22.334  16.255  -4.538  1.00  0.00     0.166 HD
ENDBRANCH  17  20
ENDBRANCH   5  14
BRANCH  10  27
HETATM   27  C14 UNL     1      24.338  11.322 -13.477  1.00  0.00     0.092 C
HETATM   28  C15 UNL     1      25.331  11.597 -14.562  1.00  0.00     0.026 C
HETATM   29  C16 UNL     1      24.877  10.959 -15.863  1.00  0.00     0.002 C
HETATM   30  C17 UNL     1      24.199  11.998 -16.719  1.00  0.00     0.000 C
HETATM   31  C18 UNL     1      22.737  12.140 -16.293  1.00  0.00     0.000 C
HETATM   32  C19 UNL     1      22.722  12.638 -14.867  1.00  0.00     0.002 C
HETATM   33  C20 UNL     1      22.895  11.438 -13.967  1.00  0.00     0.026 C
ENDBRANCH  10  27
TORSDOF 3
ENDMDL