MODEL 1
REMARK VINA RESULT: -7.700106334      0.000      0.000
REMARK  3 active torsions:
REMARK  status: ('A' for Active; 'I' for Inactive)
REMARK    1  A    between atoms: C4_5  and  N1_6
REMARK    2  A    between atoms: N2_9  and  C7_10
REMARK    3  A    between atoms: C10_16  and  C11_17
ROOT
HETATM    1  N1  UNL     1      21.891  11.430 -13.162  1.00  0.00    -0.354 N
HETATM    2  C5  UNL     1      20.457  11.421 -13.346  1.00  0.00     0.145 C
HETATM    3  C6  UNL     1      19.932  11.287 -11.938  1.00  0.00     0.149 C
HETATM    4  N2  UNL     1      20.908  10.382 -11.378  1.00  0.00    -0.320 N
HETATM    5  C10 UNL     1      22.186  10.670 -11.996  1.00  0.00     0.224 C
ENDROOT
BRANCH   5   6
HETATM    6  C11 UNL     1      22.987  11.360 -10.963  1.00  0.00    -0.013 A
HETATM    7  C12 UNL     1      24.360  11.385 -10.935  1.00  0.00     0.014 A
HETATM    8  C13 UNL     1      25.011  12.083  -9.929  1.00  0.00     0.040 A
HETATM    9  C14 UNL     1      24.318  12.755  -8.950  1.00  0.00     0.105 A
HETATM   10  C15 UNL     1      22.944  12.744  -8.958  1.00  0.00     0.105 A
HETATM   11  O3  UNL     1      24.715  13.521  -7.842  1.00  0.00    -0.323 OA
HETATM   12  C16 UNL     1      22.317  12.042  -9.970  1.00  0.00     0.050 A
HETATM   13  O2  UNL     1      22.532  13.490  -7.875  1.00  0.00    -0.323 OA
HETATM   14  C17 UNL     1      23.602  13.540  -6.955  1.00  0.00     0.352 C
ENDBRANCH   5   6
BRANCH   1  15
HETATM   15  C4  UNL     1      22.782  12.102 -14.040  1.00  0.00     0.032 A
HETATM   16  C3  UNL     1      22.830  13.495 -14.097  1.00  0.00     0.031 A
HETATM   17  C2  UNL     1      23.686  14.175 -14.947  1.00  0.00     0.021 A
HETATM   18  C1  UNL     1      24.525  13.474 -15.771  1.00  0.00     0.011 A
HETATM   19 BR1  UNL     1      25.716  14.404 -16.955  1.00  0.00    -0.051 Br
HETATM   20  C19 UNL     1      24.510  12.117 -15.746  1.00  0.00     0.021 A
HETATM   21  C18 UNL     1      23.649  11.466 -14.890  1.00  0.00     0.031 A
ENDBRANCH   1  15
BRANCH   4  22
HETATM   22  C7  UNL     1      20.661   9.389 -10.401  1.00  0.00     0.228 A
HETATM   23  N3  UNL     1      21.515   8.706  -9.619  1.00  0.00    -0.330 N
HETATM   24  C8  UNL     1      20.821   7.848  -8.826  1.00  0.00     0.116 A
ATOM     25  H3  UNL     1      22.530   8.815  -9.620  1.00  0.00     0.168 HD
HETATM   26  C9  UNL     1      19.502   8.052  -9.173  1.00  0.00     0.162 A
HETATM   27  O1  UNL     1      19.445   8.965 -10.101  1.00  0.00    -0.290 OA
ENDBRANCH   4  22
TORSDOF 3
ENDMDL