MODEL 2
REMARK VINA RESULT: -6.922978567      3.985      7.700
REMARK  8 active torsions:
REMARK  status: ('A' for Active; 'I' for Inactive)
REMARK    1  A    between atoms: C2_2  and  C4_4
REMARK    2  A    between atoms: C2_2  and  O1_10
REMARK    3  A    between atoms: C5_5  and  C6_6
REMARK    4  A    between atoms: O1_10  and  C9_11
REMARK    5  A    between atoms: C9_11  and  O3_13
REMARK    6  A    between atoms: O3_13  and  C10_14
REMARK    7  A    between atoms: C14_19  and  C15_20
REMARK    8  A    between atoms: C19_24  and  N2_25
ROOT
HETATM    1  C6  UNL     1      28.667  13.934  -4.335  1.00  0.00     0.001 C
HETATM    2  C7  UNL     1      29.606  13.756  -3.581  1.00  0.00     0.027 C
HETATM    3  C8  UNL     1      30.711  13.567  -2.711  1.00  0.00     0.153 C
HETATM    4  N1  UNL     1      31.620  13.431  -2.007  1.00  0.00    -0.182 NA
ENDROOT
BRANCH   1   5
HETATM    5  C5  UNL     1      27.587  14.160  -5.225  1.00  0.00    -0.011 C
HETATM    6  C4  UNL     1      26.652  14.337  -5.984  1.00  0.00    -0.054 C
BRANCH   6   7
HETATM    7  C2  UNL     1      25.512  14.528  -6.901  1.00  0.00     0.129 C
HETATM    8  C1  UNL     1      26.015  15.391  -8.039  1.00  0.00     0.061 C
HETATM    9  C3  UNL     1      24.427  15.236  -6.147  1.00  0.00     0.061 C
BRANCH   7  10
HETATM   10  O1  UNL     1      25.092  13.262  -7.419  1.00  0.00    -0.274 OA
BRANCH  10  11
HETATM   11  C9  UNL     1      23.827  13.177  -8.011  1.00  0.00     0.408 C
HETATM   12  O2  UNL     1      22.812  12.857  -7.342  1.00  0.00    -0.229 OA
BRANCH  11  13
HETATM   13  O3  UNL     1      23.636  13.442  -9.360  1.00  0.00    -0.291 OA
BRANCH  13  14
HETATM   14  C10 UNL     1      24.209  12.587 -10.339  1.00  0.00     0.152 C
HETATM   15  C11 UNL     1      25.315  13.320 -11.007  1.00  0.00     0.035 C
HETATM   16  C12 UNL     1      24.978  13.920 -12.350  1.00  0.00     0.013 C
HETATM   17  C13 UNL     1      24.862  12.859 -13.425  1.00  0.00     0.075 C
HETATM   18  S1  UNL     1      24.004  11.383 -12.748  1.00  0.00    -0.157 SA
HETATM   19  C14 UNL     1      23.178  11.985 -11.239  1.00  0.00     0.109 C
BRANCH  19  20
HETATM   20  C15 UNL     1      22.575  10.801 -10.579  1.00  0.00    -0.039 A
HETATM   21  C16 UNL     1      23.195  10.107  -9.572  1.00  0.00     0.008 A
HETATM   22  C17 UNL     1      22.626   9.015  -8.973  1.00  0.00     0.003 A
HETATM   23  C18 UNL     1      21.393   8.588  -9.383  1.00  0.00     0.036 A
HETATM   24  C19 UNL     1      20.716   9.259 -10.405  1.00  0.00     0.103 A
HETATM   25  C20 UNL     1      21.324  10.338 -10.968  1.00  0.00     0.044 A
BRANCH  24  26
HETATM   26  N2  UNL     1      19.436   8.781 -10.801  1.00  0.00    -0.116 N
HETATM   27  O4  UNL     1      18.715   8.160 -10.014  1.00  0.00    -0.532 OA
HETATM   28  O5  UNL     1      19.049   9.050 -12.107  1.00  0.00    -0.532 OA
ENDBRANCH  24  26
ENDBRANCH  19  20
ENDBRANCH  13  14
ENDBRANCH  11  13
ENDBRANCH  10  11
ENDBRANCH   7  10
ENDBRANCH   6   7
ENDBRANCH   1   5
TORSDOF 8
ENDMDL