MODEL 4
REMARK VINA RESULT: -8.199497423      8.374     13.518
REMARK  3 active torsions:
REMARK  status: ('A' for Active; 'I' for Inactive)
REMARK    1  A    between atoms: C2_2  and  C4_4
REMARK    2  A    between atoms: C4_4  and  C5_5
REMARK    3  A    between atoms: C14_20  and  C15_21
ROOT
HETATM    1  C5  UNL     1      19.067  12.473 -20.951  1.00  0.00     0.134 C
HETATM    2  C6  UNL     1      19.594  13.863 -21.172  1.00  0.00     0.062 C
HETATM    3  C7  UNL     1      19.998  14.449 -19.886  1.00  0.00     0.017 C
HETATM    4  C8  UNL     1      20.409  13.679 -18.871  1.00  0.00     0.124 A
HETATM    5  O1  UNL     1      20.837  13.956 -17.585  1.00  0.00    -0.265 OA
HETATM    6  C9  UNL     1      21.149  12.743 -16.954  1.00  0.00     0.437 A
HETATM    7  N1  UNL     1      20.877  11.746 -17.932  1.00  0.00    -0.284 N
ATOM      8  H1  UNL     1      21.005  10.746 -17.772  1.00  0.00     0.169 HD
HETATM    9  C10 UNL     1      20.457  12.237 -19.028  1.00  0.00     0.179 A
HETATM   10  O2  UNL     1      20.059  11.707 -20.270  1.00  0.00    -0.328 OA
HETATM   11  O3  UNL     1      22.529  12.819 -16.646  1.00  0.00    -0.144 OA
HETATM   12  O4  UNL     1      22.583  13.579 -15.548  1.00  0.00    -0.191 OA
HETATM   13  C11 UNL     1      22.239  12.689 -14.503  1.00  0.00     0.230 C
HETATM   14  C12 UNL     1      21.752  13.421 -13.292  1.00  0.00     0.075 C
HETATM   15  C13 UNL     1      21.359  12.393 -12.259  1.00  0.00     0.015 C
HETATM   16  C14 UNL     1      22.600  11.625 -11.871  1.00  0.00     0.019 C
HETATM   17  C21 UNL     1      23.216  10.914 -13.058  1.00  0.00     0.015 C
HETATM   18  C22 UNL     1      23.475  11.922 -14.157  1.00  0.00     0.075 C
HETATM   19  O5  UNL     1      21.204  11.837 -14.939  1.00  0.00    -0.191 OA
HETATM   20  O6  UNL     1      20.453  12.559 -15.765  1.00  0.00    -0.144 OA
ENDROOT
BRANCH   1  21
HETATM   21  C4  UNL     1      17.772  12.545 -20.197  1.00  0.00     0.036 C
BRANCH  21  22
HETATM   22  C2  UNL     1      17.225  11.179 -19.911  1.00  0.00    -0.020 C
HETATM   23  C1  UNL     1      15.921  11.297 -19.154  1.00  0.00     0.009 C
HETATM   24  C3  UNL     1      16.875  10.534 -21.245  1.00  0.00     0.009 C
ENDBRANCH  21  22
ENDBRANCH   1  21
BRANCH  16  25
HETATM   25  C15 UNL     1      22.263  10.592 -10.863  1.00  0.00    -0.051 A
HETATM   26  C16 UNL     1      23.057  10.307  -9.774  1.00  0.00     0.007 A
HETATM   27  C17 UNL     1      22.685   9.326  -8.865  1.00  0.00     0.004 A
HETATM   28  C18 UNL     1      21.509   8.626  -9.048  1.00  0.00     0.042 A
HETATM   29  C19 UNL     1      20.719   8.914 -10.136  1.00  0.00     0.116 A
HETATM   30  F1  UNL     1      19.563   8.235 -10.327  1.00  0.00    -0.206 F
HETATM   31  C20 UNL     1      21.098   9.884 -11.024  1.00  0.00     0.049 A
ENDBRANCH  16  25
TORSDOF 3
ENDMDL