MODEL 1
REMARK VINA RESULT: -7.348271419      0.000      0.000
REMARK  4 active torsions:
REMARK  status: ('A' for Active; 'I' for Inactive)
REMARK    1  A    between atoms: C2_2  and  C3_3
REMARK    2  A    between atoms: C3_3  and  S1_4
REMARK    3  A    between atoms: S1_4  and  C4_5
REMARK    4  A    between atoms: C5_6  and  N1_7
ROOT
HETATM    1  C4  UNL     1      21.070   9.132  -9.655  1.00  0.00     0.085 C
HETATM    2  C5  UNL     1      20.220   9.512 -10.595  1.00  0.00     0.128 C
HETATM    3  C6  UNL     1      20.085  10.671 -11.448  1.00  0.00     0.051 C
HETATM    4  C7  UNL     1      21.234  11.359 -12.002  1.00  0.00    -0.011 A
HETATM    5  C8  UNL     1      21.045  11.626 -13.371  1.00  0.00     0.014 A
HETATM    6  C9  UNL     1      21.940  12.278 -14.139  1.00  0.00     0.020 A
HETATM    7  C10 UNL     1      23.115  12.715 -13.583  1.00  0.00     0.012 A
HETATM    8 BR1  UNL     1      24.362  13.646 -14.672  1.00  0.00    -0.051 Br
HETATM    9  C11 UNL     1      23.358  12.481 -12.242  1.00  0.00     0.044 A
HETATM   10  C12 UNL     1      22.414  11.807 -11.463  1.00  0.00     0.081 A
HETATM   11  S2  UNL     1      23.025  11.707  -9.826  1.00  0.00     0.236 S
HETATM   12  O3  UNL     1      24.541  11.824  -9.882  1.00  0.00    -0.211 OA
HETATM   13  O4  UNL     1      22.463  12.783  -8.934  1.00  0.00    -0.211 OA
HETATM   14  S3  UNL     1      22.575   9.856  -9.059  1.00  0.00     0.018 SA
ENDROOT
BRANCH   1  15
HETATM   15  S1  UNL     1      20.578   7.640  -8.822  1.00  0.00    -0.119 SA
BRANCH  15  16
HETATM   16  C3  UNL     1      19.950   7.828  -7.178  1.00  0.00     0.080 C
BRANCH  16  17
HETATM   17  C2  UNL     1      20.996   7.907  -6.133  1.00  0.00     0.006 C
HETATM   18  C1  UNL     1      21.148   9.220  -5.498  1.00  0.00     0.006 C
ENDBRANCH  16  17
ENDBRANCH  15  16
ENDBRANCH   1  15
BRANCH   2  19
HETATM   19  N1  UNL     1      19.093   8.600 -10.735  1.00  0.00    -0.114 N
HETATM   20  O1  UNL     1      18.474   8.150  -9.768  1.00  0.00    -0.532 OA
HETATM   21  O2  UNL     1      18.780   8.305 -12.030  1.00  0.00    -0.532 OA
ENDBRANCH   2  19
TORSDOF 4
ENDMDL