MODEL 2
REMARK VINA RESULT: -8.269563439      3.944      6.630
REMARK  7 active torsions:
REMARK  status: ('A' for Active; 'I' for Inactive)
REMARK       I    between atoms: C2_2  and  N1_4
REMARK    1  A    between atoms: N1_4  and  C3_6
REMARK    2  A    between atoms: C3_6  and  N2_8
REMARK    3  A    between atoms: N3_10  and  C4_12
REMARK    4  A    between atoms: C5_13  and  N4_14
REMARK    5  A    between atoms: N4_14  and  N5_16
REMARK    6  A    between atoms: N5_16  and  C6_18
REMARK    7  A    between atoms: C13_28  and  N6_29
ROOT
HETATM    1  C4  UNL     1      11.093  11.845  18.781  1.00  0.00     0.111 A
HETATM    2  C5  UNL     1      11.931  12.282  17.799  1.00  0.00     0.120 A
HETATM    3  S2  UNL     1      11.146  11.794  16.365  1.00  0.00    -0.063 SA
HETATM    4  C12 UNL     1       9.777  11.047  17.044  1.00  0.00     0.079 A
HETATM    5  C13 UNL     1       8.662  10.404  16.517  1.00  0.00     0.119 A
HETATM    6  N7  UNL     1       7.700   9.890  17.319  1.00  0.00    -0.338 N
ATOM      7  H7  UNL     1       6.876   9.415  16.953  1.00  0.00     0.168 HD
HETATM    8  C14 UNL     1       7.915  10.055  18.633  1.00  0.00     0.182 A
HETATM    9  N8  UNL     1       8.975  10.668  19.167  1.00  0.00    -0.349 N
ATOM     10  H8  UNL     1       9.047  10.743  20.182  1.00  0.00     0.166 HD
HETATM   11  C15 UNL     1       9.970  11.200  18.385  1.00  0.00     0.085 A
ENDROOT
BRANCH   2  12
HETATM   12  N4  UNL     1      13.178  12.986  17.917  1.00  0.00    -0.291 N
ATOM     13  H4  UNL     1      13.209  14.006  17.915  1.00  0.00     0.187 HD
BRANCH  12  14
HETATM   14  N5  UNL     1      14.255  12.289  18.026  1.00  0.00    -0.299 N
ATOM     15  H5  UNL     1      14.669  12.109  18.940  1.00  0.00     0.187 HD
BRANCH  14  16
HETATM   16  C6  UNL     1      14.855  11.774  16.843  1.00  0.00     0.065 A
HETATM   17  C7  UNL     1      14.851  10.400  16.614  1.00  0.00     0.034 A
HETATM   18  C8  UNL     1      15.428   9.895  15.477  1.00  0.00     0.026 A
HETATM   19  C9  UNL     1      16.005  10.750  14.571  1.00  0.00     0.035 A
HETATM   20 CL1  UNL     1      16.743  10.107  13.116  1.00  0.00    -0.084 Cl
HETATM   21  C10 UNL     1      16.015  12.124  14.790  1.00  0.00     0.045 A
HETATM   22  C11 UNL     1      15.435  12.628  15.932  1.00  0.00     0.040 A
HETATM   23 BR1  UNL     1      15.455  14.506  16.221  1.00  0.00    -0.049 Br
ENDBRANCH  14  16
ENDBRANCH  12  14
ENDBRANCH   2  12
BRANCH   1  24
HETATM   24  N3  UNL     1      11.457  12.095  20.166  1.00  0.00    -0.294 N
HETATM   25  N2  UNL     1      12.412  11.464  20.706  1.00  0.00    -0.276 N
ATOM     26  H2  UNL     1      12.936  10.772  20.171  1.00  0.00     0.189 HD
ATOM     27  H3  UNL     1      10.938  12.786  20.707  1.00  0.00     0.187 HD
BRANCH  25  28
HETATM   28  C3  UNL     1      12.749  11.721  22.051  1.00  0.00     0.193 C
HETATM   29  S1  UNL     1      13.099  10.494  23.068  1.00  0.00    -0.039 SA
BRANCH  28  30
HETATM   30  N1  UNL     1      12.788  13.053  22.536  1.00  0.00    -0.303 N
HETATM   31  C2  UNL     1      13.481  14.077  21.843  1.00  0.00     0.219 C
HETATM   32  C1  UNL     1      13.520  15.458  22.345  1.00  0.00     0.117 C
HETATM   33  O1  UNL     1      14.080  13.812  20.769  1.00  0.00    -0.274 OA
ATOM     34  H1  UNL     1      12.306  13.279  23.406  1.00  0.00     0.171 HD
ENDBRANCH  28  30
ENDBRANCH  25  28
ENDBRANCH   1  24
BRANCH   5  35
HETATM   35  N6  UNL     1       8.517  10.280  15.236  1.00  0.00    -0.384 N
ATOM     36  H62 UNL     1       8.814   9.405  14.802  1.00  0.00     0.157 HD
ATOM     37  H61 UNL     1       8.117  11.037  14.683  1.00  0.00     0.157 HD
ENDBRANCH   5  35
TORSDOF 7
ENDMDL