MODEL 4
REMARK VINA RESULT: -7.475518745      3.222      4.461
REMARK  4 active torsions:
REMARK  status: ('A' for Active; 'I' for Inactive)
REMARK    1  A    between atoms: C10_11  and  O1_12
REMARK    2  A    between atoms: O1_12  and  C11_13
REMARK    3  A    between atoms: C15_22  and  C16_23
REMARK       I    between atoms: C16_23  and  N4_25
REMARK    4  A    between atoms: N4_25  and  C17_27
ROOT
HETATM    1  C11 UNL     1       8.539  10.499  17.906  1.00  0.00     0.168 A
HETATM    2  N1  UNL     1       8.808   9.685  16.872  1.00  0.00    -0.332 N
ATOM      3  H1  UNL     1       9.684   9.166  16.805  1.00  0.00     0.168 HD
HETATM    4  C12 UNL     1       7.852   9.598  15.929  1.00  0.00     0.183 A
HETATM    5  N2  UNL     1       6.697  10.257  15.977  1.00  0.00    -0.350 N
ATOM      6  H2  UNL     1       6.028  10.130  15.217  1.00  0.00     0.166 HD
HETATM    7  C13 UNL     1       6.369  11.103  17.012  1.00  0.00     0.080 A
HETATM    8  C14 UNL     1       5.236  11.827  17.178  1.00  0.00     0.097 A
HETATM    9  N3  UNL     1       4.142  11.797  16.208  1.00  0.00    -0.098 NA
HETATM   10  C15 UNL     1       5.153  12.597  18.299  1.00  0.00     0.100 A
HETATM   11  S1  UNL     1       6.633  12.302  19.091  1.00  0.00    -0.076 SA
HETATM   12  C20 UNL     1       7.325  11.207  17.979  1.00  0.00     0.086 A
ENDROOT
BRANCH   1  13
HETATM   13  O1  UNL     1       9.403  10.711  18.961  1.00  0.00    -0.291 OA
BRANCH  13  14
HETATM   14  C10 UNL     1      10.528  11.477  18.973  1.00  0.00     0.101 A
HETATM   15  C9  UNL     1      10.891  12.344  19.959  1.00  0.00     0.068 A
HETATM   16  C8  UNL     1      12.076  13.072  19.844  1.00  0.00     0.037 A
HETATM   17 CL1  UNL     1       9.866  12.548  21.357  1.00  0.00    -0.081 Cl
HETATM   18  C7  UNL     1      12.895  12.934  18.745  1.00  0.00    -0.022 A
HETATM   19  C4  UNL     1      14.166  13.679  18.564  1.00  0.00    -0.016 C
HETATM   20  C22 UNL     1      12.524  12.056  17.748  1.00  0.00     0.038 A
HETATM   21  C3  UNL     1      15.186  12.653  18.072  1.00  0.00     0.038 C
HETATM   22  C5  UNL     1      14.669  14.220  19.887  1.00  0.00     0.020 C
HETATM   23  C6  UNL     1      14.033  14.822  17.600  1.00  0.00     0.020 C
HETATM   24  C2  UNL     1      14.831  12.153  16.689  1.00  0.00     0.078 C
HETATM   25  C1  UNL     1      15.487  10.797  16.524  1.00  0.00     0.032 C
HETATM   26  N5  UNL     1      13.401  11.938  16.617  1.00  0.00    -0.385 N
ATOM     27  H5  UNL     1      12.995  11.688  15.715  1.00  0.00     0.160 HD
HETATM   28  C21 UNL     1      11.370  11.348  17.862  1.00  0.00     0.069 A
ENDBRANCH  13  14
ENDBRANCH   1  13
BRANCH  10  29
HETATM   29  C16 UNL     1       4.060  13.475  18.737  1.00  0.00     0.262 C
HETATM   30  O2  UNL     1       3.774  13.472  19.954  1.00  0.00    -0.267 OA
HETATM   31  N4  UNL     1       3.360  14.285  17.846  1.00  0.00    -0.334 N
ATOM     32  H4  UNL     1       3.603  14.278  16.855  1.00  0.00     0.164 HD
BRANCH  31  33
HETATM   33  C17 UNL     1       2.301  15.126  18.313  1.00  0.00     0.103 C
HETATM   34  C18 UNL     1       2.778  16.117  19.345  1.00  0.00     0.056 C
HETATM   35  C19 UNL     1       1.653  15.904  17.182  1.00  0.00     0.056 C
HETATM   36 CL2  UNL     1       1.008  14.151  19.088  1.00  0.00    -0.096 Cl
ENDBRANCH  31  33
ENDBRANCH  10  29
TORSDOF 4
ENDMDL