MODEL 2
REMARK VINA RESULT: -7.394714449      1.080      1.157
REMARK  5 active torsions:
REMARK  status: ('A' for Active; 'I' for Inactive)
REMARK    1  A    between atoms: C4_4  and  O1_5
REMARK    2  A    between atoms: C18_21  and  S1_22
REMARK    3  A    between atoms: S1_22  and  S2_23
REMARK    4  A    between atoms: S2_23  and  C19_24
REMARK    5  A    between atoms: C19_24  and  N1_25
ROOT
HETATM    1  C1  UNL     1      11.439  11.024  20.513  1.00  0.00     0.018 C
HETATM    2  C2  UNL     1      11.462  12.132  19.520  1.00  0.00    -0.018 C
HETATM    3  C3  UNL     1      11.777  13.462  20.211  1.00  0.00     0.018 C
HETATM    4  C4  UNL     1      12.564  11.870  18.536  1.00  0.00     0.126 C
HETATM    5  C5  UNL     1      12.224  12.307  17.139  1.00  0.00     0.033 C
HETATM    6  C6  UNL     1      10.982  11.640  16.644  1.00  0.00     0.008 C
HETATM    7  C7  UNL     1       9.997  11.313  17.764  1.00  0.00    -0.002 C
HETATM    8  C8  UNL     1      10.105  12.339  18.829  1.00  0.00     0.000 C
HETATM    9  C9  UNL     1       9.034  12.322  19.848  1.00  0.00     0.007 C
HETATM   10  C10 UNL     1       7.732  11.711  19.413  1.00  0.00     0.011 C
HETATM   11  C11 UNL     1       7.528  11.808  17.907  1.00  0.00    -0.030 C
HETATM   12  C12 UNL     1       7.581  13.310  17.588  1.00  0.00     0.016 C
HETATM   13  C13 UNL     1       8.640  11.150  17.149  1.00  0.00     0.033 C
HETATM   14  C14 UNL     1       8.453   9.665  16.928  1.00  0.00     0.175 C
HETATM   15  F1  UNL     1       8.601   8.935  18.080  1.00  0.00    -0.249 F
HETATM   16  C15 UNL     1       7.139   9.352  16.307  1.00  0.00     0.043 C
HETATM   17  C16 UNL     1       6.074   9.841  17.294  1.00  0.00    -0.002 C
HETATM   18  C17 UNL     1       4.754   9.428  16.773  1.00  0.00     0.021 C
HETATM   19  C18 UNL     1       3.592  10.296  17.096  1.00  0.00     0.059 C
HETATM   20  C21 UNL     1       3.756  11.250  18.203  1.00  0.00     0.017 C
HETATM   21  C22 UNL     1       5.144  11.671  18.545  1.00  0.00     0.011 C
HETATM   22  C23 UNL     1       6.180  11.325  17.505  1.00  0.00    -0.033 C
HETATM   23  C24 UNL     1       5.843  11.978  16.161  1.00  0.00     0.016 C
ENDROOT
BRANCH  19  24
HETATM   24  S1  UNL     1       2.213   9.144  17.500  1.00  0.00    -0.087 SA
BRANCH  24  25
HETATM   25  S2  UNL     1       3.044   7.207  17.774  1.00  0.00    -0.009 SA
BRANCH  25  26
HETATM   26  C19 UNL     1       3.560   7.141  19.504  1.00  0.00     0.387 C
HETATM   27  N2  UNL     1       5.001   7.203  19.527  1.00  0.00    -0.058 NA
HETATM   28  N3  UNL     1       5.479   5.974  19.929  1.00  0.00    -0.254 N
HETATM   29  C20 UNL     1       4.460   5.228  20.269  1.00  0.00     0.321 C
ATOM     30  H3  UNL     1       6.460   5.695  19.956  1.00  0.00     0.187 HD
HETATM   31  F2  UNL     1       4.590   3.940  20.717  1.00  0.00    -0.156 F
HETATM   32  O2  UNL     1       3.275   5.922  20.111  1.00  0.00    -0.247 OA
BRANCH  26  33
HETATM   33  N1  UNL     1       3.073   8.282  20.258  1.00  0.00    -0.018 N
ATOM     34  H13 UNL     1       2.226   8.669  19.841  1.00  0.00     0.280 HD
ATOM     35  H12 UNL     1       2.690   7.995  21.159  1.00  0.00     0.280 HD
ATOM     36  H11 UNL     1       3.790   8.997  20.372  1.00  0.00     0.280 HD
ENDBRANCH  26  33
ENDBRANCH  25  26
ENDBRANCH  24  25
ENDBRANCH  19  24
BRANCH   4  37
HETATM   37  O1  UNL     1      13.729  12.569  18.916  1.00  0.00    -0.395 OA
ATOM     38  H1  UNL     1      13.498  13.417  19.275  1.00  0.00     0.210 HD
ENDBRANCH   4  37
TORSDOF 5
ENDMDL