MODEL 5
REMARK VINA RESULT: -6.667405014      4.436      6.352
REMARK  7 active torsions:
REMARK  status: ('A' for Active; 'I' for Inactive)
REMARK    1  A    between atoms: C2_2  and  O1_5
REMARK    2  A    between atoms: O1_5  and  C5_6
REMARK    3  A    between atoms: C5_6  and  O3_8
REMARK    4  A    between atoms: O3_8  and  C6_9
REMARK    5  A    between atoms: C6_9  and  C7_10
REMARK    6  A    between atoms: C8_12  and  N2_13
REMARK    7  A    between atoms: N2_13  and  C9_15
ROOT
HETATM    1  C7  UNL     1       9.370  11.946  19.453  1.00  0.00     0.080 C
HETATM    2  N1  UNL     1       9.671  12.610  20.674  1.00  0.00    -0.102 NA
HETATM    3  C8  UNL     1      10.367  11.585  18.692  1.00  0.00     0.131 C
ENDROOT
BRANCH   1   4
HETATM    4  C6  UNL     1       7.934  11.723  19.154  1.00  0.00     0.152 C
HETATM    5  C16 UNL     1       7.402  13.037  18.720  1.00  0.00     0.130 C
HETATM    6  S1  UNL     1       7.543  12.985  16.903  1.00  0.00    -0.125 SA
HETATM    7  C17 UNL     1       7.523  11.146  16.857  1.00  0.00     0.017 A
HETATM    8  C18 UNL     1       7.340  10.253  15.840  1.00  0.00     0.068 A
HETATM    9  C20 UNL     1       7.737  10.693  18.095  1.00  0.00     0.007 A
HETATM   10  S2  UNL     1       7.465   8.748  16.615  1.00  0.00    -0.112 SA
HETATM   11  C19 UNL     1       7.746   9.284  18.198  1.00  0.00     0.061 A
BRANCH   4  12
HETATM   12  O3  UNL     1       7.388  11.313  20.420  1.00  0.00    -0.275 OA
BRANCH  12  13
HETATM   13  C5  UNL     1       6.130  11.709  20.775  1.00  0.00     0.408 C
HETATM   14  O2  UNL     1       5.163  11.187  20.209  1.00  0.00    -0.229 OA
BRANCH  13  15
HETATM   15  O1  UNL     1       5.926  12.661  21.734  1.00  0.00    -0.288 OA
BRANCH  15  16
HETATM   16  C2  UNL     1       6.073  12.339  23.094  1.00  0.00     0.062 C
HETATM   17  C1  UNL     1       5.021  13.169  23.845  1.00  0.00     0.046 C
HETATM   18  C3  UNL     1       5.779  10.897  23.393  1.00  0.00     0.046 C
HETATM   19  C4  UNL     1       7.418  12.778  23.584  1.00  0.00     0.046 C
ENDBRANCH  15  16
ENDBRANCH  13  15
ENDBRANCH  12  13
ENDBRANCH   4  12
ENDBRANCH   1   4
BRANCH   3  20
HETATM   20  N2  UNL     1      11.731  11.811  19.003  1.00  0.00    -0.200 N
ATOM     21  H2  UNL     1      11.986  12.081  19.953  1.00  0.00     0.183 HD
BRANCH  20  22
HETATM   22  C9  UNL     1      12.649  11.685  18.125  1.00  0.00     0.683 A
HETATM   23  N3  UNL     1      13.034  10.555  17.499  1.00  0.00    -0.189 N
HETATM   24  C10 UNL     1      14.019  10.857  16.661  1.00  0.00     0.079 A
ATOM     25  H3  UNL     1      12.637   9.626  17.644  1.00  0.00     0.184 HD
HETATM   26  C11 UNL     1      14.783  10.115  15.777  1.00  0.00     0.056 A
HETATM   27  C15 UNL     1      14.265  12.208  16.760  1.00  0.00     0.098 A
HETATM   28  C12 UNL     1      15.775  10.734  15.010  1.00  0.00     0.037 A
HETATM   29 CL1  UNL     1      16.710   9.755  13.912  1.00  0.00    -0.084 Cl
HETATM   30  C13 UNL     1      16.011  12.070  15.116  1.00  0.00     0.050 A
HETATM   31  C14 UNL     1      15.245  12.818  16.002  1.00  0.00     0.065 A
HETATM   32 CL2  UNL     1      15.544  14.528  16.137  1.00  0.00    -0.082 Cl
HETATM   33  N4  UNL     1      13.407  12.697  17.670  1.00  0.00    -0.188 N
ATOM     34  H4  UNL     1      13.341  13.671  17.964  1.00  0.00     0.184 HD
ENDBRANCH  20  22
ENDBRANCH   3  20
TORSDOF 7
ENDMDL