MODEL 4
REMARK VINA RESULT: -7.830531758      5.351      7.878
REMARK  4 active torsions:
REMARK  status: ('A' for Active; 'I' for Inactive)
REMARK    1  A    between atoms: C3_8  and  C4_9
REMARK    2  A    between atoms: C9_21  and  N6_22
REMARK    3  A    between atoms: N6_22  and  C10_24
REMARK    4  A    between atoms: C13_29  and  C14_30
ROOT
HETATM    1 CL1  UNL     1      14.698  14.624  20.524  1.00  0.00    -0.062 Cl
HETATM    2  C1  UNL     1      14.354  13.444  19.254  1.00  0.00     0.134 A
HETATM    3  N1  UNL     1      15.277  13.144  18.354  1.00  0.00    -0.329 N
ATOM      4  H1  UNL     1      16.192  13.593  18.392  1.00  0.00     0.168 HD
HETATM    5  C2  UNL     1      15.007  12.243  17.388  1.00  0.00     0.137 A
HETATM    6  N2  UNL     1      15.706  11.732  16.354  1.00  0.00    -0.326 N
ATOM      7  H2  UNL     1      16.666  11.981  16.117  1.00  0.00     0.169 HD
HETATM    8  C3  UNL     1      14.953  10.845  15.682  1.00  0.00     0.120 A
HETATM    9  N5  UNL     1      13.768  10.790  16.287  1.00  0.00    -0.337 N
ATOM     10  H5  UNL     1      12.987  10.200  16.000  1.00  0.00     0.167 HD
HETATM   11  C7  UNL     1      13.761  11.641  17.350  1.00  0.00     0.102 A
HETATM   12  C8  UNL     1      12.791  11.943  18.277  1.00  0.00     0.095 A
HETATM   13 CL2  UNL     1      11.216  11.194  18.243  1.00  0.00    -0.079 Cl
HETATM   14  C9  UNL     1      13.102  12.875  19.259  1.00  0.00     0.112 A
ENDROOT
BRANCH  14  15
HETATM   15  N6  UNL     1      12.132  13.223  20.244  1.00  0.00    -0.187 N
ATOM     16  H6  UNL     1      11.390  13.887  20.023  1.00  0.00     0.184 HD
BRANCH  15  17
HETATM   17  C10 UNL     1      12.201  12.679  21.442  1.00  0.00     0.683 A
HETATM   18  N7  UNL     1      11.728  13.352  22.485  1.00  0.00    -0.190 N
HETATM   19  C11 UNL     1      11.783  12.815  23.748  1.00  0.00     0.069 A
ATOM     20  H7  UNL     1      11.319  14.276  22.346  1.00  0.00     0.184 HD
HETATM   21  C12 UNL     1      11.343  13.381  24.901  1.00  0.00     0.051 A
HETATM   22  C18 UNL     1      12.346  11.579  23.835  1.00  0.00     0.049 A
HETATM   23  C13 UNL     1      11.503  12.661  26.039  1.00  0.00     0.018 A
HETATM   24  S2  UNL     1      12.256  11.225  25.495  1.00  0.00    -0.086 SA
HETATM   25  C19 UNL     1      12.836  10.901  22.711  1.00  0.00     0.127 A
HETATM   26  N8  UNL     1      12.766  11.454  21.488  1.00  0.00    -0.200 N
ATOM     27  H8  UNL     1      13.115  10.982  20.654  1.00  0.00     0.183 HD
BRANCH  23  28
HETATM   28  C14 UNL     1      11.115  13.034  27.430  1.00  0.00    -0.012 A
HETATM   29  C15 UNL     1      11.627  12.401  28.503  1.00  0.00     0.020 A
HETATM   30  C16 UNL     1      11.202  12.824  29.731  1.00  0.00     0.050 A
HETATM   31  S1  UNL     1      10.114  14.076  29.361  1.00  0.00    -0.113 SA
HETATM   32  C17 UNL     1      10.219  14.040  27.663  1.00  0.00     0.062 A
ENDBRANCH  23  28
ENDBRANCH  15  17
ENDBRANCH  14  15
BRANCH   8  33
HETATM   33  C4  UNL     1      15.393  10.097  14.501  1.00  0.00     0.042 A
HETATM   34  C5  UNL     1      16.413  10.400  13.633  1.00  0.00     0.123 A
HETATM   35  N3  UNL     1      16.487   9.458  12.686  1.00  0.00    -0.311 N
HETATM   36  N4  UNL     1      15.531   8.571  12.947  1.00  0.00    -0.311 N
ATOM     37  H3  UNL     1      17.150   9.426  11.912  1.00  0.00     0.186 HD
HETATM   38  C6  UNL     1      14.843   8.926  14.044  1.00  0.00     0.123 A
ATOM     39  H4  UNL     1      15.346   7.737  12.389  1.00  0.00     0.186 HD
ENDBRANCH   8  33
TORSDOF 4
ENDMDL