MODEL 4
REMARK VINA RESULT: -7.516535510      3.655      5.375
REMARK  3 active torsions:
REMARK  status: ('A' for Active; 'I' for Inactive)
REMARK    1  A    between atoms: C4_8  and  S1_9
REMARK    2  A    between atoms: S1_9  and  C5_10
REMARK    3  A    between atoms: C11_26  and  C12_27
ROOT
HETATM    1  C1  UNL     1      12.400  12.474  23.704  1.00  0.00     0.063 C
HETATM    2  C2  UNL     1      11.808  12.269  22.313  1.00  0.00    -0.015 C
HETATM    3  N1  UNL     1      10.585  12.581  22.108  1.00  0.00    -0.349 N
ATOM      4  H1  UNL     1      10.009  12.958  22.860  1.00  0.00     0.167 HD
HETATM    5  C3  UNL     1      10.038  12.385  20.783  1.00  0.00     0.115 A
HETATM    6  N2  UNL     1       8.732  12.673  20.578  1.00  0.00    -0.335 N
ATOM      7  H2  UNL     1       8.168  13.046  21.341  1.00  0.00     0.168 HD
HETATM    8  C4  UNL     1       8.181  12.471  19.386  1.00  0.00     0.101 A
HETATM    9  C7  UNL     1       8.935  11.969  18.356  1.00  0.00     0.105 A
HETATM   10  C8  UNL     1       8.327  11.753  17.069  1.00  0.00     0.104 C
HETATM   11  N5  UNL     1       7.855  11.565  16.043  1.00  0.00    -0.191 NA
HETATM   12  C9  UNL     1      10.250  11.666  18.514  1.00  0.00     0.060 A
HETATM   13  N6  UNL     1      10.997  11.190  17.567  1.00  0.00    -0.397 N
ATOM     14  H61 UNL     1      11.984  10.962  17.686  1.00  0.00     0.156 HD
ATOM     15  H62 UNL     1      10.586  11.030  16.648  1.00  0.00     0.156 HD
HETATM   16  C10 UNL     1      10.821  11.889  19.793  1.00  0.00     0.023 A
HETATM   17  C11 UNL     1      12.236  11.613  19.977  1.00  0.00     0.063 C
HETATM   18  C19 UNL     1      12.737  11.690  21.340  1.00  0.00     0.066 C
ENDROOT
BRANCH   8  19
HETATM   19  S1  UNL     1       6.437  12.875  19.181  1.00  0.00    -0.044 SA
BRANCH  19  20
HETATM   20  C5  UNL     1       6.206  14.486  19.970  1.00  0.00     0.135 A
HETATM   21  N3  UNL     1       6.124  15.678  19.399  1.00  0.00    -0.286 N
HETATM   22  N4  UNL     1       5.960  16.717  20.108  1.00  0.00    -0.283 N
ATOM     23  H3  UNL     1       6.193  15.762  18.384  1.00  0.00     0.188 HD
HETATM   24  C6  UNL     1       5.873  16.580  21.436  1.00  0.00     0.159 A
ATOM     25  H4  UNL     1       5.896  17.638  19.675  1.00  0.00     0.188 HD
HETATM   26  S2  UNL     1       5.661  17.774  22.563  1.00  0.00    -0.051 SA
HETATM   27  S3  UNL     1       6.037  14.888  21.624  1.00  0.00    -0.033 SA
ENDBRANCH  19  20
ENDBRANCH   8  19
BRANCH  17  28
HETATM   28  C12 UNL     1      13.092  12.303  18.972  1.00  0.00    -0.041 A
HETATM   29  C13 UNL     1      13.730  11.606  17.983  1.00  0.00     0.034 A
HETATM   30  C14 UNL     1      14.538  12.194  17.029  1.00  0.00     0.056 A
HETATM   31 CL1  UNL     1      15.339  11.249  15.773  1.00  0.00    -0.083 Cl
HETATM   32  C15 UNL     1      14.684  13.560  17.112  1.00  0.00     0.056 A
HETATM   33 CL2  UNL     1      15.697  14.356  15.928  1.00  0.00    -0.083 Cl
HETATM   34  C16 UNL     1      14.054  14.277  18.095  1.00  0.00     0.033 A
HETATM   35  C17 UNL     1      13.247  13.656  19.040  1.00  0.00    -0.053 A
HETATM   36  C18 UNL     1      12.602  14.514  20.063  1.00  0.00     0.049 C
ENDBRANCH  17  28
TORSDOF 3
ENDMDL