MODEL 1
REMARK VINA RESULT: -7.611593824      0.000      0.000
REMARK  5 active torsions:
REMARK  status: ('A' for Active; 'I' for Inactive)
REMARK    1  A    between atoms: C2_3  and  C3_4
REMARK    2  A    between atoms: C5_7  and  N2_8
REMARK    3  A    between atoms: N2_8  and  N3_10
REMARK    4  A    between atoms: C6_12  and  C7_13
REMARK    5  A    between atoms: C12_20  and  O1_21
ROOT
HETATM    1  C3  UNL     1      14.358  12.832  18.223  1.00  0.00     0.060 A
HETATM    2  C4  UNL     1      13.069  12.700  18.684  1.00  0.00     0.084 A
HETATM    3  S1  UNL     1      13.023  13.768  20.007  1.00  0.00    -0.062 SA
HETATM    4  C5  UNL     1      14.628  14.332  19.921  1.00  0.00     0.163 A
HETATM    5  N4  UNL     1      15.133  13.675  18.878  1.00  0.00    -0.334 N
ATOM      6  H4  UNL     1      16.101  13.822  18.591  1.00  0.00     0.168 HD
ENDROOT
BRANCH   4   7
HETATM    7  N2  UNL     1      15.207  15.206  20.706  1.00  0.00    -0.280 N
ATOM      8  H2  UNL     1      15.272  15.018  21.706  1.00  0.00     0.189 HD
BRANCH   7   9
HETATM    9  N3  UNL     1      15.725  16.368  20.204  1.00  0.00    -0.309 N
HETATM   10  C6  UNL     1      15.999  17.412  20.896  1.00  0.00     0.123 C
ATOM     11  H3  UNL     1      15.907  16.407  19.202  1.00  0.00     0.186 HD
BRANCH  10  12
HETATM   12  C7  UNL     1      16.546  18.644  20.379  1.00  0.00     0.037 A
HETATM   13  C8  UNL     1      15.877  19.831  20.570  1.00  0.00     0.048 A
HETATM   14 CL1  UNL     1      14.366  19.940  21.425  1.00  0.00    -0.083 Cl
HETATM   15  C9  UNL     1      16.430  21.000  20.054  1.00  0.00     0.026 A
HETATM   16  C10 UNL     1      17.626  20.976  19.365  1.00  0.00     0.024 A
HETATM   17  C11 UNL     1      18.294  19.794  19.175  1.00  0.00     0.045 A
HETATM   18 BR1  UNL     1      19.945  19.722  18.229  1.00  0.00    -0.048 Br
HETATM   19  C12 UNL     1      17.736  18.628  19.693  1.00  0.00     0.096 A
BRANCH  19  20
HETATM   20  O1  UNL     1      18.422  17.442  19.493  1.00  0.00    -0.358 OA
ATOM     21  H1  UNL     1      19.153  17.203  20.050  1.00  0.00     0.217 HD
ENDBRANCH  19  20
ENDBRANCH  10  12
ENDBRANCH   7   9
ENDBRANCH   4   7
BRANCH   1  22
HETATM   22  C2  UNL     1      14.804  12.029  17.033  1.00  0.00     0.058 A
HETATM   23  C1  UNL     1      15.576  12.336  15.977  1.00  0.00     0.084 A
HETATM   24  N1  UNL     1      16.191  13.640  15.800  1.00  0.00    -0.099 NA
HETATM   25  C16 UNL     1      15.781  11.352  15.037  1.00  0.00     0.047 A
HETATM   26  C13 UNL     1      15.215  10.167  15.218  1.00  0.00     0.025 A
HETATM   27  S3  UNL     1      16.626  11.102  13.523  1.00  0.00    -0.099 SA
HETATM   28  S2  UNL     1      14.373  10.410  16.727  1.00  0.00    -0.085 SA
HETATM   29  C14 UNL     1      15.414   9.179  14.289  1.00  0.00     0.027 A
HETATM   30  C15 UNL     1      16.193   9.483  13.223  1.00  0.00     0.052 A
ENDBRANCH   1  22
TORSDOF 5
ENDMDL