MODEL 5
REMARK VINA RESULT: -6.600773752      3.290      4.424
REMARK  5 active torsions:
REMARK  status: ('A' for Active; 'I' for Inactive)
REMARK    1  A    between atoms: S1_3  and  C3_4
REMARK    2  A    between atoms: C3_4  and  C4_5
REMARK    3  A    between atoms: C5_6  and  C6_7
REMARK    4  A    between atoms: C6_7  and  C8_10
REMARK    5  A    between atoms: C6_7  and  C14_18
ROOT
HETATM    1  C1  UNL     1      15.578  16.893  19.725  1.00  0.00     0.025 C
HETATM    2  C2  UNL     1      14.941  16.893  20.757  1.00  0.00    -0.044 C
HETATM    3  S1  UNL     1      14.040  16.882  22.270  1.00  0.00    -0.067 SA
ENDROOT
BRANCH   3   4
HETATM    4  C3  UNL     1      12.373  16.273  21.971  1.00  0.00     0.182 C
BRANCH   4   5
HETATM    5  C4  UNL     1      12.348  15.030  21.226  1.00  0.00    -0.093 C
HETATM    6  C5  UNL     1      12.324  13.985  20.625  1.00  0.00    -0.070 C
BRANCH   6   7
HETATM    7  C6  UNL     1      12.300  12.694  19.913  1.00  0.00     0.174 C
HETATM    8  C7  UNL     1      12.663  11.670  20.924  1.00  0.00     0.093 C
HETATM    9  N1  UNL     1      12.957  10.886  21.725  1.00  0.00    -0.195 NA
BRANCH   7  10
HETATM   10  C8  UNL     1      13.194  12.669  18.768  1.00  0.00    -0.017 A
HETATM   11  C9  UNL     1      13.726  13.827  18.265  1.00  0.00     0.012 A
HETATM   12  C10 UNL     1      14.586  13.801  17.160  1.00  0.00     0.026 A
HETATM   13  C11 UNL     1      14.883  12.594  16.598  1.00  0.00     0.055 A
HETATM   14 CL1  UNL     1      15.949  12.517  15.223  1.00  0.00    -0.083 Cl
HETATM   15  C12 UNL     1      14.364  11.414  17.083  1.00  0.00     0.056 A
HETATM   16 CL2  UNL     1      14.780   9.893  16.319  1.00  0.00    -0.083 Cl
HETATM   17  C13 UNL     1      13.522  11.480  18.169  1.00  0.00     0.035 A
ENDBRANCH   7  10
BRANCH   7  18
HETATM   18  C14 UNL     1      10.881  12.430  19.555  1.00  0.00     0.049 A
HETATM   19  S2  UNL     1      10.315  11.919  18.051  1.00  0.00    -0.071 SA
HETATM   20  C15 UNL     1       8.608  11.830  18.400  1.00  0.00     0.090 A
HETATM   21  N2  UNL     1       7.600  11.472  17.578  1.00  0.00    -0.330 N
HETATM   22  C18 UNL     1       8.557  12.210  19.700  1.00  0.00     0.051 A
HETATM   23  C16 UNL     1       6.299  11.409  17.858  1.00  0.00     0.144 A
ATOM     24  H2  UNL     1       7.866  11.219  16.626  1.00  0.00     0.168 HD
HETATM   25  N3  UNL     1       5.409  11.048  16.978  1.00  0.00    -0.380 N
HETATM   26  S3  UNL     1       5.945  11.842  19.455  1.00  0.00    -0.042 SA
ATOM     27  H32 UNL     1       5.622  10.786  16.016  1.00  0.00     0.158 HD
ATOM     28  H31 UNL     1       4.413  11.000  17.193  1.00  0.00     0.158 HD
HETATM   29  C17 UNL     1       7.306  12.267  20.366  1.00  0.00     0.090 A
HETATM   30  S4  UNL     1       7.171  12.720  21.940  1.00  0.00    -0.071 SA
HETATM   31  C19 UNL     1       9.745  12.525  20.306  1.00  0.00     0.077 A
HETATM   32  N4  UNL     1       9.908  12.959  21.700  1.00  0.00    -0.100 NA
ENDBRANCH   7  18
ENDBRANCH   6   7
ENDBRANCH   4   5
ENDBRANCH   3   4
TORSDOF 5
ENDMDL