MODEL 2
REMARK VINA RESULT: -7.409894284      0.895      1.232
REMARK  9 active torsions:
REMARK  status: ('A' for Active; 'I' for Inactive)
REMARK    1  A    between atoms: S1_2  and  C2_3
REMARK    2  A    between atoms: C2_3  and  N1_4
REMARK    3  A    between atoms: C2_3  and  C7_12
REMARK    4  A    between atoms: N1_4  and  S2_5
REMARK    5  A    between atoms: S2_5  and  C3_8
REMARK    6  A    between atoms: C10_15  and  N2_16
REMARK    7  A    between atoms: N3_18  and  N4_20
REMARK    8  A    between atoms: N4_20  and  C11_22
REMARK    9  A    between atoms: C12_25  and  O3_26
ROOT
HETATM    1  C7  UNL     1       9.639  11.807  17.544  1.00  0.00     0.036 A
HETATM    2  C8  UNL     1      10.365  11.826  16.369  1.00  0.00     0.019 A
HETATM    3  C9  UNL     1      11.747  11.956  16.386  1.00  0.00     0.034 A
HETATM    4  C10 UNL     1      12.455  12.070  17.562  1.00  0.00     0.073 A
HETATM    5  C14 UNL     1      11.731  12.051  18.734  1.00  0.00     0.084 A
HETATM    6 CL1  UNL     1      12.624  12.196  20.244  1.00  0.00    -0.080 Cl
HETATM    7  C15 UNL     1      10.357  11.922  18.714  1.00  0.00     0.072 A
HETATM    8 CL2  UNL     1       9.462  11.900  20.217  1.00  0.00    -0.081 Cl
ENDROOT
BRANCH   4   9
HETATM    9  N2  UNL     1      13.878  12.204  17.581  1.00  0.00    -0.285 N
HETATM   10  N3  UNL     1      14.660  11.275  17.247  1.00  0.00    -0.240 N
ATOM     11  H3  UNL     1      15.668  11.427  17.280  1.00  0.00     0.208 HD
ATOM     12  H2  UNL     1      14.279  13.093  17.879  1.00  0.00     0.188 HD
BRANCH  10  13
HETATM   13  N4  UNL     1      14.169  10.057  16.839  1.00  0.00    -0.265 N
ATOM     14  H4  UNL     1      13.607   9.490  17.472  1.00  0.00     0.190 HD
BRANCH  13  15
HETATM   15  C11 UNL     1      14.432   9.634  15.622  1.00  0.00     0.166 A
HETATM   16  N5  UNL     1      13.687   8.853  14.843  1.00  0.00    -0.316 N
HETATM   17  C12 UNL     1      14.127   8.544  13.659  1.00  0.00     0.148 A
ATOM     18  H5  UNL     1      12.786   8.504  15.168  1.00  0.00     0.170 HD
HETATM   19  C13 UNL     1      15.345   9.045  13.279  1.00  0.00     0.109 A
HETATM   20  S3  UNL     1      15.802   9.946  14.656  1.00  0.00    -0.060 SA
BRANCH  17  21
HETATM   21  O3  UNL     1      13.415   7.717  12.743  1.00  0.00    -0.346 OA
ATOM     22  H3  UNL     1      13.819   7.020  12.241  1.00  0.00     0.219 HD
ENDBRANCH  17  21
ENDBRANCH  13  15
ENDBRANCH  10  13
ENDBRANCH   4   9
BRANCH   1  23
HETATM   23  C2  UNL     1       8.175  11.670  17.537  1.00  0.00     0.169 C
BRANCH  23  24
HETATM   24  S1  UNL     1       7.238  13.206  17.624  1.00  0.00    -0.100 SA
HETATM   25  C1  UNL     1       6.108  13.076  19.034  1.00  0.00     0.098 C
ENDBRANCH  23  24
BRANCH  23  26
HETATM   26  N1  UNL     1       7.643  10.626  17.478  1.00  0.00    -0.314 NA
BRANCH  26  27
HETATM   27  S2  UNL     1       6.866   9.230  17.400  1.00  0.00     0.300 S
HETATM   28  O1  UNL     1       7.452   8.337  16.295  1.00  0.00    -0.191 OA
HETATM   29  O2  UNL     1       6.980   8.426  18.701  1.00  0.00    -0.191 OA
BRANCH  27  30
HETATM   30  C3  UNL     1       5.119   9.279  17.046  1.00  0.00     0.084 C
HETATM   31  C4  UNL     1       4.784  10.193  15.914  1.00  0.00     0.034 C
HETATM   32  C5  UNL     1       4.598   7.893  16.744  1.00  0.00     0.034 C
HETATM   33  C6  UNL     1       4.434   9.795  18.294  1.00  0.00     0.034 C
ENDBRANCH  27  30
ENDBRANCH  26  27
ENDBRANCH  23  26
ENDBRANCH   1  23
TORSDOF 9
ENDMDL