MODEL 2
REMARK VINA RESULT: -6.264633062      1.024      1.338
REMARK  5 active torsions:
REMARK  status: ('A' for Active; 'I' for Inactive)
REMARK    1  A    between atoms: C2_2  and  C3_3
REMARK    2  A    between atoms: C3_3  and  C4_4
REMARK    3  A    between atoms: C4_4  and  N1_5
REMARK       I    between atoms: N2_7  and  C6_8
REMARK    4  A    between atoms: C6_8  and  C7_10
REMARK    5  A    between atoms: C7_10  and  C8_11
ROOT
HETATM    1  N1  UNL     1      12.730  11.709  -0.257  1.00  0.00    -0.349 N
HETATM    2  C5  UNL     1      13.802  10.749  -0.121  1.00  0.00     0.254 C
HETATM    3  N2  UNL     1      14.862  10.946  -1.081  1.00  0.00    -0.326 N
HETATM    4  C6  UNL     1      16.162  10.410  -0.713  1.00  0.00     0.222 C
HETATM    5  O1  UNL     1      16.299   9.807   0.379  1.00  0.00    -0.273 OA
HETATM    6  C12 UNL     1      14.709  11.586  -2.347  1.00  0.00     0.139 C
HETATM    7  C13 UNL     1      14.577  10.537  -3.466  1.00  0.00     0.039 C
HETATM    8  C14 UNL     1      13.515  12.512  -2.414  1.00  0.00     0.084 A
HETATM    9  N3  UNL     1      13.304  13.333  -3.471  1.00  0.00    -0.311 N
ATOM     10  H3  UNL     1      13.882  13.440  -4.304  1.00  0.00     0.175 HD
HETATM   11  S1  UNL     1      11.887  14.128  -3.102  1.00  0.00     0.069 SA
HETATM   12  N4  UNL     1      11.578  13.415  -1.618  1.00  0.00    -0.297 N
ATOM     13  H4  UNL     1      10.792  13.590  -0.992  1.00  0.00     0.177 HD
HETATM   14  C15 UNL     1      12.599  12.561  -1.439  1.00  0.00     0.137 A
ENDROOT
BRANCH   4  15
HETATM   15  C7  UNL     1      17.320  10.558  -1.596  1.00  0.00     0.111 C
BRANCH  15  16
HETATM   16  C8  UNL     1      18.316  11.598  -1.194  1.00  0.00    -0.043 C
HETATM   17  C9  UNL     1      18.916  12.215  -2.479  1.00  0.00     0.015 C
HETATM   18  C10 UNL     1      17.734  12.778  -0.454  1.00  0.00     0.015 C
HETATM   19  C11 UNL     1      19.465  11.042  -0.406  1.00  0.00     0.015 C
ENDBRANCH  15  16
ENDBRANCH   4  15
BRANCH   1  20
HETATM   20  C4  UNL     1      11.782  11.791   0.806  1.00  0.00     0.126 C
BRANCH  20  21
HETATM   21  C3  UNL     1      10.951  10.630   1.145  1.00  0.00     0.020 C
BRANCH  21  22
HETATM   22  C2  UNL     1      10.396  10.457   2.501  1.00  0.00    -0.003 C
HETATM   23  C1  UNL     1      10.799   9.026   2.953  1.00  0.00     0.005 C
ENDBRANCH  21  22
ENDBRANCH  20  21
ENDBRANCH   1  20
TORSDOF 5
ENDMDL