MODEL 1
REMARK VINA RESULT: -5.673125445      0.000      0.000
REMARK  7 active torsions:
REMARK  status: ('A' for Active; 'I' for Inactive)
REMARK    1  A    between atoms: C2_2  and  C4_4
REMARK    2  A    between atoms: C4_4  and  C5_5
REMARK    3  A    between atoms: C4_4  and  C8_9
REMARK    4  A    between atoms: C5_5  and  C6_6
REMARK    5  A    between atoms: C12_14  and  C14_16
REMARK    6  A    between atoms: C14_16  and  O4_18
REMARK    7  A    between atoms: O4_18  and  C15_19
ROOT
HETATM    1  C8  UNL     1      13.700  12.197  -2.641  1.00  0.00     0.041 C
HETATM    2  C9  UNL     1      12.922  12.009  -3.902  1.00  0.00     0.018 C
HETATM    3  C10 UNL     1      13.809  12.312  -5.079  1.00  0.00     0.080 C
HETATM    4  C11 UNL     1      15.141  12.473  -4.438  1.00  0.00     0.145 C
HETATM    5  O2  UNL     1      16.090  13.024  -4.932  1.00  0.00    -0.297 OA
HETATM    6  C12 UNL     1      15.046  11.810  -3.070  1.00  0.00     0.112 C
HETATM    7  C13 UNL     1      15.004  10.294  -3.445  1.00  0.00     0.035 C
ENDROOT
BRANCH   1   8
HETATM    8  C4  UNL     1      13.458  13.376  -1.801  1.00  0.00    -0.062 C
BRANCH   8   9
HETATM    9  C2  UNL     1      13.066  14.654  -2.364  1.00  0.00    -0.068 C
HETATM   10  C1  UNL     1      11.780  15.104  -2.263  1.00  0.00     0.018 C
HETATM   11  C3  UNL     1      13.897  15.640  -3.110  1.00  0.00     0.047 C
ENDBRANCH   8   9
BRANCH   8  12
HETATM   12  C5  UNL     1      12.893  13.038  -0.438  1.00  0.00     0.113 C
BRANCH  12  13
HETATM   13  C6  UNL     1      11.951  11.974  -0.274  1.00  0.00     0.127 C
HETATM   14  C7  UNL     1      12.476  10.655   0.262  1.00  0.00     0.091 C
HETATM   15  O1  UNL     1      10.779  11.977  -0.504  1.00  0.00    -0.298 OA
ENDBRANCH  12  13
ENDBRANCH   8  12
ENDBRANCH   1   8
BRANCH   6  16
HETATM   16  C14 UNL     1      16.253  12.097  -2.369  1.00  0.00     0.276 C
HETATM   17  O3  UNL     1      16.784  13.152  -1.991  1.00  0.00    -0.264 OA
BRANCH  16  18
HETATM   18  O4  UNL     1      17.028  10.946  -2.016  1.00  0.00    -0.310 OA
BRANCH  18  19
HETATM   19  C15 UNL     1      17.300  10.597  -0.707  1.00  0.00     0.060 C
HETATM   20  C16 UNL     1      16.171  10.780   0.251  1.00  0.00     0.045 C
HETATM   21  C17 UNL     1      18.515  11.320  -0.139  1.00  0.00     0.045 C
HETATM   22  C18 UNL     1      17.653   9.110  -0.709  1.00  0.00     0.045 C
ENDBRANCH  18  19
ENDBRANCH  16  18
ENDBRANCH   6  16
TORSDOF 7
ENDMDL