MODEL 1
REMARK VINA RESULT: -7.138304322      0.000      0.000
REMARK  4 active torsions:
REMARK  status: ('A' for Active; 'I' for Inactive)
REMARK    1  A    between atoms: C2_2  and  C3_3
REMARK    2  A    between atoms: C3_3  and  C4_4
REMARK    3  A    between atoms: C4_4  and  N1_5
REMARK    4  A    between atoms: C6_7  and  C7_8
ROOT
HETATM    1  N1  UNL     1      13.083  10.903  -0.066  1.00  0.00    -0.388 N
HETATM    2  C5  UNL     1      12.819  12.196  -0.607  1.00  0.00     0.101 C
HETATM    3  C6  UNL     1      13.577  12.655  -1.623  1.00  0.00     0.055 C
HETATM    4  C10 UNL     1      14.605  11.726  -2.069  1.00  0.00     0.206 C
HETATM    5  O2  UNL     1      15.424  12.111  -3.070  1.00  0.00    -0.348 OA
HETATM    6  C11 UNL     1      15.229  11.310  -4.193  1.00  0.00     0.198 C
HETATM    7  C12 UNL     1      14.473  10.144  -3.668  1.00  0.00     0.198 C
HETATM    8  O3  UNL     1      13.958  10.530  -2.469  1.00  0.00    -0.348 OA
HETATM    9  C13 UNL     1      15.385  11.280  -0.822  1.00  0.00     0.037 C
HETATM   10  C14 UNL     1      16.395  10.247  -1.319  1.00  0.00     0.017 C
HETATM   11  C15 UNL     1      17.443  10.355  -0.202  1.00  0.00     0.001 C
HETATM   12  C16 UNL     1      17.647  11.865  -0.181  1.00  0.00     0.001 C
HETATM   13  C17 UNL     1      16.199  12.369  -0.217  1.00  0.00     0.017 C
HETATM   14  C18 UNL     1      14.481  10.550   0.141  1.00  0.00     0.137 C
ENDROOT
BRANCH   3  15
HETATM   15  C7  UNL     1      13.268  13.960  -2.125  1.00  0.00     0.105 A
HETATM   16  C8  UNL     1      12.051  14.599  -2.156  1.00  0.00     0.127 A
HETATM   17  N2  UNL     1      12.206  15.813  -2.713  1.00  0.00    -0.354 N
HETATM   18  C9  UNL     1      13.493  15.912  -3.015  1.00  0.00     0.233 A
ATOM     19  H2  UNL     1      11.482  16.514  -2.871  1.00  0.00     0.166 HD
HETATM   20  O1  UNL     1      14.104  14.834  -2.671  1.00  0.00    -0.304 OA
ENDBRANCH   3  15
BRANCH   1  21
HETATM   21  C4  UNL     1      12.015   9.998   0.258  1.00  0.00     0.122 C
BRANCH  21  22
HETATM   22  C3  UNL     1      10.717  10.664   0.609  1.00  0.00     0.019 C
BRANCH  22  23
HETATM   23  C2  UNL     1      10.670  10.778   2.126  1.00  0.00    -0.003 C
HETATM   24  C1  UNL     1      10.711   9.409   2.766  1.00  0.00     0.005 C
ENDBRANCH  22  23
ENDBRANCH  21  22
ENDBRANCH   1  21
TORSDOF 4
ENDMDL