MODEL 3
REMARK VINA RESULT: -7.169350873      1.049      1.110
REMARK  4 active torsions:
REMARK  status: ('A' for Active; 'I' for Inactive)
REMARK    1  A    between atoms: C2_2  and  C4_4
REMARK    2  A    between atoms: C5_8  and  N2_9
REMARK    3  A    between atoms: N3_16  and  C12_17
REMARK    4  A    between atoms: C12_17  and  C13_18
ROOT
HETATM    1  N2  UNL     1      16.854   9.705  -0.570  1.00  0.00    -0.344 N
HETATM    2  C6  UNL     1      16.737   9.736  -2.010  1.00  0.00     0.128 C
HETATM    3  C7  UNL     1      15.553  10.478  -2.513  1.00  0.00     0.056 C
HETATM    4  C8  UNL     1      15.385  11.870  -1.925  1.00  0.00     0.227 C
HETATM    5  C9  UNL     1      16.600  12.225  -1.070  1.00  0.00     0.073 C
HETATM    6  C10 UNL     1      15.773  11.764   0.086  1.00  0.00     0.243 C
HETATM    7  C11 UNL     1      15.918  10.288   0.371  1.00  0.00     0.162 C
HETATM    8  N3  UNL     1      14.611  11.899  -0.762  1.00  0.00     0.100 N
ENDROOT
BRANCH   1   9
HETATM    9  C5  UNL     1      17.961   9.058   0.009  1.00  0.00     0.246 A
HETATM   10  O1  UNL     1      18.599   9.444   1.085  1.00  0.00    -0.199 OA
HETATM   11  N1  UNL     1      19.572   8.658   1.381  1.00  0.00    -0.245 N
HETATM   12  C4  UNL     1      19.594   7.686   0.452  1.00  0.00     0.108 A
ATOM     13  H1  UNL     1      20.209   8.754   2.172  1.00  0.00     0.196 HD
HETATM   14  N4  UNL     1      18.604   7.932  -0.391  1.00  0.00    -0.308 N
ATOM     15  H4  UNL     1      18.365   7.369  -1.206  1.00  0.00     0.170 HD
BRANCH  12  16
HETATM   16  C2  UNL     1      20.601   6.595   0.487  1.00  0.00     0.047 C
HETATM   17  C1  UNL     1      20.609   5.891  -0.853  1.00  0.00     0.017 C
HETATM   18  C3  UNL     1      21.984   7.108   0.818  1.00  0.00     0.017 C
ENDBRANCH  12  16
ENDBRANCH   1   9
BRANCH   8  19
HETATM   19  C12 UNL     1      13.717  12.899  -0.395  1.00  0.00     0.278 C
BRANCH  19  20
HETATM   20  C13 UNL     1      12.336  12.372  -0.114  1.00  0.00     0.014 C
HETATM   21  C14 UNL     1      11.752  12.702   1.205  1.00  0.00     0.006 C
HETATM   22  C15 UNL     1      10.579  11.724   1.290  1.00  0.00     0.000 C
HETATM   23  C16 UNL     1      11.044  10.491   0.564  1.00  0.00     0.000 C
HETATM   24  C17 UNL     1      12.335  10.850  -0.111  1.00  0.00     0.006 C
ENDBRANCH  19  20
ENDBRANCH   8  19
TORSDOF 4
ENDMDL