MODEL 3
REMARK VINA RESULT: -6.815406785      1.946      2.716
REMARK  4 active torsions:
REMARK  status: ('A' for Active; 'I' for Inactive)
REMARK    1  A    between atoms: C2_2  and  C3_3
REMARK    2  A    between atoms: C3_3  and  N1_4
REMARK    3  A    between atoms: N2_8  and  C7_9
REMARK    4  A    between atoms: C12_14  and  C13_15
ROOT
HETATM    1  C7  UNL     1      13.933  12.476  -2.354  1.00  0.00     0.235 C
HETATM    2  C8  UNL     1      13.994  11.091  -2.899  1.00  0.00     0.036 C
HETATM    3  C9  UNL     1      14.736  11.175  -4.241  1.00  0.00     0.002 C
HETATM    4  C10 UNL     1      16.186  11.387  -3.791  1.00  0.00     0.001 C
HETATM    5  C11 UNL     1      16.307  12.749  -3.237  1.00  0.00     0.015 C
HETATM    6  C12 UNL     1      15.177  13.274  -2.416  1.00  0.00     0.096 C
ENDROOT
BRANCH   1   7
HETATM    7  N2  UNL     1      13.319  12.556  -1.045  1.00  0.00     0.099 N
HETATM    8  C6  UNL     1      11.874  12.493  -1.117  1.00  0.00     0.278 C
HETATM    9  C5  UNL     1      11.222  12.883   0.181  1.00  0.00     0.075 C
HETATM   10  C4  UNL     1      11.427  11.888   1.286  1.00  0.00     0.070 C
HETATM   11  N1  UNL     1      11.753  10.593   0.865  1.00  0.00    -0.353 N
HETATM   12  C17 UNL     1      12.878  10.385   0.045  1.00  0.00     0.098 C
HETATM   13  C16 UNL     1      13.781  11.549  -0.131  1.00  0.00     0.318 C
BRANCH  11  14
HETATM   14  C3  UNL     1      11.060   9.490   1.379  1.00  0.00     0.068 C
BRANCH  14  15
HETATM   15  C2  UNL     1      10.610   9.591   2.797  1.00  0.00     0.040 C
HETATM   16  C1  UNL     1      11.184   8.509   3.679  1.00  0.00     0.010 C
ENDBRANCH  14  15
ENDBRANCH  11  14
ENDBRANCH   1   7
BRANCH   6  17
HETATM   17  C13 UNL     1      14.912  14.646  -2.912  1.00  0.00     0.154 A
HETATM   18  N3  UNL     1      13.777  15.353  -2.945  1.00  0.00    -0.327 N
HETATM   19  C14 UNL     1      14.022  16.576  -3.493  1.00  0.00     0.100 A
ATOM     20  H3  UNL     1      12.870  15.027  -2.612  1.00  0.00     0.169 HD
HETATM   21  C15 UNL     1      13.035  17.656  -3.701  1.00  0.00     0.091 C
HETATM   22  N4  UNL     1      15.331  16.573  -3.783  1.00  0.00    -0.248 N
HETATM   23  O1  UNL     1      15.836  15.413  -3.428  1.00  0.00    -0.222 OA
ATOM     24  H4  UNL     1      15.849  17.343  -4.208  1.00  0.00     0.196 HD
ENDBRANCH   6  17
TORSDOF 4
ENDMDL