MODEL 5
REMARK VINA RESULT: -6.756641023      1.445      2.486
REMARK  4 active torsions:
REMARK  status: ('A' for Active; 'I' for Inactive)
REMARK    1  A    between atoms: C2_2  and  C3_4
REMARK    2  A    between atoms: C3_4  and  S1_5
REMARK    3  A    between atoms: S1_5  and  C4_6
REMARK    4  A    between atoms: N3_13  and  C7_14
ROOT
HETATM    1  C4  UNL     1      11.763  11.045   0.539  1.00  0.00     0.167 A
HETATM    2  N1  UNL     1      10.786  11.956   0.792  1.00  0.00    -0.278 N
ATOM      3  H1  UNL     1      10.032  11.840   1.469  1.00  0.00     0.189 HD
HETATM    4  N2  UNL     1      10.963  12.998   0.033  1.00  0.00    -0.287 N
ATOM      5  H2  UNL     1      10.369  13.827   0.024  1.00  0.00     0.188 HD
HETATM    6  C5  UNL     1      12.057  12.813  -0.741  1.00  0.00     0.100 A
HETATM    7  C6  UNL     1      12.501  13.881  -1.664  1.00  0.00     0.091 C
HETATM    8  N3  UNL     1      12.563  11.581  -0.428  1.00  0.00    -0.286 N
ENDROOT
BRANCH   8   9
HETATM    9  C7  UNL     1      13.710  11.105  -1.097  1.00  0.00     0.006 C
HETATM   10  C8  UNL     1      14.079  11.470  -2.451  1.00  0.00     0.033 C
HETATM   11  C9  UNL     1      14.975  10.262  -2.927  1.00  0.00     0.015 C
HETATM   12  C13 UNL     1      14.983  12.633  -2.697  1.00  0.00     0.015 C
HETATM   13  C10 UNL     1      16.196  10.145  -2.084  1.00  0.00    -0.013 C
HETATM   14  C11 UNL     1      17.081  11.373  -2.212  1.00  0.00     0.009 C
HETATM   15  C16 UNL     1      15.849  10.014  -0.639  1.00  0.00     0.015 C
HETATM   16  C12 UNL     1      16.243  12.544  -1.813  1.00  0.00    -0.013 C
HETATM   17  C14 UNL     1      15.700  12.497  -0.430  1.00  0.00     0.015 C
HETATM   18  C15 UNL     1      14.953  11.186  -0.242  1.00  0.00     0.033 C
ENDBRANCH   8   9
BRANCH   1  19
HETATM   19  S1  UNL     1      11.993   9.486   1.317  1.00  0.00    -0.085 SA
BRANCH  19  20
HETATM   20  C3  UNL     1      10.777   9.098   2.596  1.00  0.00     0.160 C
BRANCH  20  21
HETATM   21  C2  UNL     1      11.483   8.642   3.819  1.00  0.00     0.132 C
HETATM   22  C1  UNL     1      12.661   7.750   3.825  1.00  0.00     0.091 C
HETATM   23  O1  UNL     1      11.089   9.017   4.938  1.00  0.00    -0.298 OA
ENDBRANCH  20  21
ENDBRANCH  19  20
ENDBRANCH   1  19
TORSDOF 4
ENDMDL