MODEL 1
REMARK VINA RESULT: -6.439686679      0.000      0.000
REMARK  4 active torsions:
REMARK  status: ('A' for Active; 'I' for Inactive)
REMARK    1  A    between atoms: C7_10  and  N2_11
REMARK    2  A    between atoms: N3_14  and  C10_15
REMARK    3  A    between atoms: C10_15  and  C11_16
REMARK    4  A    between atoms: C11_16  and  C12_17
ROOT
HETATM    1  C1  UNL     1      16.781  10.629   0.602  1.00  0.00     0.033 C
HETATM    2  C2  UNL     1      16.442  11.851  -0.221  1.00  0.00     0.105 C
HETATM    3  C3  UNL     1      17.682  12.631  -0.484  1.00  0.00     0.036 C
HETATM    4  C4  UNL     1      18.657  11.931  -1.410  1.00  0.00     0.083 C
HETATM    5  S1  UNL     1      17.816  11.936  -3.039  1.00  0.00    -0.110 SA
HETATM    6  C5  UNL     1      16.101  11.514  -2.657  1.00  0.00     0.105 A
HETATM    7  C6  UNL     1      15.058  11.150  -3.487  1.00  0.00     0.143 A
HETATM    8  N1  UNL     1      14.002  10.940  -2.690  1.00  0.00    -0.199 N
ATOM      9  H1  UNL     1      13.072  10.658  -2.999  1.00  0.00     0.183 HD
HETATM   10  C7  UNL     1      14.367  11.162  -1.418  1.00  0.00     0.684 A
HETATM   11  N4  UNL     1      15.667  11.518  -1.396  1.00  0.00    -0.172 N
ENDROOT
BRANCH  10  12
HETATM   12  N2  UNL     1      13.470  11.026  -0.311  1.00  0.00    -0.208 N
HETATM   13  C8  UNL     1      13.119   9.753   0.266  1.00  0.00     0.186 C
HETATM   14  C9  UNL     1      11.642   9.641   0.548  1.00  0.00     0.088 C
HETATM   15  N3  UNL     1      11.055  10.797   1.077  1.00  0.00    -0.351 N
HETATM   16  C15 UNL     1      11.440  12.049   0.586  1.00  0.00     0.088 C
HETATM   17  C16 UNL     1      12.892  12.212   0.265  1.00  0.00     0.186 C
BRANCH  15  18
HETATM   18  C10 UNL     1      10.264  10.708   2.237  1.00  0.00     0.068 C
BRANCH  18  19
HETATM   19  C11 UNL     1      10.264   9.307   2.846  1.00  0.00     0.049 C
BRANCH  19  20
HETATM   20  C12 UNL     1      11.289   9.198   3.948  1.00  0.00    -0.010 A
HETATM   21  C13 UNL     1      11.976   7.878   4.015  1.00  0.00     0.005 A
HETATM   22  C14 UNL     1      11.013   8.348   5.118  1.00  0.00     0.005 A
ENDBRANCH  19  20
ENDBRANCH  18  19
ENDBRANCH  15  18
ENDBRANCH  10  12
TORSDOF 4
ENDMDL