MODEL 5
REMARK VINA RESULT: -6.919381104      1.053      1.574
REMARK  4 active torsions:
REMARK  status: ('A' for Active; 'I' for Inactive)
REMARK    1  A    between atoms: C4_4  and  C5_5
REMARK    2  A    between atoms: C5_5  and  N1_6
REMARK    3  A    between atoms: N2_9  and  C8_10
REMARK    4  A    between atoms: C9_15  and  C10_16
ROOT
HETATM    1  N1  UNL     1      15.106  11.908  -1.319  1.00  0.00    -0.370 N
HETATM    2  C6  UNL     1      15.834  12.271  -0.202  1.00  0.00     0.147 C
HETATM    3  C7  UNL     1      16.092  11.039   0.682  1.00  0.00     0.145 C
HETATM    4  N2  UNL     1      16.684  10.022  -0.155  1.00  0.00    -0.354 N
HETATM    5  C13 UNL     1      16.177   9.709  -1.469  1.00  0.00     0.169 C
HETATM    6  C14 UNL     1      15.654  10.956  -2.162  1.00  0.00     0.083 C
ENDROOT
BRANCH   4   7
HETATM    7  C8  UNL     1      17.812   9.304   0.325  1.00  0.00     0.163 A
HETATM    8  N3  UNL     1      18.250   9.093   1.554  1.00  0.00    -0.279 N
HETATM    9  N4  UNL     1      19.294   8.419   1.765  1.00  0.00    -0.296 N
ATOM     10  H3  UNL     1      17.734   9.481   2.344  1.00  0.00     0.189 HD
HETATM   11  C9  UNL     1      19.971   7.912   0.741  1.00  0.00     0.074 A
ATOM     12  H4  UNL     1      19.618   8.264   2.719  1.00  0.00     0.187 HD
HETATM   13  S1  UNL     1      19.028   8.450  -0.578  1.00  0.00    -0.038 SA
BRANCH  11  14
HETATM   14  C10 UNL     1      21.222   7.091   0.729  1.00  0.00     0.044 A
HETATM   15  C11 UNL     1      21.804   6.580  -0.509  1.00  0.00     0.012 A
HETATM   16  C12 UNL     1      21.005   5.647   0.355  1.00  0.00     0.012 A
ENDBRANCH  11  14
ENDBRANCH   4   7
BRANCH   1  17
HETATM   17  C5  UNL     1      13.918  12.517  -1.694  1.00  0.00     0.068 C
BRANCH  17  18
HETATM   18  C4  UNL     1      12.713  12.093  -0.886  1.00  0.00     0.024 C
HETATM   19  C3  UNL     1      12.550  12.986   0.350  1.00  0.00     0.010 C
HETATM   20  C2  UNL     1      11.151  12.671   0.877  1.00  0.00     0.001 C
HETATM   21  C1  UNL     1      11.028  11.233   1.268  1.00  0.00     0.000 C
HETATM   22  C16 UNL     1      11.404  10.320   0.139  1.00  0.00     0.001 C
HETATM   23  C15 UNL     1      12.814  10.685  -0.349  1.00  0.00     0.010 C
ENDBRANCH  17  18
ENDBRANCH   1  17
TORSDOF 4
ENDMDL