MODEL 3
REMARK VINA RESULT: -7.616732385      4.382      6.405
REMARK  4 active torsions:
REMARK  status: ('A' for Active; 'I' for Inactive)
REMARK    1  A    between atoms: C2_2  and  C3_3
REMARK    2  A    between atoms: N1_5  and  C5_6
REMARK    3  A    between atoms: C5_6  and  N2_7
REMARK    4  A    between atoms: C6_14  and  C7_15
ROOT
HETATM    1  N2  UNL     1      13.513  11.118  -1.109  1.00  0.00    -0.235 N
HETATM    2  N3  UNL     1      14.778  10.771  -1.073  1.00  0.00    -0.223 N
ATOM      3  H3  UNL     1      15.505  11.091  -1.712  1.00  0.00     0.210 HD
HETATM    4  N4  UNL     1      14.941   9.944  -0.073  1.00  0.00    -0.227 N
ATOM      5  H4  UNL     1      15.827   9.513   0.195  1.00  0.00     0.210 HD
HETATM    6  N5  UNL     1      13.792   9.753   0.536  1.00  0.00    -0.272 N
ATOM      7  H5  UNL     1      13.623   9.158   1.347  1.00  0.00     0.190 HD
HETATM    8  C6  UNL     1      12.887  10.493  -0.116  1.00  0.00     0.121 A
ENDROOT
BRANCH   1   9
HETATM    9  C5  UNL     1      12.837  12.011  -2.036  1.00  0.00     0.424 C
BRANCH   9  10
HETATM   10  N1  UNL     1      13.272  13.365  -1.970  1.00  0.00     0.113 N
HETATM   11  C4  UNL     1      12.141  14.212  -1.699  1.00  0.00     0.280 C
HETATM   12  C3  UNL     1      11.880  15.105  -2.858  1.00  0.00     0.020 C
HETATM   13  C17 UNL     1      13.179  15.112  -3.604  1.00  0.00     0.025 C
HETATM   14  C12 UNL     1      13.867  13.873  -3.151  1.00  0.00     0.229 C
HETATM   15  C16 UNL     1      14.000  16.358  -3.392  1.00  0.00     0.007 C
HETATM   16  C13 UNL     1      15.352  14.164  -2.981  1.00  0.00     0.036 C
HETATM   17  C14 UNL     1      15.856  14.908  -4.184  1.00  0.00     0.002 C
HETATM   18  C15 UNL     1      15.191  16.251  -4.354  1.00  0.00     0.001 C
BRANCH  12  19
HETATM   19  C2  UNL     1      11.465  16.461  -2.360  1.00  0.00     0.002 C
HETATM   20  C1  UNL     1      10.224  16.878  -3.146  1.00  0.00     0.005 C
ENDBRANCH  12  19
ENDBRANCH   9  10
ENDBRANCH   1   9
BRANCH   8  21
HETATM   21  C7  UNL     1      11.454  10.539   0.287  1.00  0.00     0.056 C
HETATM   22  C8  UNL     1      11.131   9.383   1.172  1.00  0.00     0.012 C
HETATM   23  C9  UNL     1      10.651   9.899   2.494  1.00  0.00     0.001 C
HETATM   24  C10 UNL     1      10.080  11.253   2.141  1.00  0.00     0.001 C
HETATM   25  C11 UNL     1      11.131  11.745   1.139  1.00  0.00     0.012 C
ENDBRANCH   8  21
TORSDOF 4
ENDMDL