MODEL 1
REMARK VINA RESULT: -7.101082817      0.000      0.000
REMARK  5 active torsions:
REMARK  status: ('A' for Active; 'I' for Inactive)
REMARK    1  A    between atoms: C2_2  and  O1_3
REMARK    2  A    between atoms: O1_3  and  C3_4
REMARK    3  A    between atoms: C3_4  and  C4_6
REMARK    4  A    between atoms: C7_13  and  C8_14
REMARK    5  A    between atoms: C9_15  and  C10_16
ROOT
HETATM    1  C4  UNL     1      18.207  11.255  -0.074  1.00  0.00     0.120 A
HETATM    2  N1  UNL     1      19.417  10.766   0.381  1.00  0.00    -0.347 N
ATOM      3  H1  UNL     1      20.283  11.172   0.026  1.00  0.00     0.167 HD
HETATM    4  C5  UNL     1      19.483   9.781   1.269  1.00  0.00     0.180 A
HETATM    5  N2  UNL     1      18.345   9.254   1.729  1.00  0.00    -0.361 N
ATOM      6  H2  UNL     1      18.408   8.497   2.411  1.00  0.00     0.166 HD
HETATM    7  C6  UNL     1      17.134   9.658   1.351  1.00  0.00     0.102 A
HETATM    8  C7  UNL     1      17.039  10.696   0.416  1.00  0.00     0.012 A
ENDROOT
BRANCH   8   9
HETATM    9  C8  UNL     1      15.748  11.147  -0.005  1.00  0.00     0.012 C
HETATM   10  C9  UNL     1      14.999  10.449  -0.830  1.00  0.00    -0.020 C
BRANCH  10  11
HETATM   11  C10 UNL     1      13.628  10.956  -1.259  1.00  0.00     0.022 C
HETATM   12  C11 UNL     1      13.840  12.378  -1.691  1.00  0.00     0.083 C
HETATM   13  S1  UNL     1      12.250  13.169  -1.226  1.00  0.00    -0.163 SA
HETATM   14  C12 UNL     1      11.531  11.741  -0.321  1.00  0.00     0.052 C
HETATM   15  C13 UNL     1      10.947  12.169   0.999  1.00  0.00     0.015 C
HETATM   16  C17 UNL     1      12.795  10.962  -0.018  1.00  0.00     0.008 C
HETATM   17  C14 UNL     1      10.998  10.934   1.908  1.00  0.00     0.001 C
HETATM   18  C15 UNL     1      11.041   9.662   1.054  1.00  0.00     0.000 C
HETATM   19  C16 UNL     1      12.397   9.568   0.344  1.00  0.00     0.006 C
ENDBRANCH  10  11
ENDBRANCH   8   9
BRANCH   1  20
HETATM   20  C3  UNL     1      18.226  12.325  -1.036  1.00  0.00     0.310 C
HETATM   21  O2  UNL     1      18.292  13.514  -0.814  1.00  0.00    -0.258 OA
BRANCH  20  22
HETATM   22  O1  UNL     1      18.156  11.963  -2.403  1.00  0.00    -0.317 OA
BRANCH  22  23
HETATM   23  C2  UNL     1      17.274  12.677  -3.278  1.00  0.00     0.175 C
HETATM   24  C1  UNL     1      16.521  11.666  -4.110  1.00  0.00     0.034 C
ENDBRANCH  22  23
ENDBRANCH  20  22
ENDBRANCH   1  20
TORSDOF 5
ENDMDL