MODEL 4
REMARK VINA RESULT: -5.569278639      2.493      3.124
REMARK  3 active torsions:
REMARK  status: ('A' for Active; 'I' for Inactive)
REMARK    1  A    between atoms: C2_2  and  C3_3
REMARK    2  A    between atoms: C6_6  and  C7_7
REMARK    3  A    between atoms: C10_13  and  O1_14
ROOT
HETATM    1  C3  UNL     1     -11.224  10.964  -0.457  1.00  0.00     0.124 C
HETATM    2  C4  UNL     1     -12.039  12.248  -0.651  1.00  0.00     0.033 C
HETATM    3  C5  UNL     1     -12.598  12.535   0.719  1.00  0.00     0.019 C
HETATM    4  C6  UNL     1     -13.508  11.395   1.089  1.00  0.00     0.098 C
HETATM    5  C10 UNL     1     -13.219  10.115   0.392  1.00  0.00     0.267 C
HETATM    6  O2  UNL     1     -11.985   9.916  -0.102  1.00  0.00    -0.355 OA
ENDROOT
BRANCH   4   7
HETATM    7  C7  UNL     1     -13.573  11.262   2.551  1.00  0.00     0.055 C
HETATM    8  N1  UNL     1     -14.133  10.380   3.228  1.00  0.00    -0.366 N
HETATM    9  C8  UNL     1     -14.098  10.401   4.608  1.00  0.00     0.072 C
ATOM     10  H1  UNL     1     -14.628   9.626   2.753  1.00  0.00     0.165 HD
HETATM   11  C9  UNL     1     -13.802  11.777   5.163  1.00  0.00     0.125 C
HETATM   12  S1  UNL     1     -12.838  12.401   3.714  1.00  0.00    -0.111 SA
ENDBRANCH   4   7
BRANCH   5  13
HETATM   13  O1  UNL     1     -14.142   9.859  -0.640  1.00  0.00    -0.370 OA
ATOM     14  H1  UNL     1     -14.589   9.029  -0.517  1.00  0.00     0.212 HD
ENDBRANCH   5  13
BRANCH   1  15
HETATM   15  C2  UNL     1     -10.459  10.756  -1.747  1.00  0.00     0.027 C
HETATM   16  C1  UNL     1     -10.771   9.443  -2.393  1.00  0.00     0.007 C
ENDBRANCH   1  15
TORSDOF 3
ENDMDL