MODEL 1
REMARK VINA RESULT: -6.040704695      0.000      0.000
REMARK  3 active torsions:
REMARK  status: ('A' for Active; 'I' for Inactive)
REMARK    1  A    between atoms: C2_3  and  N2_4
REMARK    2  A    between atoms: N3_10  and  N4_11
REMARK    3  A    between atoms: C5_13  and  C6_14
ROOT
HETATM    1  N1  UNL     1     -19.200   6.674  -1.159  1.00  0.00    -0.194 NA
HETATM    2  C1  UNL     1     -19.250   7.747  -0.680  1.00  0.00     0.103 C
HETATM    3  C2  UNL     1     -19.327   9.075  -0.105  1.00  0.00     0.231 C
HETATM    4  C3  UNL     1     -18.546   9.154   1.158  1.00  0.00     0.045 C
HETATM    5  C4  UNL     1     -17.250   9.486   1.100  1.00  0.00     0.109 C
HETATM    6  N3  UNL     1     -16.595   9.766  -0.115  1.00  0.00    -0.304 N
HETATM    7  C11 UNL     1     -17.314   9.661  -1.360  1.00  0.00     0.152 C
HETATM    8  C12 UNL     1     -18.754  10.053  -1.126  1.00  0.00     0.080 C
ENDROOT
BRANCH   3   9
HETATM    9  N2  UNL     1     -20.708   9.456   0.127  1.00  0.00    -0.054 N
ATOM     10  H23 UNL     1     -20.775  10.336   0.639  1.00  0.00     0.276 HD
ATOM     11  H22 UNL     1     -21.171   9.744  -0.735  1.00  0.00     0.276 HD
ATOM     12  H21 UNL     1     -21.217   8.707   0.596  1.00  0.00     0.276 HD
ENDBRANCH   3   9
BRANCH   6  13
HETATM   13  N4  UNL     1     -15.256  10.145  -0.127  1.00  0.00    -0.314 N
HETATM   14  C5  UNL     1     -14.595  10.523   0.900  1.00  0.00     0.085 C
ATOM     15  H4  UNL     1     -14.765  10.119  -1.021  1.00  0.00     0.185 HD
BRANCH  14  16
HETATM   16  C6  UNL     1     -13.184  10.898   0.756  1.00  0.00     0.025 C
HETATM   17  C7  UNL     1     -13.060  12.294   0.152  1.00  0.00     0.010 C
HETATM   18  C8  UNL     1     -11.692  12.311  -0.464  1.00  0.00     0.001 C
HETATM   19  C9  UNL     1     -11.158  10.903  -0.425  1.00  0.00     0.001 C
HETATM   20  C10 UNL     1     -12.432  10.068  -0.245  1.00  0.00     0.010 C
ENDBRANCH  14  16
ENDBRANCH   6  13
TORSDOF 3
ENDMDL