MODEL 4
REMARK VINA RESULT: -6.006697943      1.732      2.090
REMARK  3 active torsions:
REMARK  status: ('A' for Active; 'I' for Inactive)
REMARK    1  A    between atoms: C2_2  and  C3_3
REMARK    2  A    between atoms: C3_3  and  N1_4
REMARK    3  A    between atoms: N2_14  and  O2_16
ROOT
HETATM    1  N1  UNL     1     -12.345  10.889  -0.191  1.00  0.00     0.096 N
HETATM    2  C4  UNL     1     -13.513  10.322   0.382  1.00  0.00     0.276 C
HETATM    3  C5  UNL     1     -14.723  11.249   0.219  1.00  0.00     0.067 C
HETATM    4  C6  UNL     1     -14.988  11.922   1.543  1.00  0.00     0.056 C
HETATM    5  C7  UNL     1     -15.746  13.189   1.346  1.00  0.00     0.045 C
HETATM    6  C8  UNL     1     -15.762  10.936   2.405  1.00  0.00     0.045 C
HETATM    7  O1  UNL     1     -13.726  12.129   2.132  1.00  0.00    -0.374 OA
HETATM    8  C9  UNL     1     -12.900  12.807   1.247  1.00  0.00     0.146 C
HETATM    9  C10 UNL     1     -12.200  13.893   2.049  1.00  0.00     0.041 C
HETATM   10  C11 UNL     1     -11.829  11.886   0.732  1.00  0.00     0.304 C
ENDROOT
BRANCH   1  11
HETATM   11  C3  UNL     1     -11.314   9.991  -0.560  1.00  0.00     0.326 C
BRANCH  11  12
HETATM   12  C2  UNL     1     -10.579  10.238  -1.804  1.00  0.00     0.034 C
HETATM   13  C1  UNL     1      -9.879  11.485  -2.089  1.00  0.00     0.067 C
HETATM   14  N2  UNL     1     -10.587   9.295  -2.682  1.00  0.00    -0.276 N
ATOM     15  H2  UNL     1     -11.069   8.412  -2.514  1.00  0.00     0.193 HD
BRANCH  14  16
HETATM   16  O2  UNL     1      -9.910   9.537  -3.865  1.00  0.00    -0.290 OA
ATOM     17  H2  UNL     1     -10.364  10.051  -4.522  1.00  0.00     0.244 HD
ENDBRANCH  14  16
ENDBRANCH  11  12
ENDBRANCH   1  11
TORSDOF 3
ENDMDL