MODEL 2
REMARK VINA RESULT: -5.595816151      2.259      4.664
REMARK  2 active torsions:
REMARK  status: ('A' for Active; 'I' for Inactive)
REMARK    1  A    between atoms: O1_2  and  C2_3
REMARK    2  A    between atoms: N1_11  and  N2_13
ROOT
HETATM    1  C2  UNL     1     -13.450  11.176   2.659  1.00  0.00     0.191 C
HETATM    2  C3  UNL     1     -12.788  12.508   2.279  1.00  0.00     0.206 C
HETATM    3  O2  UNL     1     -11.715  12.117   1.479  1.00  0.00    -0.378 OA
HETATM    4  C4  UNL     1     -12.083  11.625   0.266  1.00  0.00     0.059 C
HETATM    5  C5  UNL     1     -12.053  12.796  -0.728  1.00  0.00     0.046 C
HETATM    6  C6  UNL     1     -10.975  10.664  -0.191  1.00  0.00     0.046 C
HETATM    7  C7  UNL     1     -13.371  10.932   0.157  1.00  0.00     0.094 C
HETATM    8  C8  UNL     1     -14.138  10.772   1.403  1.00  0.00     0.037 C
HETATM    9  N1  UNL     1     -15.323  10.312   1.364  1.00  0.00    -0.306 N
ATOM     10  H1  UNL     1     -15.847  10.205   2.232  1.00  0.00     0.186 HD
ENDROOT
BRANCH   1  11
HETATM   11  O1  UNL     1     -14.266  11.279   3.737  1.00  0.00    -0.383 OA
HETATM   12  C1  UNL     1     -13.933  10.279   4.647  1.00  0.00     0.202 C
ENDBRANCH   1  11
BRANCH   9  13
HETATM   13  N2  UNL     1     -15.913   9.952   0.164  1.00  0.00    -0.310 N
HETATM   14  C9  UNL     1     -17.186   9.839   0.084  1.00  0.00    -0.004 C
HETATM   15  C10 UNL     1     -18.011  10.096   1.284  1.00  0.00     0.064 C
HETATM   16  C11 UNL     1     -17.778   9.452  -1.222  1.00  0.00     0.064 C
ATOM     17  H2  UNL     1     -15.333   9.777  -0.657  1.00  0.00     0.186 HD
ENDBRANCH   9  13
TORSDOF 2
ENDMDL