MODEL 4
REMARK VINA RESULT: -5.583579667      1.149      1.597
REMARK  3 active torsions:
REMARK  status: ('A' for Active; 'I' for Inactive)
REMARK    1  A    between atoms: C4_4  and  C5_5
REMARK    2  A    between atoms: C5_5  and  O1_6
REMARK    3  A    between atoms: C7_9  and  C9_11
ROOT
HETATM    1  C9  UNL     1     -10.898  10.804  -0.209  1.00  0.00     0.161 C
HETATM    2  C10 UNL     1     -10.590  10.673  -1.606  1.00  0.00     0.062 C
HETATM    3  N1  UNL     1     -10.344  10.546  -2.728  1.00  0.00    -0.197 NA
ENDROOT
BRANCH   1   4
HETATM    4  C7  UNL     1     -12.058  11.724   0.080  1.00  0.00     0.077 C
HETATM    5  C6  UNL     1     -12.037  12.102   1.560  1.00  0.00     0.111 C
HETATM    6  C5  UNL     1     -13.491  11.968   2.031  1.00  0.00     0.186 C
HETATM    7  O3  UNL     1     -13.801  10.613   1.811  1.00  0.00    -0.327 OA
HETATM    8  C11 UNL     1     -13.937  10.412   0.463  1.00  0.00     0.343 C
HETATM    9  O2  UNL     1     -13.261  11.262  -0.347  1.00  0.00    -0.355 OA
HETATM   10  C8  UNL     1     -11.770  13.029  -0.676  1.00  0.00     0.047 C
BRANCH   6  11
HETATM   11  C4  UNL     1     -13.633  12.325   3.446  1.00  0.00     0.042 C
HETATM   12  C2  UNL     1     -13.322  13.522   3.864  1.00  0.00    -0.086 C
HETATM   13  C1  UNL     1     -12.817  14.567   2.933  1.00  0.00     0.043 C
HETATM   14  C3  UNL     1     -13.462  13.892   5.298  1.00  0.00     0.043 C
ENDBRANCH   6  11
BRANCH   6  15
HETATM   15  O1  UNL     1     -14.301  12.761   1.188  1.00  0.00    -0.362 OA
ATOM     16  H1  UNL     1     -13.796  13.239   0.541  1.00  0.00     0.213 HD
ENDBRANCH   6  15
ENDBRANCH   1   4
TORSDOF 3
ENDMDL