MODEL 5
REMARK VINA RESULT: -5.579398918      2.443      3.249
REMARK  3 active torsions:
REMARK  status: ('A' for Active; 'I' for Inactive)
REMARK    1  A    between atoms: C1_2  and  S1_4
REMARK    2  A    between atoms: S1_4  and  C2_5
REMARK    3  A    between atoms: C2_5  and  C3_6
ROOT
HETATM    1  C3  UNL     1     -10.908  10.920  -0.972  1.00  0.00     0.158 C
HETATM    2  C4  UNL     1     -12.026   9.934  -0.564  1.00  0.00     0.204 C
HETATM    3  O2  UNL     1     -12.317  10.472   0.695  1.00  0.00    -0.352 OA
HETATM    4  C5  UNL     1     -12.291  11.837   0.496  1.00  0.00     0.164 C
HETATM    5  C6  UNL     1     -13.714  12.311   0.285  1.00  0.00     0.068 C
HETATM    6  C7  UNL     1     -13.967  13.346   1.344  1.00  0.00     0.006 C
HETATM    7  C8  UNL     1     -12.602  13.875   1.761  1.00  0.00     0.006 C
HETATM    8  C9  UNL     1     -11.757  12.605   1.650  1.00  0.00     0.068 C
HETATM    9  O3  UNL     1     -11.503  12.105  -0.636  1.00  0.00    -0.347 OA
ENDROOT
BRANCH   1  10
HETATM   10  C2  UNL     1     -10.458  10.672  -2.361  1.00  0.00     0.117 C
BRANCH  10  11
HETATM   11  S1  UNL     1     -10.393   8.941  -2.798  1.00  0.00    -0.070 SA
BRANCH  11  12
HETATM   12  C1  UNL     1     -11.358   8.633  -4.294  1.00  0.00     0.292 C
HETATM   13  N1  UNL     1     -12.501   7.747  -4.152  1.00  0.00    -0.051 NA
HETATM   14  O1  UNL     1     -11.025   9.167  -5.352  1.00  0.00    -0.264 OA
ENDBRANCH  11  12
ENDBRANCH  10  11
ENDBRANCH   1  10
TORSDOF 3
ENDMDL