MODEL 2
REMARK VINA RESULT: -5.264827088      0.066      1.149
REMARK  4 active torsions:
REMARK  status: ('A' for Active; 'I' for Inactive)
REMARK    1  A    between atoms: C5_6  and  C6_7
REMARK    2  A    between atoms: C6_7  and  N1_8
REMARK    3  A    between atoms: N1_8  and  O2_9
REMARK    4  A    between atoms: N1_8  and  C7_11
ROOT
HETATM    1  C6  UNL     1     -18.636   8.760  -1.312  1.00  0.00     0.155 C
ENDROOT
BRANCH   1   2
HETATM    2  C5  UNL     1     -17.704   9.771  -0.726  1.00  0.00     0.164 C
HETATM    3  C4  UNL     1     -17.161   9.420   0.608  1.00  0.00     0.204 C
HETATM    4  O1  UNL     1     -17.630  10.393   1.490  1.00  0.00    -0.353 OA
HETATM    5  C2  UNL     1     -17.911  11.461   0.671  1.00  0.00     0.157 C
HETATM    6  C1  UNL     1     -16.682  12.259   0.279  1.00  0.00     0.078 C
HETATM    7  C3  UNL     1     -18.942  12.400   1.285  1.00  0.00     0.078 C
HETATM    8  O3  UNL     1     -18.492  10.909  -0.447  1.00  0.00    -0.347 OA
ENDBRANCH   1   2
BRANCH   1   9
HETATM    9  N1  UNL     1     -18.669   7.486  -0.651  1.00  0.00    -0.189 NA
BRANCH   9  10
HETATM   10  O2  UNL     1     -18.199   6.495  -1.408  1.00  0.00    -0.312 OA
ATOM     11  H2  UNL     1     -18.314   5.639  -1.012  1.00  0.00     0.237 HD
ENDBRANCH   9  10
BRANCH   9  12
HETATM   12  C7  UNL     1     -20.089   7.251  -0.329  1.00  0.00     0.027 C
HETATM   13  C8  UNL     1     -20.957   8.176  -1.135  1.00  0.00     0.034 C
HETATM   14  C9  UNL     1     -20.345   7.572   1.138  1.00  0.00     0.034 C
HETATM   15  C10 UNL     1     -20.429   5.796  -0.522  1.00  0.00     0.034 C
ENDBRANCH   9  12
ENDBRANCH   1   9
TORSDOF 4
ENDMDL