MODEL 3
REMARK VINA RESULT: -6.656759693      2.277      3.807
REMARK  3 active torsions:
REMARK  status: ('A' for Active; 'I' for Inactive)
REMARK    1  A    between atoms: C2_3  and  O2_5
REMARK    2  A    between atoms: O2_5  and  C3_6
REMARK    3  A    between atoms: C3_6  and  C4_7
ROOT
HETATM    1  N1  UNL     1     -10.064   9.974  -3.462  1.00  0.00    -0.186 NA
HETATM    2  C1  UNL     1     -10.437  10.112  -2.365  1.00  0.00     0.170 C
HETATM    3  C2  UNL     1     -10.898  10.261  -1.019  1.00  0.00     0.365 C
HETATM    4  O1  UNL     1     -11.442   9.267  -0.483  1.00  0.00    -0.247 OA
ENDROOT
BRANCH   3   5
HETATM    5  O2  UNL     1     -10.767  11.438  -0.296  1.00  0.00    -0.309 OA
BRANCH   5   6
HETATM    6  C3  UNL     1     -11.434  12.575  -0.760  1.00  0.00     0.184 C
BRANCH   6   7
HETATM    7  C4  UNL     1     -12.528  13.058   0.129  1.00  0.00     0.010 C
HETATM    8  C5  UNL     1     -13.410  12.076   0.697  1.00  0.00     0.007 C
HETATM    9  C6  UNL     1     -14.353  11.112   0.192  1.00  0.00     0.000 C
HETATM   10  C7  UNL     1     -14.753  10.384   1.503  1.00  0.00     0.000 C
HETATM   11  C8  UNL     1     -14.845  11.225   2.722  1.00  0.00     0.000 C
HETATM   12  C9  UNL     1     -13.667  11.425   3.594  1.00  0.00     0.000 C
HETATM   13  C10 UNL     1     -12.895  12.700   3.565  1.00  0.00     0.000 C
HETATM   14  C11 UNL     1     -11.784  12.881   2.603  1.00  0.00     0.000 C
HETATM   15  C12 UNL     1     -11.968  13.741   1.400  1.00  0.00     0.007 C
ENDBRANCH   6   7
ENDBRANCH   5   6
ENDBRANCH   3   5
TORSDOF 3
ENDMDL