MODEL 1
REMARK VINA RESULT: -5.459384895      0.000      0.000
REMARK  3 active torsions:
REMARK  status: ('A' for Active; 'I' for Inactive)
REMARK    1  A    between atoms: C2_2  and  C3_3
REMARK    2  A    between atoms: C8_10  and  C9_11
REMARK    3  A    between atoms: C9_11  and  O3_12
ROOT
HETATM    1  C3  UNL     1     -14.398  11.973   1.697  1.00  0.00    -0.001 C
HETATM    2  C4  UNL     1     -14.139  10.878   2.738  1.00  0.00     0.022 C
HETATM    3  C5  UNL     1     -13.433  13.121   1.910  1.00  0.00     0.018 C
HETATM    4  C6  UNL     1     -12.008  12.708   1.924  1.00  0.00     0.042 C
HETATM    5  C7  UNL     1     -11.387  12.534   0.578  1.00  0.00     0.228 C
HETATM    6  O1  UNL     1     -11.822  13.345  -0.435  1.00  0.00    -0.227 OA
HETATM    7  O2  UNL     1     -12.040  12.239  -1.156  1.00  0.00    -0.195 OA
HETATM    8  C8  UNL     1     -11.854  11.320  -0.160  1.00  0.00     0.248 C
HETATM    9  O4  UNL     1     -12.959  10.712   0.374  1.00  0.00    -0.343 OA
HETATM   10  C10 UNL     1     -14.119  11.443   0.314  1.00  0.00     0.133 C
HETATM   11  C11 UNL     1     -15.242  10.573  -0.202  1.00  0.00     0.040 C
ENDROOT
BRANCH   1  12
HETATM   12  C2  UNL     1     -15.769  12.463   1.877  1.00  0.00    -0.025 C
HETATM   13  C1  UNL     1     -16.190  13.656   1.500  1.00  0.00     0.008 C
ENDBRANCH   1  12
BRANCH   8  14
HETATM   14  C9  UNL     1     -10.740  10.315  -0.372  1.00  0.00     0.238 C
BRANCH  14  15
HETATM   15  O3  UNL     1     -10.993   9.588  -1.538  1.00  0.00    -0.395 OA
ATOM     16  H3  UNL     1     -10.299   9.752  -2.166  1.00  0.00     0.209 HD
ENDBRANCH  14  15
ENDBRANCH   8  14
TORSDOF 3
ENDMDL