MODEL 5
REMARK VINA RESULT: -8.533567319      2.312      6.685
REMARK  15 active torsions:
REMARK  status: ('A' for Active; 'I' for Inactive)
REMARK    1  A    between atoms: N1_2  and  C2_4
REMARK    2  A    between atoms: C3_7  and  N3_8
REMARK    3  A    between atoms: N5_15  and  C5_16
REMARK    4  A    between atoms: C6_18  and  N6_19
REMARK    5  A    between atoms: C8_25  and  C9_26
REMARK    6  A    between atoms: C9_26  and  O3_27
REMARK    7  A    between atoms: C9_26  and  N9_29
REMARK    8  A    between atoms: N9_29  and  C10_31
REMARK    9  A    between atoms: C10_31  and  C11_32
REMARK   10  A    between atoms: C11_32  and  N10_33
REMARK   11  A    between atoms: C12_37  and  C13_38
REMARK   12  A    between atoms: C13_38  and  N11_39
REMARK       I    between atoms: N11_39  and  C14_41
REMARK   13  A    between atoms: C14_41  and  C15_43
REMARK   14  A    between atoms: C16_44  and  O5_45
REMARK   15  A    between atoms: C18_52  and  O8_53
ROOT
HETATM    1  C5  UNL     1     -18.296  20.855 -12.818  1.00  0.00     0.282 C
HETATM    2  O2  UNL     1     -17.821  20.280 -13.982  1.00  0.00    -0.336 OA
HETATM    3  C6  UNL     1     -16.879  21.100 -14.527  1.00  0.00     0.257 C
HETATM    4  C12 UNL     1     -16.233  21.860 -13.373  1.00  0.00     0.087 C
HETATM    5  C18 UNL     1     -17.250  21.759 -12.286  1.00  0.00     0.178 C
ENDROOT
BRANCH   3   6
HETATM    6  N6  UNL     1     -17.549  22.074 -15.376  1.00  0.00    -0.242 N
HETATM    7  N7  UNL     1     -18.362  23.044 -14.869  1.00  0.00    -0.238 N
HETATM    8  N8  UNL     1     -18.843  23.770 -15.851  1.00  0.00    -0.295 N
ATOM      9  H7  UNL     1     -18.566  23.183 -13.880  1.00  0.00     0.208 HD
HETATM   10  C7  UNL     1     -18.378  23.321 -17.010  1.00  0.00     0.144 A
ATOM     11  H8  UNL     1     -19.478  24.561 -15.739  1.00  0.00     0.187 HD
HETATM   12  C8  UNL     1     -17.541  22.222 -16.691  1.00  0.00     0.122 A
BRANCH  12  13
HETATM   13  C9  UNL     1     -16.821  21.464 -17.701  1.00  0.00     0.166 C
BRANCH  13  14
HETATM   14  O3  UNL     1     -17.529  20.661 -18.447  1.00  0.00    -0.345 OA
ATOM     15  H3  UNL     1     -18.260  21.048 -18.915  1.00  0.00     0.219 HD
ENDBRANCH  13  14
BRANCH  13  16
HETATM   16  N9  UNL     1     -15.462  21.466 -17.998  1.00  0.00    -0.367 N
ATOM     17  H9  UNL     1     -14.789  21.394 -17.235  1.00  0.00     0.161 HD
BRANCH  16  18
HETATM   18  C10 UNL     1     -14.973  21.570 -19.361  1.00  0.00     0.149 C
BRANCH  18  19
HETATM   19  C11 UNL     1     -14.291  20.318 -19.798  1.00  0.00     0.249 C
BRANCH  19  20
HETATM   20  N10 UNL     1     -15.295  19.280 -20.122  1.00  0.00    -0.078 N
ATOM     21 3H10 UNL     1     -15.635  18.803 -19.288  1.00  0.00     0.274 HD
ATOM     22 2H10 UNL     1     -16.178  19.686 -20.431  1.00  0.00     0.274 HD
ATOM     23 1H10 UNL     1     -14.914  18.627 -20.807  1.00  0.00     0.274 HD
ENDBRANCH  19  20
ENDBRANCH  18  19
ENDBRANCH  16  18
ENDBRANCH  13  16
ENDBRANCH  12  13
ENDBRANCH   3   6
BRANCH   4  24
HETATM   24  C13 UNL     1     -14.931  21.230 -12.965  1.00  0.00     0.134 C
BRANCH  24  25
HETATM   25  N11 UNL     1     -13.933  21.199 -14.014  1.00  0.00    -0.356 N
HETATM   26  C14 UNL     1     -12.557  21.202 -13.788  1.00  0.00     0.262 C
HETATM   27  O4  UNL     1     -12.135  21.228 -12.604  1.00  0.00    -0.267 OA
ATOM     28  H11 UNL     1     -14.258  21.174 -14.981  1.00  0.00     0.162 HD
BRANCH  26  29
HETATM   29  C15 UNL     1     -11.573  21.175 -14.846  1.00  0.00     0.161 A
HETATM   30  C16 UNL     1     -10.239  20.837 -14.800  1.00  0.00     0.226 A
HETATM   31  O6  UNL     1      -9.756  20.965 -16.016  1.00  0.00    -0.208 OA
HETATM   32  N12 UNL     1     -10.654  21.354 -16.842  1.00  0.00    -0.222 N
HETATM   33  C17 UNL     1     -11.809  21.507 -16.190  1.00  0.00     0.286 A
ATOM     34  H12 UNL     1     -10.510  21.520 -17.837  1.00  0.00     0.198 HD
HETATM   35  O7  UNL     1     -12.921  21.877 -16.662  1.00  0.00    -0.265 OA
BRANCH  30  36
HETATM   36  O5  UNL     1      -9.494  20.430 -13.700  1.00  0.00    -0.339 OA
ATOM     37  H5  UNL     1      -8.854  19.730 -13.651  1.00  0.00     0.220 HD
ENDBRANCH  30  36
ENDBRANCH  26  29
ENDBRANCH  24  25
ENDBRANCH   4  24
BRANCH   1  38
HETATM   38  N5  UNL     1     -18.688  19.813 -11.886  1.00  0.00    -0.101 N
HETATM   39  C2  UNL     1     -17.990  18.669 -11.781  1.00  0.00     0.700 A
HETATM   40  N2  UNL     1     -18.381  17.706 -10.899  1.00  0.00    -0.022 N
HETATM   41  C3  UNL     1     -19.464  17.885 -10.122  1.00  0.00     0.694 A
ATOM     42  H2  UNL     1     -17.845  16.842 -10.826  1.00  0.00     0.203 HD
HETATM   43  N4  UNL     1     -20.178  19.021 -10.212  1.00  0.00    -0.140 N
HETATM   44  C4  UNL     1     -19.770  19.972 -11.101  1.00  0.00     0.357 A
ATOM     45  H4  UNL     1     -21.002  19.168  -9.630  1.00  0.00     0.189 HD
HETATM   46  O1  UNL     1     -20.485  21.023 -11.137  1.00  0.00    -0.245 OA
BRANCH  39  47
HETATM   47  N1  UNL     1     -16.951  18.498 -12.524  1.00  0.00    -0.230 N
HETATM   48  C1  UNL     1     -16.313  17.193 -12.563  1.00  0.00     0.165 C
ATOM     49  H1  UNL     1     -16.581  19.270 -13.079  1.00  0.00     0.177 HD
ENDBRANCH  39  47
BRANCH  41  50
HETATM   50  N3  UNL     1     -19.862  16.996  -9.278  1.00  0.00    -0.234 N
ATOM     51  H32 UNL     1     -20.182  17.321  -8.365  1.00  0.00     0.174 HD
ATOM     52  H31 UNL     1     -19.865  15.999  -9.495  1.00  0.00     0.174 HD
ENDBRANCH  41  50
ENDBRANCH   1  38
BRANCH   5  53
HETATM   53  O8  UNL     1     -17.722  23.069 -12.043  1.00  0.00    -0.391 OA
ATOM     54  H8  UNL     1     -18.667  23.142 -12.111  1.00  0.00     0.210 HD
ENDBRANCH   5  53
TORSDOF 15
ENDMDL