MODEL 2
REMARK VINA RESULT: -9.787559431      2.517     10.558
REMARK  11 active torsions:
REMARK  status: ('A' for Active; 'I' for Inactive)
REMARK    1  A    between atoms: N5_15  and  C6_16
REMARK    2  A    between atoms: C6_16  and  C7_17
REMARK    3  A    between atoms: C7_17  and  O1_18
REMARK    4  A    between atoms: C7_17  and  C8_20
REMARK    5  A    between atoms: C8_20  and  N6_21
REMARK       I    between atoms: C9_23  and  N8_25
REMARK    6  A    between atoms: N12_38  and  C15_39
REMARK    7  A    between atoms: C16_41  and  C17_42
REMARK    8  A    between atoms: C17_42  and  N13_43
REMARK    9  A    between atoms: C17_42  and  C18_47
REMARK   10  A    between atoms: C19_50  and  O4_51
REMARK   11  A    between atoms: C20_53  and  O5_54
ROOT
HETATM    1  N6  UNL     1     -17.877  20.591 -14.027  1.00  0.00    -0.362 N
ATOM      2  H6  UNL     1     -18.894  20.635 -14.076  1.00  0.00     0.162 HD
HETATM    3  C9  UNL     1     -17.226  21.553 -14.534  1.00  0.00     0.189 C
HETATM    4  N7  UNL     1     -15.808  21.527 -14.483  1.00  0.00    -0.063 NA
HETATM    5  N8  UNL     1     -17.917  22.631 -15.137  1.00  0.00    -0.315 N
ATOM      6  H8  UNL     1     -18.178  23.447 -14.583  1.00  0.00     0.170 HD
HETATM    7  C10 UNL     1     -18.215  22.576 -16.386  1.00  0.00     0.139 A
HETATM    8  N9  UNL     1     -17.875  21.507 -17.108  1.00  0.00    -0.337 N
ATOM      9  H9  UNL     1     -17.378  20.751 -16.635  1.00  0.00     0.168 HD
HETATM   10  C11 UNL     1     -18.140  21.357 -18.414  1.00  0.00     0.183 A
HETATM   11  N10 UNL     1     -18.802  22.369 -19.024  1.00  0.00    -0.336 N
ATOM     12  H10 UNL     1     -19.020  22.285 -20.017  1.00  0.00     0.168 HD
HETATM   13  C12 UNL     1     -19.182  23.480 -18.372  1.00  0.00     0.142 A
HETATM   14  C13 UNL     1     -18.887  23.599 -17.015  1.00  0.00     0.122 A
HETATM   15  N11 UNL     1     -19.362  24.772 -16.612  1.00  0.00    -0.346 N
ATOM     16  H11 UNL     1     -19.294  25.135 -15.662  1.00  0.00     0.167 HD
HETATM   17  C14 UNL     1     -19.944  25.408 -17.638  1.00  0.00     0.188 A
HETATM   18  N12 UNL     1     -19.829  24.608 -18.715  1.00  0.00    -0.297 N
ENDROOT
BRANCH   1  19
HETATM   19  C8  UNL     1     -17.294  19.442 -13.388  1.00  0.00     0.155 C
BRANCH  19  20
HETATM   20  C7  UNL     1     -18.382  18.748 -12.600  1.00  0.00     0.154 C
BRANCH  20  21
HETATM   21  C6  UNL     1     -18.182  19.083 -11.139  1.00  0.00     0.164 C
BRANCH  21  22
HETATM   22  N5  UNL     1     -19.443  19.540 -10.591  1.00  0.00    -0.325 N
HETATM   23  C3  UNL     1     -20.106  20.671 -10.893  1.00  0.00     0.140 A
HETATM   24  N3  UNL     1     -19.861  21.696 -11.740  1.00  0.00    -0.336 N
HETATM   25  C4  UNL     1     -21.279  20.765 -10.164  1.00  0.00     0.122 A
HETATM   26  C2  UNL     1     -20.695  22.730 -11.864  1.00  0.00     0.183 A
ATOM     27  H3  UNL     1     -19.010  21.678 -12.303  1.00  0.00     0.168 HD
HETATM   28  N2  UNL     1     -21.835  22.814 -11.149  1.00  0.00    -0.337 N
HETATM   29  C1  UNL     1     -22.135  21.832 -10.294  1.00  0.00     0.131 A
ATOM     30  H2  UNL     1     -22.459  23.613 -11.260  1.00  0.00     0.168 HD
HETATM   31  N1  UNL     1     -23.217  21.903  -9.611  1.00  0.00    -0.383 N
ATOM     32  H12 UNL     1     -23.852  22.695  -9.708  1.00  0.00     0.157 HD
ATOM     33  H11 UNL     1     -23.445  21.153  -8.958  1.00  0.00     0.157 HD
HETATM   34  N4  UNL     1     -21.297  19.635  -9.402  1.00  0.00    -0.346 N
HETATM   35  C5  UNL     1     -20.195  18.916  -9.668  1.00  0.00     0.185 A
ATOM     36  H4  UNL     1     -22.028  19.377  -8.738  1.00  0.00     0.167 HD
ENDBRANCH  21  22
ENDBRANCH  20  21
BRANCH  20  37
HETATM   37  O1  UNL     1     -18.354  17.382 -12.830  1.00  0.00    -0.392 OA
ATOM     38  H1  UNL     1     -17.610  16.965 -12.412  1.00  0.00     0.210 HD
ENDBRANCH  20  37
ENDBRANCH  19  20
ENDBRANCH   1  19
BRANCH  18  39
HETATM   39  C15 UNL     1     -20.319  24.893 -20.052  1.00  0.00     0.262 C
HETATM   40  O2  UNL     1     -19.772  24.090 -21.010  1.00  0.00    -0.353 OA
HETATM   41  C16 UNL     1     -19.306  24.844 -22.049  1.00  0.00     0.195 C
HETATM   42  C19 UNL     1     -19.980  26.199 -21.967  1.00  0.00     0.182 C
HETATM   43  C20 UNL     1     -20.109  26.328 -20.442  1.00  0.00     0.198 C
BRANCH  41  44
HETATM   44  C17 UNL     1     -19.516  24.200 -23.401  1.00  0.00     0.303 C
BRANCH  44  45
HETATM   45  N13 UNL     1     -18.768  22.935 -23.366  1.00  0.00    -0.064 N
ATOM     46 3H13 UNL     1     -17.775  23.055 -23.168  1.00  0.00     0.275 HD
ATOM     47 2H13 UNL     1     -18.986  22.355 -22.555  1.00  0.00     0.275 HD
ATOM     48 1H13 UNL     1     -18.953  22.474 -24.257  1.00  0.00     0.275 HD
ENDBRANCH  44  45
BRANCH  44  49
HETATM   49  C18 UNL     1     -18.924  25.054 -24.453  1.00  0.00     0.264 C
HETATM   50  N14 UNL     1     -17.527  25.242 -24.576  1.00  0.00    -0.060 NA
HETATM   51  O3  UNL     1     -19.663  25.642 -25.275  1.00  0.00    -0.274 OA
ENDBRANCH  44  49
ENDBRANCH  41  44
BRANCH  42  52
HETATM   52  O4  UNL     1     -21.267  26.159 -22.510  1.00  0.00    -0.390 OA
ATOM     53  H4  UNL     1     -21.619  25.277 -22.497  1.00  0.00     0.210 HD
ENDBRANCH  42  52
BRANCH  43  54
HETATM   54  O5  UNL     1     -21.181  27.139 -20.105  1.00  0.00    -0.388 OA
ATOM     55  H5  UNL     1     -21.015  28.059 -20.276  1.00  0.00     0.210 HD
ENDBRANCH  43  54
ENDBRANCH  18  39
TORSDOF 11
ENDMDL