MODEL 3
REMARK VINA RESULT: -9.125244515      3.504      9.318
REMARK  12 active torsions:
REMARK  status: ('A' for Active; 'I' for Inactive)
REMARK    1  A    between atoms: N1_1  and  C1_5
REMARK    2  A    between atoms: C1_5  and  C2_6
REMARK    3  A    between atoms: C3_9  and  C4_10
REMARK    4  A    between atoms: C9_17  and  C10_18
REMARK    5  A    between atoms: C11_20  and  C12_21
REMARK    6  A    between atoms: C12_21  and  O5_22
REMARK    7  A    between atoms: C13_24  and  O6_25
REMARK    8  A    between atoms: C14_27  and  O7_28
REMARK    9  A    between atoms: N3_30  and  N4_31
REMARK   10  A    between atoms: C16_35  and  O8_36
REMARK   11  A    between atoms: O8_36  and  C17_37
REMARK   12  A    between atoms: C17_37  and  C18_38
ROOT
HETATM    1  C2  UNL     1     -14.619  24.426 -16.653  1.00  0.00     0.210 C
HETATM    2  O1  UNL     1     -15.583  25.265 -17.145  1.00  0.00    -0.266 OA
HETATM    3  N2  UNL     1     -15.904  24.843 -18.354  1.00  0.00    -0.222 N
HETATM    4  C3  UNL     1     -17.146  25.275 -19.049  1.00  0.00     0.149 C
HETATM    5  C5  UNL     1     -17.330  25.219 -20.351  1.00  0.00     0.044 A
HETATM    6  C6  UNL     1     -16.434  24.814 -21.300  1.00  0.00     0.008 A
HETATM    7  C7  UNL     1     -16.862  24.595 -22.581  1.00  0.00     0.025 A
HETATM    8  C8  UNL     1     -18.181  24.757 -23.015  1.00  0.00    -0.021 A
HETATM    9  C9  UNL     1     -18.452  24.517 -24.251  1.00  0.00     0.053 C
HETATM   10  C11 UNL     1     -19.052  25.168 -22.006  1.00  0.00     0.010 A
HETATM   11  C13 UNL     1     -18.689  25.400 -20.697  1.00  0.00     0.088 A
HETATM   12  C14 UNL     1     -14.973  24.546 -21.273  1.00  0.00     0.273 C
HETATM   13  N3  UNL     1     -14.296  24.487 -20.080  1.00  0.00    -0.273 N
HETATM   14  C15 UNL     1     -14.962  23.929 -18.943  1.00  0.00     0.265 C
HETATM   15  C16 UNL     1     -14.042  23.622 -17.795  1.00  0.00     0.200 C
ENDROOT
BRANCH  15  16
HETATM   16  O8  UNL     1     -12.718  23.887 -18.046  1.00  0.00    -0.377 OA
BRANCH  16  17
HETATM   17  C17 UNL     1     -12.046  22.704 -18.268  1.00  0.00     0.194 C
BRANCH  17  18
HETATM   18  C18 UNL     1     -11.255  22.229 -17.096  1.00  0.00     0.113 C
HETATM   19  C19 UNL     1     -12.124  21.428 -16.145  1.00  0.00     0.082 C
HETATM   20  C20 UNL     1     -11.559  21.377 -14.788  1.00  0.00     0.041 C
HETATM   21  N5  UNL     1     -12.517  21.479 -13.747  1.00  0.00    -0.106 NA
HETATM   22  C21 UNL     1     -10.293  21.250 -14.390  1.00  0.00     0.113 C
HETATM   23  N6  UNL     1      -9.127  21.128 -15.231  1.00  0.00    -0.339 N
HETATM   24  C22 UNL     1      -9.124  21.106 -16.666  1.00  0.00     0.188 C
ATOM     25  H6  UNL     1      -8.224  21.051 -14.763  1.00  0.00     0.167 HD
HETATM   26  N7  UNL     1      -7.992  20.497 -17.277  1.00  0.00    -0.064 NA
HETATM   27  N8  UNL     1     -10.031  21.575 -17.452  1.00  0.00    -0.357 N
ATOM     28  H8  UNL     1      -9.856  21.468 -18.451  1.00  0.00     0.162 HD
ENDBRANCH  17  18
ENDBRANCH  16  17
ENDBRANCH  15  16
BRANCH   1  29
HETATM   29  C1  UNL     1     -13.539  25.312 -16.018  1.00  0.00     0.266 C
BRANCH  29  30
HETATM   30  N1  UNL     1     -13.035  24.556 -14.866  1.00  0.00    -0.077 N
ATOM     31  H13 UNL     1     -13.512  23.666 -14.720  1.00  0.00     0.274 HD
ATOM     32  H12 UNL     1     -12.101  24.172 -15.005  1.00  0.00     0.274 HD
ATOM     33  H11 UNL     1     -13.103  25.192 -14.071  1.00  0.00     0.274 HD
ENDBRANCH  29  30
ENDBRANCH   1  29
BRANCH  13  34
HETATM   34  N4  UNL     1     -13.426  25.523 -19.775  1.00  0.00    -0.343 N
ATOM     35  H42 UNL     1     -13.437  26.289 -20.449  1.00  0.00     0.176 HD
ATOM     36  H41 UNL     1     -12.544  25.288 -19.319  1.00  0.00     0.176 HD
ENDBRANCH  13  34
BRANCH   4  37
HETATM   37  C4  UNL     1     -17.883  26.191 -18.241  1.00  0.00     0.230 C
HETATM   38  O2  UNL     1     -17.988  27.376 -18.247  1.00  0.00    -0.643 OA
HETATM   39  O3  UNL     1     -18.668  25.583 -17.213  1.00  0.00    -0.643 OA
ENDBRANCH   4  37
BRANCH  12  40
HETATM   40  O7  UNL     1     -14.398  25.554 -22.086  1.00  0.00    -0.371 OA
ATOM     41  H7  UNL     1     -13.820  25.091 -22.681  1.00  0.00     0.212 HD
ENDBRANCH  12  40
BRANCH  11  42
HETATM   42  O6  UNL     1     -19.554  25.756 -19.757  1.00  0.00    -0.359 OA
ATOM     43  H6  UNL     1     -19.494  26.625 -19.377  1.00  0.00     0.217 HD
ENDBRANCH  11  42
BRANCH  10  44
HETATM   44  C12 UNL     1     -20.467  25.396 -22.384  1.00  0.00     0.206 C
BRANCH  44  45
HETATM   45  O5  UNL     1     -20.870  26.699 -22.225  1.00  0.00    -0.396 OA
ATOM     46  H5  UNL     1     -21.643  26.919 -22.731  1.00  0.00     0.209 HD
ENDBRANCH  44  45
ENDBRANCH  10  44
BRANCH   9  47
HETATM   47  C10 UNL     1     -19.485  24.498 -25.199  1.00  0.00     0.259 C
HETATM   48  O4  UNL     1     -20.428  23.815 -25.575  1.00  0.00    -0.302 OA
ENDBRANCH   9  47
TORSDOF 12
ENDMDL