MODEL 4
REMARK VINA RESULT: -8.471371263      3.273      9.849
REMARK  14 active torsions:
REMARK  status: ('A' for Active; 'I' for Inactive)
REMARK    1  A    between atoms: N1_1  and  N2_4
REMARK    2  A    between atoms: N2_4  and  C1_6
REMARK    3  A    between atoms: C3_10  and  N4_11
REMARK    4  A    between atoms: N7_20  and  C6_21
REMARK    5  A    between atoms: C7_22  and  O1_23
REMARK    6  A    between atoms: C8_25  and  O2_26
REMARK    7  A    between atoms: C9_28  and  C10_29
REMARK    8  A    between atoms: C10_29  and  N8_30
REMARK       I    between atoms: N8_30  and  C11_31
REMARK    9  A    between atoms: C11_31  and  C12_33
REMARK   10  A    between atoms: C16_41  and  N10_42
REMARK   11  A    between atoms: C17_45  and  N11_46
REMARK   12  A    between atoms: N11_46  and  O6_47
REMARK   13  A    between atoms: N11_46  and  O7_49
REMARK   14  A    between atoms: C19_54  and  O8_55
ROOT
HETATM    1  C6  UNL     1     -12.215  23.760 -16.539  1.00  0.00     0.170 C
HETATM    2  C7  UNL     1     -11.654  23.862 -15.166  1.00  0.00     0.174 C
HETATM    3  C8  UNL     1     -13.028  23.739 -14.397  1.00  0.00     0.161 C
HETATM    4  C9  UNL     1     -13.439  22.422 -14.978  1.00  0.00     0.100 C
HETATM    5  C19 UNL     1     -13.245  22.610 -16.456  1.00  0.00     0.157 C
ENDROOT
BRANCH   4   6
HETATM    6  C10 UNL     1     -14.683  21.799 -14.551  1.00  0.00     0.169 C
BRANCH   6   7
HETATM    7  N8  UNL     1     -14.923  21.100 -13.428  1.00  0.00    -0.385 NA
HETATM    8  C11 UNL     1     -15.162  20.403 -12.310  1.00  0.00     0.320 C
HETATM    9  O3  UNL     1     -14.717  20.491 -11.119  1.00  0.00    -0.254 OA
BRANCH   8  10
HETATM   10  C12 UNL     1     -16.173  19.242 -12.405  1.00  0.00     0.242 A
HETATM   11  N9  UNL     1     -15.636  18.086 -11.825  1.00  0.00    -0.377 N
HETATM   12  C13 UNL     1     -16.243  17.346 -10.993  1.00  0.00     0.142 A
ATOM     13  H9  UNL     1     -14.688  17.820 -12.091  1.00  0.00     0.160 HD
HETATM   14  C14 UNL     1     -17.595  17.654 -10.564  1.00  0.00     0.222 A
HETATM   15  O4  UNL     1     -18.246  16.960  -9.743  1.00  0.00    -0.284 OA
HETATM   16  C15 UNL     1     -18.232  18.856 -11.131  1.00  0.00     0.154 A
HETATM   17  O5  UNL     1     -19.470  19.162 -10.764  1.00  0.00    -0.285 OA
HETATM   18  C18 UNL     1     -17.513  19.607 -12.022  1.00  0.00     0.082 A
HETATM   19  C16 UNL     1     -20.040  20.223 -11.268  1.00  0.00     0.185 A
HETATM   20  C17 UNL     1     -19.357  21.014 -12.170  1.00  0.00     0.187 A
HETATM   21  N12 UNL     1     -18.116  20.726 -12.551  1.00  0.00    -0.339 N
ATOM     22  H12 UNL     1     -17.623  21.320 -13.217  1.00  0.00     0.167 HD
BRANCH  19  23
HETATM   23  N10 UNL     1     -21.250  20.572 -10.946  1.00  0.00    -0.377 N
ATOM     24 2H10 UNL     1     -21.794  19.933 -10.365  1.00  0.00     0.158 HD
ATOM     25 1H10 UNL     1     -21.658  21.454 -11.257  1.00  0.00     0.158 HD
ENDBRANCH  19  23
BRANCH  20  26
HETATM   26  N11 UNL     1     -20.060  22.171 -12.690  1.00  0.00    -0.015 NA
BRANCH  26  27
HETATM   27  O6  UNL     1     -19.332  22.732 -13.715  1.00  0.00    -0.283 OA
ATOM     28  H6  UNL     1     -19.837  23.427 -14.122  1.00  0.00     0.240 HD
ENDBRANCH  26  27
BRANCH  26  29
HETATM   29  O7  UNL     1     -20.145  23.106 -11.731  1.00  0.00    -0.283 OA
ATOM     30  H7  UNL     1     -19.524  23.801 -11.915  1.00  0.00     0.240 HD
ENDBRANCH  26  29
ENDBRANCH  20  26
ENDBRANCH   8  10
ENDBRANCH   6   7
ENDBRANCH   4   6
BRANCH   3  31
HETATM   31  O2  UNL     1     -13.805  24.814 -14.726  1.00  0.00    -0.392 OA
ATOM     32  H2  UNL     1     -14.554  24.504 -15.221  1.00  0.00     0.210 HD
ENDBRANCH   3  31
BRANCH   5  33
HETATM   33  O8  UNL     1     -12.674  21.458 -16.995  1.00  0.00    -0.393 OA
ATOM     34  H8  UNL     1     -13.115  21.252 -17.812  1.00  0.00     0.210 HD
ENDBRANCH   5  33
BRANCH   2  35
HETATM   35  O1  UNL     1     -10.922  22.781 -14.722  1.00  0.00    -0.391 OA
ATOM     36  H1  UNL     1     -10.864  22.670 -13.780  1.00  0.00     0.210 HD
ENDBRANCH   2  35
BRANCH   1  37
HETATM   37  N7  UNL     1     -11.340  23.663 -17.643  1.00  0.00    -0.154 N
HETATM   38  C1  UNL     1     -11.395  24.530 -18.674  1.00  0.00     0.701 A
HETATM   39  N3  UNL     1     -10.459  24.179 -19.547  1.00  0.00    -0.183 N
HETATM   40  C2  UNL     1      -9.775  23.088 -19.113  1.00  0.00     0.137 A
ATOM     41  H3  UNL     1     -10.278  24.664 -20.427  1.00  0.00     0.184 HD
HETATM   42  C3  UNL     1      -8.750  22.345 -19.602  1.00  0.00     0.131 A
HETATM   43  C5  UNL     1     -10.357  22.788 -17.907  1.00  0.00     0.156 A
HETATM   44  N5  UNL     1      -8.271  21.292 -18.922  1.00  0.00    -0.337 N
HETATM   45  C4  UNL     1      -8.842  21.004 -17.743  1.00  0.00     0.183 A
ATOM     46  H5  UNL     1      -7.501  20.731 -19.287  1.00  0.00     0.168 HD
HETATM   47  N6  UNL     1      -9.850  21.718 -17.242  1.00  0.00    -0.336 N
ATOM     48  H6  UNL     1     -10.248  21.457 -16.341  1.00  0.00     0.168 HD
BRANCH  38  49
HETATM   49  N2  UNL     1     -12.281  25.661 -18.824  1.00  0.00    -0.138 N
ATOM     50  H2  UNL     1     -13.249  25.626 -18.504  1.00  0.00     0.205 HD
BRANCH  49  51
HETATM   51  N1  UNL     1     -11.792  26.716 -19.382  1.00  0.00    -0.331 N
ATOM     52  H12 UNL     1     -10.827  26.730 -19.712  1.00  0.00     0.177 HD
ATOM     53  H11 UNL     1     -12.413  27.520 -19.473  1.00  0.00     0.177 HD
ENDBRANCH  49  51
ENDBRANCH  38  49
BRANCH  42  54
HETATM   54  N4  UNL     1      -8.245  22.670 -20.746  1.00  0.00    -0.383 N
ATOM     55  H42 UNL     1      -7.301  22.377 -20.997  1.00  0.00     0.157 HD
ATOM     56  H41 UNL     1      -8.814  23.221 -21.389  1.00  0.00     0.157 HD
ENDBRANCH  42  54
ENDBRANCH   1  37
TORSDOF 14
ENDMDL