MODEL 1
REMARK VINA RESULT: -9.918439629      0.000      0.000
REMARK  10 active torsions:
REMARK  status: ('A' for Active; 'I' for Inactive)
REMARK    1  A    between atoms: N2_6  and  C4_7
REMARK    2  A    between atoms: C5_11  and  C6_12
REMARK    3  A    between atoms: C6_12  and  N4_13
REMARK       I    between atoms: N4_13  and  C7_15
REMARK    4  A    between atoms: C7_15  and  C8_17
REMARK    5  A    between atoms: C11_25  and  N8_26
REMARK       I    between atoms: N8_26  and  C12_28
REMARK    6  A    between atoms: C12_28  and  C13_30
REMARK    7  A    between atoms: C16_34  and  N9_35
REMARK    8  A    between atoms: C16_34  and  C17_39
REMARK    9  A    between atoms: C19_43  and  O6_44
REMARK   10  A    between atoms: C20_46  and  O7_47
ROOT
HETATM    1  C8  UNL     1     -17.464  22.521 -15.482  1.00  0.00     0.200 C
HETATM    2  N5  UNL     1     -18.635  23.377 -15.445  1.00  0.00    -0.349 N
ATOM      3  H5  UNL     1     -19.189  23.490 -14.595  1.00  0.00     0.163 HD
HETATM    4  C9  UNL     1     -18.945  23.993 -16.548  1.00  0.00     0.184 C
HETATM    5  N6  UNL     1     -20.072  24.859 -16.637  1.00  0.00    -0.064 NA
HETATM    6  N7  UNL     1     -18.171  23.835 -17.730  1.00  0.00    -0.363 N
ATOM      7  H7  UNL     1     -18.549  24.174 -18.615  1.00  0.00     0.162 HD
HETATM    8  C10 UNL     1     -16.849  23.199 -17.719  1.00  0.00     0.150 C
HETATM    9  C11 UNL     1     -16.404  23.252 -16.248  1.00  0.00     0.134 C
ENDROOT
BRANCH   1  10
HETATM   10  C7  UNL     1     -17.078  22.072 -14.159  1.00  0.00     0.242 C
HETATM   11  N4  UNL     1     -17.657  22.670 -13.015  1.00  0.00    -0.357 N
ATOM     12  H4  UNL     1     -18.344  23.416 -13.129  1.00  0.00     0.162 HD
HETATM   13  O1  UNL     1     -16.241  21.162 -13.992  1.00  0.00    -0.271 OA
BRANCH  11  14
HETATM   14  C6  UNL     1     -17.288  22.236 -11.684  1.00  0.00     0.158 C
BRANCH  14  15
HETATM   15  C5  UNL     1     -18.147  21.126 -11.182  1.00  0.00     0.237 C
HETATM   16  N3  UNL     1     -17.690  19.827 -11.673  1.00  0.00    -0.042 N
HETATM   17  C4  UNL     1     -18.856  19.000 -11.337  1.00  0.00     0.339 C
ATOM     18  H32 UNL     1     -16.795  19.503 -11.305  1.00  0.00     0.280 HD
ATOM     19  H31 UNL     1     -17.392  19.800 -12.648  1.00  0.00     0.280 HD
HETATM   20  C20 UNL     1     -20.035  19.773 -11.883  1.00  0.00     0.201 C
HETATM   21  C19 UNL     1     -19.525  21.198 -11.818  1.00  0.00     0.183 C
BRANCH  17  22
HETATM   22  N2  UNL     1     -18.765  17.677 -11.867  1.00  0.00    -0.253 N
HETATM   23  C3  UNL     1     -17.644  17.014 -12.194  1.00  0.00     0.204 A
HETATM   24  N1  UNL     1     -17.979  15.814 -12.650  1.00  0.00    -0.340 N
HETATM   25  C2  UNL     1     -19.304  15.690 -12.625  1.00  0.00     0.092 A
ATOM     26  H1  UNL     1     -17.324  15.100 -12.969  1.00  0.00     0.168 HD
HETATM   27  C1  UNL     1     -20.170  14.548 -13.028  1.00  0.00     0.090 C
HETATM   28  N10 UNL     1     -19.772  16.864 -12.132  1.00  0.00    -0.284 N
ATOM     29  H10 UNL     1     -20.757  17.086 -11.988  1.00  0.00     0.188 HD
ENDBRANCH  17  22
BRANCH  20  30
HETATM   30  O7  UNL     1     -20.319  19.392 -13.205  1.00  0.00    -0.389 OA
ATOM     31  H7  UNL     1     -20.562  20.145 -13.731  1.00  0.00     0.210 HD
ENDBRANCH  20  30
BRANCH  21  32
HETATM   32  O6  UNL     1     -20.363  22.021 -11.067  1.00  0.00    -0.391 OA
ATOM     33  H6  UNL     1     -21.210  21.608 -10.946  1.00  0.00     0.210 HD
ENDBRANCH  21  32
ENDBRANCH  14  15
ENDBRANCH  11  14
ENDBRANCH   1  10
BRANCH   9  34
HETATM   34  N8  UNL     1     -15.087  22.780 -16.073  1.00  0.00    -0.352 N
HETATM   35  C12 UNL     1     -14.019  23.668 -15.848  1.00  0.00     0.222 C
HETATM   36  O2  UNL     1     -14.247  24.901 -15.801  1.00  0.00    -0.273 OA
ATOM     37  H8  UNL     1     -14.905  21.777 -16.112  1.00  0.00     0.163 HD
BRANCH  35  38
HETATM   38  C13 UNL     1     -12.626  23.209 -15.659  1.00  0.00     0.088 C
HETATM   39  C14 UNL     1     -11.990  23.810 -14.429  1.00  0.00     0.096 C
HETATM   40  C15 UNL     1     -10.818  22.903 -14.237  1.00  0.00     0.174 C
HETATM   41  O3  UNL     1      -9.722  23.214 -13.832  1.00  0.00    -0.295 OA
HETATM   42  C16 UNL     1     -11.272  21.545 -14.644  1.00  0.00     0.270 C
HETATM   43  C18 UNL     1     -12.586  21.730 -15.337  1.00  0.00     0.073 C
BRANCH  42  44
HETATM   44  N9  UNL     1     -11.397  20.745 -13.440  1.00  0.00    -0.053 N
ATOM     45  H93 UNL     1     -11.559  21.308 -12.605  1.00  0.00     0.276 HD
ATOM     46  H92 UNL     1     -12.262  20.207 -13.409  1.00  0.00     0.276 HD
ATOM     47  H91 UNL     1     -10.563  20.161 -13.369  1.00  0.00     0.276 HD
ENDBRANCH  42  44
BRANCH  42  48
HETATM   48  C17 UNL     1     -10.293  20.914 -15.534  1.00  0.00     0.218 C
HETATM   49  O4  UNL     1      -9.253  20.375 -15.091  1.00  0.00    -0.646 OA
HETATM   50  O5  UNL     1     -10.487  20.891 -16.925  1.00  0.00    -0.646 OA
ENDBRANCH  42  48
ENDBRANCH  35  38
ENDBRANCH   9  34
TORSDOF 10
ENDMDL