MODEL 3
REMARK VINA RESULT: -8.771200292      1.440      1.924
REMARK  10 active torsions:
REMARK  status: ('A' for Active; 'I' for Inactive)
REMARK    1  A    between atoms: N1_1  and  C1_5
REMARK    2  A    between atoms: C1_5  and  C2_6
REMARK    3  A    between atoms: C4_9  and  N2_10
REMARK    4  A    between atoms: N2_10  and  C5_13
REMARK    5  A    between atoms: C5_13  and  C6_14
REMARK    6  A    between atoms: C6_14  and  N3_15
REMARK    7  A    between atoms: N7_35  and  C17_36
REMARK    8  A    between atoms: C17_36  and  C18_37
REMARK    9  A    between atoms: C21_48  and  O2_49
REMARK   10  A    between atoms: C22_51  and  O3_52
ROOT
HETATM    1  N3  UNL     1     -14.303  22.696 -18.385  1.00  0.00    -0.303 N
HETATM    2  C7  UNL     1     -13.160  21.897 -18.406  1.00  0.00     0.084 C
HETATM    3  C8  UNL     1     -11.880  22.537 -17.920  1.00  0.00     0.073 C
HETATM    4  C9  UNL     1     -10.865  21.424 -17.625  1.00  0.00     0.237 C
HETATM    5  N4  UNL     1      -9.991  21.771 -16.545  1.00  0.00    -0.073 N
ATOM      6  H41 UNL     1     -10.345  22.550 -15.988  1.00  0.00     0.277 HD
ATOM      7  H42 UNL     1      -9.128  22.210 -16.863  1.00  0.00     0.277 HD
HETATM    8  C10 UNL     1      -9.755  20.579 -15.754  1.00  0.00     0.259 C
HETATM    9  C11 UNL     1      -9.468  20.913 -14.311  1.00  0.00     0.259 C
HETATM   10  N5  UNL     1     -10.525  20.429 -13.420  1.00  0.00    -0.073 N
ATOM     11  H51 UNL     1     -10.364  20.674 -12.442  1.00  0.00     0.277 HD
ATOM     12  H52 UNL     1     -10.516  19.416 -13.306  1.00  0.00     0.277 HD
HETATM   13  C12 UNL     1     -11.771  20.923 -13.921  1.00  0.00     0.234 C
HETATM   14  C13 UNL     1     -12.802  21.131 -12.832  1.00  0.00     0.055 C
HETATM   15  C14 UNL     1     -14.135  21.407 -13.440  1.00  0.00     0.234 C
HETATM   16  N6  UNL     1     -14.107  21.459 -14.900  1.00  0.00    -0.074 N
ATOM     17  H61 UNL     1     -13.527  20.719 -15.295  1.00  0.00     0.277 HD
ATOM     18  H62 UNL     1     -13.581  22.263 -15.241  1.00  0.00     0.277 HD
HETATM   19  C15 UNL     1     -15.421  21.432 -15.419  1.00  0.00     0.248 C
HETATM   20  C16 UNL     1     -15.771  22.273 -16.582  1.00  0.00     0.141 C
HETATM   21  N7  UNL     1     -14.774  23.105 -17.162  1.00  0.00    -0.221 NA
ENDROOT
BRANCH   1  22
HETATM   22  C6  UNL     1     -14.642  23.474 -19.495  1.00  0.00     0.110 C
BRANCH  22  23
HETATM   23  C5  UNL     1     -15.690  22.969 -20.435  1.00  0.00     0.279 C
BRANCH  23  24
HETATM   24  N2  UNL     1     -16.401  23.971 -21.149  1.00  0.00    -0.062 N
ATOM     25  H22 UNL     1     -16.386  23.800 -22.154  1.00  0.00     0.278 HD
ATOM     26  H21 UNL     1     -15.909  24.865 -21.138  1.00  0.00     0.278 HD
BRANCH  24  27
HETATM   27  C4  UNL     1     -17.730  24.096 -20.656  1.00  0.00     0.240 C
HETATM   28  C3  UNL     1     -18.110  23.210 -19.523  1.00  0.00     0.204 C
HETATM   29  O1  UNL     1     -19.470  23.425 -19.255  1.00  0.00    -0.379 OA
HETATM   30  C2  UNL     1     -19.767  24.706 -18.865  1.00  0.00     0.178 C
HETATM   31  C22 UNL     1     -18.577  25.609 -18.884  1.00  0.00     0.179 C
HETATM   32  C21 UNL     1     -17.964  25.542 -20.266  1.00  0.00     0.182 C
BRANCH  30  33
HETATM   33  C1  UNL     1     -20.465  24.745 -17.521  1.00  0.00     0.264 C
BRANCH  33  34
HETATM   34  N1  UNL     1     -19.435  24.894 -16.505  1.00  0.00    -0.077 N
ATOM     35  H13 UNL     1     -19.525  25.756 -15.968  1.00  0.00     0.274 HD
ATOM     36  H12 UNL     1     -19.543  24.243 -15.727  1.00  0.00     0.274 HD
ATOM     37  H11 UNL     1     -18.533  24.809 -16.974  1.00  0.00     0.274 HD
ENDBRANCH  33  34
ENDBRANCH  30  33
BRANCH  31  38
HETATM   38  O3  UNL     1     -19.022  26.941 -18.716  1.00  0.00    -0.390 OA
ATOM     39  H3  UNL     1     -19.367  27.033 -17.836  1.00  0.00     0.210 HD
ENDBRANCH  31  38
BRANCH  32  40
HETATM   40  O2  UNL     1     -16.774  26.261 -20.221  1.00  0.00    -0.391 OA
ATOM     41  H2  UNL     1     -16.257  26.134 -21.008  1.00  0.00     0.210 HD
ENDBRANCH  32  40
ENDBRANCH  24  27
ENDBRANCH  23  24
ENDBRANCH  22  23
ENDBRANCH   1  22
BRANCH  21  42
HETATM   42  C17 UNL     1     -15.108  24.461 -17.053  1.00  0.00     0.160 C
BRANCH  42  43
HETATM   43  C18 UNL     1     -14.135  25.422 -16.460  1.00  0.00     0.201 A
HETATM   44  N8  UNL     1     -13.135  25.932 -17.366  1.00  0.00    -0.342 N
HETATM   45  C19 UNL     1     -11.877  25.905 -17.189  1.00  0.00     0.192 A
ATOM     46  H8  UNL     1     -13.470  26.354 -18.233  1.00  0.00     0.164 HD
HETATM   47  N9  UNL     1     -10.967  26.441 -18.158  1.00  0.00    -0.063 NA
HETATM   48  N10 UNL     1     -11.323  25.345 -16.032  1.00  0.00    -0.305 N
HETATM   49  C20 UNL     1     -12.068  24.845 -15.122  1.00  0.00     0.192 A
ATOM     50  H10 UNL     1     -10.310  25.336 -15.914  1.00  0.00     0.171 HD
HETATM   51  N11 UNL     1     -11.485  24.265 -13.924  1.00  0.00    -0.063 NA
HETATM   52  N12 UNL     1     -13.467  24.863 -15.301  1.00  0.00    -0.342 N
ATOM     53  H12 UNL     1     -14.047  24.455 -14.567  1.00  0.00     0.164 HD
ENDBRANCH  42  43
ENDBRANCH  21  42
TORSDOF 10
ENDMDL