MODEL 5
REMARK VINA RESULT: -8.765171637      2.252      8.006
REMARK  13 active torsions:
REMARK  status: ('A' for Active; 'I' for Inactive)
REMARK    1  A    between atoms: C4_6  and  C5_7
REMARK    2  A    between atoms: C5_7  and  O3_8
REMARK    3  A    between atoms: C5_7  and  C6_10
REMARK    4  A    between atoms: C6_10  and  C7_11
REMARK    5  A    between atoms: C7_11  and  O4_12
REMARK    6  A    between atoms: C7_11  and  C8_14
REMARK    7  A    between atoms: C8_14  and  O5_15
REMARK    8  A    between atoms: C8_14  and  N1_17
REMARK    9  A    between atoms: N1_17  and  C9_19
REMARK   10  A    between atoms: C18_41  and  N7_42
REMARK   11  A    between atoms: N7_42  and  C19_45
REMARK   12  A    between atoms: C19_45  and  N8_46
REMARK   13  A    between atoms: C19_45  and  O10_50
ROOT
HETATM    1  C7  UNL     1     -14.440  22.030 -18.097  1.00  0.00     0.168 C
ENDROOT
BRANCH   1   2
HETATM    2  C6  UNL     1     -14.936  21.524 -16.791  1.00  0.00     0.071 C
BRANCH   2   3
HETATM    3  C5  UNL     1     -15.287  22.590 -15.818  1.00  0.00     0.159 C
BRANCH   3   4
HETATM    4  C4  UNL     1     -15.893  22.193 -14.531  1.00  0.00     0.252 C
HETATM    5  O2  UNL     1     -15.228  21.239 -13.769  1.00  0.00    -0.303 OA
HETATM    6  C3  UNL     1     -15.708  20.656 -12.593  1.00  0.00     0.267 C
HETATM    7  C2  UNL     1     -16.843  20.982 -11.707  1.00  0.00     0.132 C
HETATM    8  O1  UNL     1     -15.032  19.663 -12.231  1.00  0.00    -0.265 OA
HETATM    9  C1  UNL     1     -16.527  22.245 -10.904  1.00  0.00     0.024 C
HETATM   10  C18 UNL     1     -18.161  21.123 -12.384  1.00  0.00     0.305 C
HETATM   11  N6  UNL     1     -18.136  21.061 -13.808  1.00  0.00    -0.330 N
HETATM   12  C17 UNL     1     -17.291  21.667 -14.753  1.00  0.00     0.251 C
ATOM     13  H6  UNL     1     -18.862  20.471 -14.214  1.00  0.00     0.164 HD
HETATM   14  O9  UNL     1     -17.762  21.779 -15.912  1.00  0.00    -0.270 OA
BRANCH  10  15
HETATM   15  N7  UNL     1     -18.795  22.348 -11.903  1.00  0.00    -0.002 N
ATOM     16  H72 UNL     1     -18.562  22.537 -10.928  1.00  0.00     0.284 HD
ATOM     17  H71 UNL     1     -18.379  23.179 -12.324  1.00  0.00     0.284 HD
BRANCH  15  18
HETATM   18  C19 UNL     1     -20.233  22.300 -12.113  1.00  0.00     0.521 C
BRANCH  18  19
HETATM   19  N8  UNL     1     -20.979  23.063 -11.163  1.00  0.00    -0.027 N
ATOM     20  H83 UNL     1     -21.138  22.522 -10.313  1.00  0.00     0.279 HD
ATOM     21  H82 UNL     1     -20.409  23.818 -10.781  1.00  0.00     0.279 HD
ATOM     22  H81 UNL     1     -21.859  23.425 -11.528  1.00  0.00     0.279 HD
ENDBRANCH  18  19
BRANCH  18  23
HETATM   23  O10 UNL     1     -20.472  22.833 -13.391  1.00  0.00    -0.349 OA
ATOM     24  H10 UNL     1     -20.094  23.704 -13.398  1.00  0.00     0.213 HD
ENDBRANCH  18  23
ENDBRANCH  15  18
ENDBRANCH  10  15
ENDBRANCH   3   4
BRANCH   3  25
HETATM   25  O3  UNL     1     -14.084  23.294 -15.503  1.00  0.00    -0.392 OA
ATOM     26  H3  UNL     1     -13.769  23.672 -16.317  1.00  0.00     0.210 HD
ENDBRANCH   3  25
ENDBRANCH   2   3
ENDBRANCH   1   2
BRANCH   1  27
HETATM   27  O4  UNL     1     -13.332  21.318 -18.560  1.00  0.00    -0.391 OA
ATOM     28  H4  UNL     1     -13.551  20.428 -18.810  1.00  0.00     0.210 HD
ENDBRANCH   1  27
BRANCH   1  29
HETATM   29  C8  UNL     1     -15.512  21.822 -19.201  1.00  0.00     0.243 C
BRANCH  29  30
HETATM   30  O5  UNL     1     -16.430  20.933 -18.631  1.00  0.00    -0.374 OA
ATOM     31  H5  UNL     1     -17.051  20.757 -19.328  1.00  0.00     0.212 HD
ENDBRANCH  29  30
BRANCH  29  32
HETATM   32  N1  UNL     1     -16.052  23.103 -19.468  1.00  0.00    -0.384 N
ATOM     33  H1  UNL     1     -15.649  23.943 -19.055  1.00  0.00     0.156 HD
BRANCH  32  34
HETATM   34  C9  UNL     1     -17.185  23.175 -20.339  1.00  0.00     0.150 C
HETATM   35  C10 UNL     1     -16.918  23.724 -21.705  1.00  0.00     0.052 C
HETATM   36  C11 UNL     1     -17.947  23.081 -22.647  1.00  0.00     0.125 C
HETATM   37  N2  UNL     1     -19.095  23.925 -22.833  1.00  0.00    -0.360 N
HETATM   38  C12 UNL     1     -19.600  25.097 -22.229  1.00  0.00     0.235 C
ATOM     39  H2  UNL     1     -19.694  23.595 -23.590  1.00  0.00     0.162 HD
HETATM   40  O6  UNL     1     -20.481  25.705 -22.934  1.00  0.00    -0.272 OA
HETATM   41  C13 UNL     1     -19.361  25.820 -20.946  1.00  0.00     0.236 C
HETATM   42  N3  UNL     1     -19.176  24.836 -19.883  1.00  0.00    -0.287 N
HETATM   43  C14 UNL     1     -18.326  23.823 -19.678  1.00  0.00     0.124 A
HETATM   44  C16 UNL     1     -20.137  25.128 -18.979  1.00  0.00     0.319 A
HETATM   45  N4  UNL     1     -18.469  23.104 -18.531  1.00  0.00    -0.284 N
HETATM   46  N5  UNL     1     -19.399  23.374 -17.641  1.00  0.00    -0.260 N
ATOM     47  H4  UNL     1     -17.832  22.328 -18.355  1.00  0.00     0.188 HD
HETATM   48  C15 UNL     1     -20.273  24.397 -17.824  1.00  0.00     0.328 A
ATOM     49  H5  UNL     1     -19.465  22.805 -16.797  1.00  0.00     0.190 HD
HETATM   50  O7  UNL     1     -21.154  24.627 -16.947  1.00  0.00    -0.261 OA
HETATM   51  O8  UNL     1     -20.927  26.083 -19.188  1.00  0.00    -0.262 OA
ENDBRANCH  32  34
ENDBRANCH  29  32
ENDBRANCH   1  29
TORSDOF 13
ENDMDL