MODEL 5
REMARK VINA RESULT: -8.337425418      4.114      8.856
REMARK  12 active torsions:
REMARK  status: ('A' for Active; 'I' for Inactive)
REMARK    1  A    between atoms: O1_2  and  C2_3
REMARK    2  A    between atoms: C2_3  and  C3_5
REMARK    3  A    between atoms: C3_5  and  N1_6
REMARK    4  A    between atoms: N1_6  and  O3_7
REMARK       I    between atoms: N1_6  and  C4_12
REMARK    5  A    between atoms: O3_7  and  S1_8
REMARK       I    between atoms: C4_12  and  N2_14
REMARK    6  A    between atoms: N2_14  and  C5_16
REMARK    7  A    between atoms: C7_18  and  O8_19
REMARK    8  A    between atoms: C8_21  and  N3_22
REMARK    9  A    between atoms: C9_23  and  N4_24
REMARK   10  A    between atoms: C11_34  and  N8_35
REMARK   11  A    between atoms: C12_39  and  O9_40
REMARK   12  A    between atoms: C12_39  and  C13_42
ROOT
HETATM    1  C5  UNL     1     -17.545  23.392 -17.761  1.00  0.00     0.163 C
HETATM    2  C6  UNL     1     -19.021  23.357 -17.617  1.00  0.00     0.071 C
HETATM    3  C7  UNL     1     -19.801  24.003 -18.749  1.00  0.00     0.173 C
HETATM    4  C8  UNL     1     -18.878  24.879 -19.617  1.00  0.00     0.111 C
HETATM    5  C12 UNL     1     -17.952  25.704 -18.877  1.00  0.00     0.243 C
HETATM    6  C14 UNL     1     -17.174  24.785 -17.911  1.00  0.00     0.199 C
HETATM    7  O11 UNL     1     -16.239  25.274 -17.281  1.00  0.00    -0.291 OA
ENDROOT
BRANCH   4   8
HETATM    8  N3  UNL     1     -19.309  25.050 -20.938  1.00  0.00    -0.052 N
HETATM    9  C9  UNL     1     -20.255  25.955 -21.321  1.00  0.00     0.713 A
HETATM   10  N5  UNL     1     -20.461  25.884 -22.653  1.00  0.00    -0.017 N
HETATM   11  C10 UNL     1     -19.642  24.927 -23.133  1.00  0.00     0.749 A
ATOM     12  H5  UNL     1     -21.115  26.449 -23.194  1.00  0.00     0.203 HD
HETATM   13  N6  UNL     1     -19.225  24.265 -24.219  1.00  0.00    -0.115 N
HETATM   14  N9  UNL     1     -18.936  24.420 -22.069  1.00  0.00     0.114 N
HETATM   15  N7  UNL     1     -18.317  23.398 -23.865  1.00  0.00    -0.116 N
ATOM     16  H6  UNL     1     -19.563  24.414 -25.170  1.00  0.00     0.206 HD
HETATM   17  C11 UNL     1     -18.115  23.475 -22.514  1.00  0.00     0.728 A
ATOM     18  H7  UNL     1     -17.831  22.762 -24.498  1.00  0.00     0.206 HD
BRANCH   9  19
HETATM   19  N4  UNL     1     -20.906  26.798 -20.630  1.00  0.00    -0.232 N
ATOM     20  H42 UNL     1     -21.294  27.626 -21.080  1.00  0.00     0.174 HD
ATOM     21  H41 UNL     1     -21.118  26.802 -19.632  1.00  0.00     0.174 HD
ENDBRANCH   9  19
BRANCH  17  22
HETATM   22  N8  UNL     1     -17.282  22.753 -21.881  1.00  0.00    -0.231 N
ATOM     23  H82 UNL     1     -16.263  22.802 -21.852  1.00  0.00     0.174 HD
ATOM     24  H81 UNL     1     -17.547  21.972 -21.281  1.00  0.00     0.174 HD
ENDBRANCH  17  22
ENDBRANCH   4   8
BRANCH   3  25
HETATM   25  O8  UNL     1     -20.848  24.627 -18.167  1.00  0.00    -0.390 OA
ATOM     26  H8  UNL     1     -20.475  25.210 -17.517  1.00  0.00     0.210 HD
ENDBRANCH   3  25
BRANCH   5  27
HETATM   27  O9  UNL     1     -16.820  26.044 -19.669  1.00  0.00    -0.369 OA
ATOM     28  H9  UNL     1     -16.610  25.351 -20.284  1.00  0.00     0.212 HD
ENDBRANCH   5  27
BRANCH   5  29
HETATM   29  C13 UNL     1     -18.267  26.749 -17.946  1.00  0.00     0.279 C
HETATM   30  N10 UNL     1     -18.909  26.721 -16.702  1.00  0.00    -0.059 NA
HETATM   31  O10 UNL     1     -17.915  27.948 -18.269  1.00  0.00    -0.273 OA
ENDBRANCH   5  29
BRANCH   1  32
HETATM   32  N2  UNL     1     -16.987  22.923 -16.478  1.00  0.00    -0.330 N
HETATM   33  C4  UNL     1     -17.256  21.613 -16.006  1.00  0.00     0.344 C
HETATM   34  N1  UNL     1     -16.717  21.176 -14.787  1.00  0.00    -0.179 N
HETATM   35  O7  UNL     1     -17.993  20.845 -16.706  1.00  0.00    -0.245 OA
ATOM     36  H2  UNL     1     -16.402  23.549 -15.924  1.00  0.00     0.165 HD
BRANCH  34  37
HETATM   37  C3  UNL     1     -15.855  22.025 -14.018  1.00  0.00     0.273 C
BRANCH  37  38
HETATM   38  C2  UNL     1     -14.516  21.516 -13.737  1.00  0.00     0.279 C
HETATM   39  O2  UNL     1     -13.625  21.761 -14.621  1.00  0.00    -0.263 OA
BRANCH  38  40
HETATM   40  O1  UNL     1     -14.085  20.811 -12.650  1.00  0.00    -0.325 OA
HETATM   41  C1  UNL     1     -14.853  20.561 -11.494  1.00  0.00     0.213 C
ENDBRANCH  38  40
ENDBRANCH  37  38
ENDBRANCH  34  37
BRANCH  34  42
HETATM   42  O3  UNL     1     -16.982  19.948 -14.330  1.00  0.00    -0.125 OA
BRANCH  42  43
HETATM   43  S1  UNL     1     -18.335  19.787 -13.392  1.00  0.00     0.274 S
HETATM   44  O4  UNL     1     -19.379  18.918 -14.072  1.00  0.00    -0.571 OA
HETATM   45  O5  UNL     1     -18.014  19.056 -12.100  1.00  0.00    -0.571 OA
HETATM   46  O6  UNL     1     -19.077  21.204 -12.970  1.00  0.00    -0.571 OA
ENDBRANCH  42  43
ENDBRANCH  34  42
ENDBRANCH   1  32
TORSDOF 12
ENDMDL