MODEL 4
REMARK VINA RESULT: -7.741383504      2.208      6.311
REMARK  12 active torsions:
REMARK  status: ('A' for Active; 'I' for Inactive)
REMARK    1  A    between atoms: N1_1  and  C1_4
REMARK    2  A    between atoms: C2_10  and  C3_11
REMARK    3  A    between atoms: C3_11  and  N4_12
REMARK    4  A    between atoms: C8_23  and  O4_24
REMARK       I    between atoms: N10_38  and  C13_39
REMARK    5  A    between atoms: C13_39  and  C14_41
REMARK    6  A    between atoms: C14_41  and  C15_42
REMARK    7  A    between atoms: C15_42  and  O7_43
REMARK    8  A    between atoms: O7_43  and  C16_44
REMARK    9  A    between atoms: C16_44  and  C17_45
REMARK   10  A    between atoms: C17_45  and  N11_46
REMARK   11  A    between atoms: C17_45  and  C18_50
REMARK   12  A    between atoms: C18_50  and  O8_51
ROOT
HETATM    1  N4  UNL     1     -15.132  22.679 -15.260  1.00  0.00    -0.293 N
HETATM    2  C4  UNL     1     -13.821  22.560 -15.168  1.00  0.00     0.083 A
HETATM    3  C5  UNL     1     -13.203  21.838 -14.117  1.00  0.00     0.125 A
HETATM    4  C6  UNL     1     -14.026  21.262 -13.183  1.00  0.00     0.278 A
HETATM    5  O2  UNL     1     -13.487  20.619 -12.246  1.00  0.00    -0.265 OA
HETATM    6  N5  UNL     1     -15.351  21.410 -13.308  1.00  0.00    -0.273 N
ATOM      7  H5  UNL     1     -15.953  20.979 -12.607  1.00  0.00     0.173 HD
HETATM    8  C7  UNL     1     -15.923  22.086 -14.294  1.00  0.00     0.330 A
HETATM    9  O3  UNL     1     -17.153  22.236 -14.428  1.00  0.00    -0.246 OA
HETATM   10  N6  UNL     1     -11.828  21.601 -13.854  1.00  0.00    -0.342 N
ATOM     11  H6  UNL     1     -11.590  20.773 -13.308  1.00  0.00     0.164 HD
HETATM   12  C8  UNL     1     -10.735  22.444 -14.300  1.00  0.00     0.324 C
HETATM   13  N7  UNL     1     -10.658  22.591 -15.691  1.00  0.00    -0.356 N
ATOM     14  H7  UNL     1      -9.744  22.754 -16.113  1.00  0.00     0.159 HD
HETATM   15  C9  UNL     1     -11.758  22.526 -16.514  1.00  0.00     0.245 C
HETATM   16  C10 UNL     1     -12.991  23.313 -16.143  1.00  0.00     0.282 C
HETATM   17  N8  UNL     1     -12.632  24.590 -15.536  1.00  0.00    -0.053 N
ATOM     18  H81 UNL     1     -11.724  24.525 -15.076  1.00  0.00     0.278 HD
ATOM     19  H82 UNL     1     -13.223  24.779 -14.726  1.00  0.00     0.278 HD
HETATM   20  C11 UNL     1     -12.657  25.692 -16.438  1.00  0.00     0.337 C
HETATM   21  C12 UNL     1     -11.696  25.498 -17.521  1.00  0.00     0.262 C
HETATM   22  O5  UNL     1     -11.072  26.577 -17.826  1.00  0.00    -0.270 OA
HETATM   23  N9  UNL     1     -11.360  24.348 -18.255  1.00  0.00    -0.262 N
ATOM     24  H9  UNL     1     -11.083  24.505 -19.225  1.00  0.00     0.190 HD
HETATM   25  N10 UNL     1     -11.357  23.034 -17.835  1.00  0.00    -0.232 N
HETATM   26  C13 UNL     1     -10.929  22.048 -18.741  1.00  0.00     0.242 C
HETATM   27  O6  UNL     1     -10.894  20.830 -18.441  1.00  0.00    -0.272 OA
ENDROOT
BRANCH  26  28
HETATM   28  C14 UNL     1     -10.495  22.430 -20.112  1.00  0.00     0.131 C
BRANCH  28  29
HETATM   29  C15 UNL     1     -11.628  22.277 -21.102  1.00  0.00     0.177 C
BRANCH  29  30
HETATM   30  O7  UNL     1     -12.825  22.792 -20.684  1.00  0.00    -0.389 OA
BRANCH  30  31
HETATM   31  C16 UNL     1     -13.347  23.809 -21.445  1.00  0.00     0.202 C
BRANCH  31  32
HETATM   32  C17 UNL     1     -14.036  24.837 -20.538  1.00  0.00     0.230 C
BRANCH  32  33
HETATM   33  N11 UNL     1     -13.504  26.130 -20.856  1.00  0.00    -0.071 N
ATOM     34 3H11 UNL     1     -14.231  26.829 -21.011  1.00  0.00     0.274 HD
ATOM     35 2H11 UNL     1     -13.052  26.579 -20.059  1.00  0.00     0.274 HD
ATOM     36 1H11 UNL     1     -12.880  26.023 -21.656  1.00  0.00     0.274 HD
ENDBRANCH  32  33
BRANCH  32  37
HETATM   37  C18 UNL     1     -15.538  24.764 -20.697  1.00  0.00     0.199 C
BRANCH  37  38
HETATM   38  O8  UNL     1     -15.910  23.440 -20.909  1.00  0.00    -0.399 OA
ATOM     39  H8  UNL     1     -16.711  23.420 -21.421  1.00  0.00     0.209 HD
ENDBRANCH  37  38
ENDBRANCH  32  37
ENDBRANCH  31  32
ENDBRANCH  30  31
ENDBRANCH  29  30
ENDBRANCH  28  29
ENDBRANCH  26  28
BRANCH  12  40
HETATM   40  O4  UNL     1      -9.562  21.800 -13.865  1.00  0.00    -0.360 OA
ATOM     41  H4  UNL     1      -9.635  20.903 -14.170  1.00  0.00     0.214 HD
ENDBRANCH  12  40
BRANCH   1  42
HETATM   42  C3  UNL     1     -15.792  23.307 -16.352  1.00  0.00     0.197 C
BRANCH  42  43
HETATM   43  C2  UNL     1     -15.978  22.362 -17.485  1.00  0.00     0.098 A
HETATM   44  C1  UNL     1     -17.019  21.586 -17.866  1.00  0.00     0.147 A
HETATM   45  N2  UNL     1     -16.645  20.899 -18.999  1.00  0.00    -0.224 N
HETATM   46  O1  UNL     1     -15.444  21.259 -19.263  1.00  0.00    -0.155 OA
ATOM     47  H2  UNL     1     -17.212  20.235 -19.524  1.00  0.00     0.198 HD
HETATM   48  N3  UNL     1     -14.991  22.106 -18.427  1.00  0.00    -0.240 N
ATOM     49  H3  UNL     1     -14.061  22.525 -18.447  1.00  0.00     0.196 HD
BRANCH  44  50
HETATM   50  N1  UNL     1     -18.182  21.428 -17.347  1.00  0.00    -0.382 N
ATOM     51  H12 UNL     1     -18.985  20.887 -17.664  1.00  0.00     0.157 HD
ATOM     52  H11 UNL     1     -18.437  21.888 -16.473  1.00  0.00     0.157 HD
ENDBRANCH  44  50
ENDBRANCH  42  43
ENDBRANCH   1  42
TORSDOF 12
ENDMDL