MODEL 4
REMARK VINA RESULT: -8.331811751      2.563      4.174
REMARK  16 active torsions:
REMARK  status: ('A' for Active; 'I' for Inactive)
REMARK    1  A    between atoms: C2_2  and  N1_3
REMARK    2  A    between atoms: C3_4  and  C4_5
REMARK    3  A    between atoms: C4_5  and  N2_6
REMARK    4  A    between atoms: C6_16  and  C7_17
REMARK    5  A    between atoms: C7_17  and  C8_18
REMARK    6  A    between atoms: C8_18  and  N6_19
REMARK    7  A    between atoms: C8_18  and  C9_23
REMARK    8  A    between atoms: C9_23  and  N9_29
REMARK    9  A    between atoms: N7_24  and  N8_26
REMARK   10  A    between atoms: N9_29  and  C10_31
REMARK   11  A    between atoms: C11_35  and  N11_36
REMARK   12  A    between atoms: C14_39  and  N12_40
REMARK   13  A    between atoms: N12_40  and  C15_42
REMARK   14  A    between atoms: C17_46  and  O1_47
REMARK   15  A    between atoms: C18_49  and  O2_50
REMARK   16  A    between atoms: C20_56  and  O4_57
ROOT
HETATM    1  N9  UNL     1     -15.365  21.853 -19.332  1.00  0.00    -0.345 N
ATOM      2  H9  UNL     1     -15.626  22.705 -19.828  1.00  0.00     0.163 HD
ENDROOT
BRANCH   1   3
HETATM    3  C9  UNL     1     -14.114  21.164 -19.601  1.00  0.00     0.124 C
HETATM    4  N7  UNL     1     -14.219  20.034 -20.195  1.00  0.00    -0.294 N
ATOM      5  H7  UNL     1     -15.166  19.690 -20.353  1.00  0.00     0.187 HD
BRANCH   3   6
HETATM    6  C8  UNL     1     -12.883  21.874 -19.285  1.00  0.00     0.255 C
BRANCH   6   7
HETATM    7  C7  UNL     1     -12.128  21.499 -18.123  1.00  0.00     0.087 C
BRANCH   7   8
HETATM    8  C6  UNL     1     -11.099  22.518 -17.560  1.00  0.00     0.189 C
HETATM    9  N1  UNL     1     -10.959  22.121 -16.206  1.00  0.00    -0.348 N
HETATM   10  C3  UNL     1      -9.982  21.328 -15.659  1.00  0.00     0.109 C
HETATM   11  N3  UNL     1      -8.983  21.071 -16.461  1.00  0.00    -0.319 N
HETATM   12  C5  UNL     1      -8.938  21.565 -17.795  1.00  0.00     0.191 C
ATOM     13  H3  UNL     1      -8.211  20.498 -16.121  1.00  0.00     0.169 HD
HETATM   14  N4  UNL     1      -7.758  21.301 -18.592  1.00  0.00    -0.063 NA
HETATM   15  N5  UNL     1      -9.877  22.250 -18.318  1.00  0.00    -0.343 N
ATOM     16  H5  UNL     1      -9.777  22.611 -19.266  1.00  0.00     0.164 HD
BRANCH   9  17
HETATM   17  C2  UNL     1     -12.046  22.734 -15.328  1.00  0.00     0.122 C
HETATM   18  C1  UNL     1     -11.525  24.073 -14.834  1.00  0.00     0.026 C
ENDBRANCH   9  17
BRANCH  10  19
HETATM   19  C4  UNL     1     -10.073  20.710 -14.348  1.00  0.00     0.305 C
BRANCH  19  20
HETATM   20  N2  UNL     1      -8.892  19.968 -13.948  1.00  0.00    -0.073 N
ATOM     21  H23 UNL     1      -8.283  19.811 -14.751  1.00  0.00     0.274 HD
ATOM     22  H22 UNL     1      -8.281  20.552 -13.377  1.00  0.00     0.274 HD
ATOM     23  H21 UNL     1      -9.087  19.086 -13.473  1.00  0.00     0.274 HD
ENDBRANCH  19  20
ENDBRANCH  10  19
ENDBRANCH   7   8
ENDBRANCH   6   7
BRANCH   6  24
HETATM   24  N6  UNL     1     -13.276  23.296 -19.133  1.00  0.00    -0.068 N
ATOM     25  H63 UNL     1     -14.123  23.530 -19.650  1.00  0.00     0.275 HD
ATOM     26  H62 UNL     1     -13.622  23.514 -18.198  1.00  0.00     0.275 HD
ATOM     27  H61 UNL     1     -12.478  23.873 -19.402  1.00  0.00     0.275 HD
ENDBRANCH   6  24
ENDBRANCH   3   6
BRANCH   4  28
HETATM   28  N8  UNL     1     -13.189  19.229 -20.643  1.00  0.00    -0.344 N
ATOM     29  H82 UNL     1     -12.468  19.018 -19.954  1.00  0.00     0.176 HD
ATOM     30  H81 UNL     1     -13.080  18.834 -21.577  1.00  0.00     0.176 HD
ENDBRANCH   4  28
ENDBRANCH   1   3
BRANCH   1  31
HETATM   31  C10 UNL     1     -16.231  21.262 -18.308  1.00  0.00     0.346 C
HETATM   32  N10 UNL     1     -15.502  21.341 -16.997  1.00  0.00    -0.003 N
HETATM   33  C11 UNL     1     -16.673  21.341 -16.151  1.00  0.00     0.454 C
ATOM     34 2H10 UNL     1     -14.795  20.628 -16.814  1.00  0.00     0.285 HD
ATOM     35 1H10 UNL     1     -14.842  22.109 -16.877  1.00  0.00     0.285 HD
HETATM   36  O3  UNL     1     -17.419  22.387 -16.685  1.00  0.00    -0.308 OA
HETATM   37  C20 UNL     1     -17.464  22.039 -18.018  1.00  0.00     0.311 C
BRANCH  33  38
HETATM   38  N11 UNL     1     -16.374  21.572 -14.738  1.00  0.00    -0.248 N
HETATM   39  C12 UNL     1     -15.241  21.081 -14.132  1.00  0.00     0.119 A
HETATM   40  C13 UNL     1     -15.419  21.526 -12.878  1.00  0.00     0.069 A
HETATM   41  C14 UNL     1     -16.348  22.187 -12.424  1.00  0.00     0.122 A
HETATM   42  N14 UNL     1     -17.035  22.192 -13.909  1.00  0.00    -0.280 N
ATOM     43  H14 UNL     1     -17.916  22.660 -14.123  1.00  0.00     0.189 HD
BRANCH  41  44
HETATM   44  N12 UNL     1     -17.360  22.889 -11.951  1.00  0.00    -0.331 N
ATOM     45  H12 UNL     1     -17.274  23.877 -11.713  1.00  0.00     0.168 HD
BRANCH  44  46
HETATM   46  C15 UNL     1     -18.612  22.152 -11.791  1.00  0.00     0.081 C
HETATM   47  N13 UNL     1     -19.668  22.698 -11.955  1.00  0.00    -0.377 N
HETATM   48  C16 UNL     1     -20.964  22.148 -11.839  1.00  0.00     0.155 C
ATOM     49  H13 UNL     1     -19.624  23.684 -12.211  1.00  0.00     0.160 HD
HETATM   50  C17 UNL     1     -20.954  20.616 -11.826  1.00  0.00     0.165 C
HETATM   51  C18 UNL     1     -19.631  19.971 -11.998  1.00  0.00     0.155 C
HETATM   52  C19 UNL     1     -18.560  20.755 -11.271  1.00  0.00     0.110 C
BRANCH  50  53
HETATM   53  O1  UNL     1     -21.736  20.230 -12.983  1.00  0.00    -0.391 OA
ATOM     54  H1  UNL     1     -22.334  19.565 -12.661  1.00  0.00     0.210 HD
ENDBRANCH  50  53
BRANCH  51  55
HETATM   55  O2  UNL     1     -19.213  19.900 -13.335  1.00  0.00    -0.393 OA
ATOM     56  H2  UNL     1     -18.269  19.935 -13.439  1.00  0.00     0.210 HD
ENDBRANCH  51  55
ENDBRANCH  44  46
ENDBRANCH  41  44
ENDBRANCH  33  38
BRANCH  37  57
HETATM   57  O4  UNL     1     -18.552  21.119 -18.104  1.00  0.00    -0.367 OA
ATOM     58  H4  UNL     1     -19.347  21.640 -18.110  1.00  0.00     0.212 HD
ENDBRANCH  37  57
ENDBRANCH   1  31
TORSDOF 16
ENDMDL