MODEL 5
REMARK VINA RESULT: -7.238689307      2.140      4.003
REMARK  12 active torsions:
REMARK  status: ('A' for Active; 'I' for Inactive)
REMARK    1  A    between atoms: N1_1  and  C1_4
REMARK    2  A    between atoms: C2_7  and  N3_8
REMARK    3  A    between atoms: C9_24  and  N9_25
REMARK    4  A    between atoms: N10_28  and  C10_29
REMARK    5  A    between atoms: C11_31  and  C12_32
REMARK    6  A    between atoms: C11_31  and  C13_35
REMARK    7  A    between atoms: C12_32  and  O2_33
REMARK    8  A    between atoms: C13_35  and  O3_36
REMARK    9  A    between atoms: O3_36  and  S1_37
REMARK   10  A    between atoms: S1_37  and  N11_38
REMARK   11  A    between atoms: C14_43  and  C15_44
REMARK   12  A    between atoms: C15_44  and  O6_45
ROOT
HETATM    1  C1  UNL     1      34.582  15.427 -29.567  1.00  0.00     0.146 A
HETATM    2  N2  UNL     1      34.344  14.201 -30.043  1.00  0.00    -0.175 N
ATOM      3  H2  UNL     1      34.165  14.084 -31.040  1.00  0.00     0.186 HD
HETATM    4  C2  UNL     1      34.334  13.122 -29.252  1.00  0.00     0.684 A
HETATM    5  N7  UNL     1      34.564  13.228 -27.945  1.00  0.00    -0.173 N
ATOM      6  H7  UNL     1      34.553  12.395 -27.356  1.00  0.00     0.186 HD
HETATM    7  C7  UNL     1      34.811  14.436 -27.401  1.00  0.00     0.173 A
HETATM    8  C8  UNL     1      34.825  15.576 -28.221  1.00  0.00     0.138 A
HETATM    9  N8  UNL     1      35.091  16.665 -27.484  1.00  0.00    -0.184 N
ATOM     10  H8  UNL     1      35.161  17.628 -27.813  1.00  0.00     0.184 HD
HETATM   11  C9  UNL     1      35.244  16.231 -26.231  1.00  0.00     0.683 A
HETATM   12  N10 UNL     1      35.074  14.870 -26.168  1.00  0.00    -0.129 N
ENDROOT
BRANCH  12  13
HETATM   13  C10 UNL     1      35.176  14.142 -24.952  1.00  0.00     0.341 C
HETATM   14  O1  UNL     1      34.035  13.356 -24.719  1.00  0.00    -0.339 OA
HETATM   15  C11 UNL     1      34.100  12.652 -23.545  1.00  0.00     0.130 C
HETATM   16  C14 UNL     1      34.049  13.562 -22.332  1.00  0.00     0.147 C
HETATM   17  N12 UNL     1      34.836  14.776 -22.590  1.00  0.00    -0.347 N
HETATM   18  C16 UNL     1      35.634  14.858 -23.764  1.00  0.00     0.268 C
ATOM     19  H12 UNL     1      34.809  15.554 -21.932  1.00  0.00     0.163 HD
HETATM   20  O7  UNL     1      36.673  15.516 -23.751  1.00  0.00    -0.269 OA
BRANCH  15  21
HETATM   21  C12 UNL     1      35.325  11.741 -23.445  1.00  0.00     0.206 C
BRANCH  21  22
HETATM   22  O2  UNL     1      34.978  10.429 -23.645  1.00  0.00    -0.398 OA
ATOM     23  H2  UNL     1      35.730   9.858 -23.540  1.00  0.00     0.209 HD
ENDBRANCH  21  22
ENDBRANCH  15  21
BRANCH  15  24
HETATM   24  C13 UNL     1      32.914  11.724 -23.444  1.00  0.00     0.234 C
BRANCH  24  25
HETATM   25  O3  UNL     1      31.892  12.152 -24.253  1.00  0.00    -0.257 OA
BRANCH  25  26
HETATM   26  S1  UNL     1      31.847  11.260 -25.680  1.00  0.00     0.355 S
HETATM   27  O4  UNL     1      31.916  12.154 -26.894  1.00  0.00    -0.176 OA
HETATM   28  O5  UNL     1      33.003  10.303 -25.660  1.00  0.00    -0.176 OA
BRANCH  26  29
HETATM   29  N11 UNL     1      30.397  10.293 -25.738  1.00  0.00    -0.306 N
ATOM     30 2H11 UNL     1      30.070   9.803 -26.571  1.00  0.00     0.171 HD
ATOM     31 1H11 UNL     1      29.937  10.294 -24.828  1.00  0.00     0.171 HD
ENDBRANCH  26  29
ENDBRANCH  25  26
ENDBRANCH  24  25
ENDBRANCH  15  24
BRANCH  16  32
HETATM   32  C15 UNL     1      34.574  12.903 -21.101  1.00  0.00     0.192 C
BRANCH  32  33
HETATM   33  O6  UNL     1      33.491  12.709 -20.215  1.00  0.00    -0.399 OA
ATOM     34  H6  UNL     1      33.565  11.836 -19.849  1.00  0.00     0.209 HD
ENDBRANCH  32  33
ENDBRANCH  16  32
ENDBRANCH  12  13
BRANCH  11  35
HETATM   35  N9  UNL     1      35.514  16.990 -25.231  1.00  0.00    -0.234 N
ATOM     36  H92 UNL     1      34.861  17.641 -24.794  1.00  0.00     0.174 HD
ATOM     37  H91 UNL     1      36.419  17.021 -24.762  1.00  0.00     0.174 HD
ENDBRANCH  11  35
BRANCH   4  38
HETATM   38  N3  UNL     1      34.078  11.875 -29.838  1.00  0.00    -0.200 N
HETATM   39  C3  UNL     1      33.558  11.877 -31.187  1.00  0.00     0.162 C
HETATM   40  C4  UNL     1      32.057  11.861 -31.218  1.00  0.00     0.143 C
HETATM   41  N4  UNL     1      31.451  11.138 -30.136  1.00  0.00    -0.363 N
HETATM   42  C5  UNL     1      31.911  10.106 -29.301  1.00  0.00     0.185 C
ATOM     43  H4  UNL     1      30.496  11.432 -29.932  1.00  0.00     0.162 HD
HETATM   44  N5  UNL     1      30.972   9.115 -28.888  1.00  0.00    -0.064 NA
HETATM   45  N6  UNL     1      33.119   9.937 -28.841  1.00  0.00    -0.348 N
HETATM   46  C6  UNL     1      34.336  10.722 -29.030  1.00  0.00     0.267 C
ATOM     47  H6  UNL     1      33.234   9.116 -28.248  1.00  0.00     0.163 HD
ENDBRANCH   4  38
BRANCH   1  48
HETATM   48  N1  UNL     1      34.579  16.436 -30.384  1.00  0.00    -0.383 N
ATOM     49  H12 UNL     1      33.901  16.519 -31.141  1.00  0.00     0.157 HD
ATOM     50  H11 UNL     1      35.275  17.172 -30.269  1.00  0.00     0.157 HD
ENDBRANCH   1  48
TORSDOF 12
ENDMDL