MODEL 5
REMARK VINA RESULT: -7.964157947      1.732      2.562
REMARK  12 active torsions:
REMARK  status: ('A' for Active; 'I' for Inactive)
REMARK    1  A    between atoms: O1_2  and  N1_3
REMARK    2  A    between atoms: N1_3  and  C2_4
REMARK    3  A    between atoms: C2_4  and  C3_5
REMARK    4  A    between atoms: N4_10  and  C4_11
REMARK    5  A    between atoms: C6_16  and  O3_17
REMARK    6  A    between atoms: O3_17  and  C7_18
REMARK    7  A    between atoms: C10_25  and  N7_26
REMARK    8  A    between atoms: N7_26  and  C11_28
REMARK    9  A    between atoms: C14_33  and  N9_34
REMARK   10  A    between atoms: C15_39  and  O5_40
REMARK   11  A    between atoms: C16_42  and  N11_43
REMARK   12  A    between atoms: C17_47  and  O6_48
ROOT
HETATM    1  C4  UNL     1      32.443   9.058 -21.047  1.00  0.00     0.242 C
HETATM    2  N5  UNL     1      33.554   9.946 -21.409  1.00  0.00    -0.333 N
ATOM      3  H5  UNL     1      34.000  10.466 -20.654  1.00  0.00     0.164 HD
HETATM    4  C5  UNL     1      34.069  10.146 -22.735  1.00  0.00     0.251 C
HETATM    5  O2  UNL     1      35.226  10.560 -22.886  1.00  0.00    -0.271 OA
HETATM    6  C6  UNL     1      33.215   9.863 -23.962  1.00  0.00     0.246 C
HETATM    7  C15 UNL     1      33.071   8.425 -24.092  1.00  0.00     0.189 C
HETATM    8  C16 UNL     1      32.254   7.649 -23.135  1.00  0.00     0.247 C
HETATM    9  C17 UNL     1      32.714   7.734 -21.722  1.00  0.00     0.195 C
ENDROOT
BRANCH   6  10
HETATM   10  O3  UNL     1      33.799  10.328 -25.133  1.00  0.00    -0.346 OA
BRANCH  10  11
HETATM   11  C7  UNL     1      33.504  11.653 -25.437  1.00  0.00     0.257 C
HETATM   12  N6  UNL     1      32.228  11.772 -26.185  1.00  0.00    -0.331 N
HETATM   13  C8  UNL     1      32.000  11.142 -27.414  1.00  0.00     0.229 C
ATOM     14  H6  UNL     1      31.482  12.341 -25.785  1.00  0.00     0.165 HD
HETATM   15  O4  UNL     1      30.872  11.364 -27.989  1.00  0.00    -0.273 OA
HETATM   16  C9  UNL     1      32.972  10.247 -28.085  1.00  0.00     0.179 C
HETATM   17  S1  UNL     1      34.604  11.014 -27.865  1.00  0.00    -0.130 SA
HETATM   18  C10 UNL     1      34.593  12.096 -26.378  1.00  0.00     0.194 C
BRANCH  18  19
HETATM   19  N7  UNL     1      34.690  13.442 -26.628  1.00  0.00    -0.358 N
ATOM     20  H7  UNL     1      34.892  13.898 -25.740  1.00  0.00     0.162 HD
BRANCH  19  21
HETATM   21  C11 UNL     1      34.633  14.318 -27.478  1.00  0.00     0.119 A
HETATM   22  C12 UNL     1      34.774  15.653 -27.028  1.00  0.00     0.066 A
HETATM   23  C13 UNL     1      34.753  16.732 -27.866  1.00  0.00     0.110 A
HETATM   24  N8  UNL     1      34.585  16.486 -29.173  1.00  0.00    -0.202 N
HETATM   25  C14 UNL     1      34.446  15.232 -29.616  1.00  0.00     0.677 A
ATOM     26  H8  UNL     1      34.563  17.263 -29.835  1.00  0.00     0.183 HD
HETATM   27  N10 UNL     1      34.472  14.164 -28.808  1.00  0.00    -0.177 N
ATOM     28  H10 UNL     1      34.368  13.229 -29.201  1.00  0.00     0.185 HD
BRANCH  25  29
HETATM   29  N9  UNL     1      34.268  15.095 -30.893  1.00  0.00    -0.234 N
ATOM     30  H92 UNL     1      34.866  14.477 -31.442  1.00  0.00     0.174 HD
ATOM     31  H91 UNL     1      33.497  15.628 -31.298  1.00  0.00     0.174 HD
ENDBRANCH  25  29
ENDBRANCH  19  21
ENDBRANCH  18  19
ENDBRANCH  10  11
ENDBRANCH   6  10
BRANCH   7  32
HETATM   32  O5  UNL     1      34.367   7.847 -24.027  1.00  0.00    -0.390 OA
ATOM     33  H5  UNL     1      34.626   7.810 -23.114  1.00  0.00     0.210 HD
ENDBRANCH   7  32
BRANCH   8  34
HETATM   34  N11 UNL     1      30.846   7.788 -23.255  1.00  0.00    -0.070 N
ATOM     35 3H11 UNL     1      30.628   8.522 -23.930  1.00  0.00     0.274 HD
ATOM     36 2H11 UNL     1      30.458   6.975 -23.735  1.00  0.00     0.274 HD
ATOM     37 1H11 UNL     1      30.333   7.953 -22.389  1.00  0.00     0.274 HD
ENDBRANCH   8  34
BRANCH   1  38
HETATM   38  N4  UNL     1      32.420   8.781 -19.627  1.00  0.00    -0.236 N
HETATM   39  N3  UNL     1      32.285   7.680 -18.930  1.00  0.00    -0.237 N
HETATM   40  N2  UNL     1      32.319   7.944 -17.603  1.00  0.00    -0.286 N
ATOM     41  H3  UNL     1      32.169   6.750 -19.333  1.00  0.00     0.208 HD
HETATM   42  C3  UNL     1      32.478   9.248 -17.426  1.00  0.00     0.086 A
ATOM     43  H2  UNL     1      32.236   7.251 -16.859  1.00  0.00     0.188 HD
HETATM   44  C18 UNL     1      32.544   9.774 -18.728  1.00  0.00     0.161 A
HETATM   45  N12 UNL     1      32.794  11.165 -18.888  1.00  0.00    -0.079 NA
BRANCH  42  46
HETATM   46  C2  UNL     1      32.423  10.111 -16.214  1.00  0.00     0.204 C
BRANCH  46  47
HETATM   47  N1  UNL     1      33.671   9.962 -15.514  1.00  0.00    -0.096 NA
BRANCH  47  48
HETATM   48  O1  UNL     1      33.906   8.669 -15.303  1.00  0.00    -0.291 OA
HETATM   49  C1  UNL     1      34.691   8.439 -14.160  1.00  0.00     0.231 C
ENDBRANCH  47  48
ENDBRANCH  46  47
ENDBRANCH  42  46
ENDBRANCH   1  38
BRANCH   9  50
HETATM   50  O6  UNL     1      34.133   7.601 -21.639  1.00  0.00    -0.389 OA
ATOM     51  H6  UNL     1      34.296   7.542 -20.705  1.00  0.00     0.210 HD
ENDBRANCH   9  50
TORSDOF 12
ENDMDL