MODEL 1
REMARK VINA RESULT: -7.277825646      0.000      0.000
REMARK  15 active torsions:
REMARK  status: ('A' for Active; 'I' for Inactive)
REMARK    1  A    between atoms: C1_2  and  O2_4
REMARK    2  A    between atoms: O2_4  and  C2_5
REMARK    3  A    between atoms: C2_5  and  O3_6
REMARK    4  A    between atoms: C2_5  and  C3_8
REMARK    5  A    between atoms: C3_8  and  O4_9
REMARK    6  A    between atoms: C3_8  and  O5_11
REMARK    7  A    between atoms: C3_8  and  C4_13
REMARK       I    between atoms: C4_13  and  N2_15
REMARK    8  A    between atoms: N2_15  and  S1_17
REMARK    9  A    between atoms: S1_17  and  N3_20
REMARK   10  A    between atoms: N3_20  and  C5_22
REMARK   11  A    between atoms: C8_29  and  S2_30
REMARK   12  A    between atoms: S2_30  and  N6_33
REMARK   13  A    between atoms: N6_33  and  C9_35
REMARK   14  A    between atoms: C12_39  and  O12_40
REMARK   15  A    between atoms: C13_42  and  O13_43
ROOT
HETATM    1  C5  UNL     1      32.529   9.712 -26.450  1.00  0.00     0.141 A
HETATM    2  N4  UNL     1      33.169   8.548 -26.115  1.00  0.00    -0.337 N
ATOM      3  H4  UNL     1      33.098   8.221 -25.151  1.00  0.00     0.168 HD
HETATM    4  C6  UNL     1      33.880   7.816 -26.976  1.00  0.00     0.181 A
HETATM    5  N5  UNL     1      34.000   8.208 -28.254  1.00  0.00    -0.360 N
ATOM      6  H5  UNL     1      34.540   7.661 -28.925  1.00  0.00     0.166 HD
HETATM    7  C7  UNL     1      33.387   9.339 -28.619  1.00  0.00     0.118 A
HETATM    8  C8  UNL     1      32.632  10.131 -27.737  1.00  0.00     0.139 A
ENDROOT
BRANCH   1   9
HETATM    9  N3  UNL     1      31.905  10.363 -25.523  1.00  0.00    -0.251 N
ATOM     10  H3  UNL     1      30.895  10.236 -25.457  1.00  0.00     0.182 HD
BRANCH   9  11
HETATM   11  S1  UNL     1      32.634  11.411 -24.411  1.00  0.00     0.327 S
HETATM   12  O7  UNL     1      34.105  11.482 -24.725  1.00  0.00    -0.182 OA
HETATM   13  O8  UNL     1      32.021  12.765 -24.549  1.00  0.00    -0.182 OA
BRANCH  11  14
HETATM   14  N2  UNL     1      32.381  10.842 -22.804  1.00  0.00    -0.232 N
HETATM   15  C4  UNL     1      32.803   9.531 -22.455  1.00  0.00     0.300 C
HETATM   16  O6  UNL     1      33.353   8.804 -23.332  1.00  0.00    -0.266 OA
ATOM     17  H2  UNL     1      31.932  11.441 -22.110  1.00  0.00     0.183 HD
BRANCH  15  18
HETATM   18  C3  UNL     1      32.578   9.064 -21.069  1.00  0.00     0.296 C
BRANCH  18  19
HETATM   19  C2  UNL     1      32.221  10.223 -20.159  1.00  0.00     0.341 C
BRANCH  19  20
HETATM   20  O2  UNL     1      32.460   9.866 -18.820  1.00  0.00    -0.269 OA
BRANCH  20  21
HETATM   21  C1  UNL     1      31.389   9.521 -18.008  1.00  0.00     0.375 C
HETATM   22  N1  UNL     1      30.880   8.195 -18.001  1.00  0.00    -0.032 NA
HETATM   23  O1  UNL     1      30.880  10.418 -17.277  1.00  0.00    -0.242 OA
ENDBRANCH  20  21
ENDBRANCH  19  20
BRANCH  19  24
HETATM   24  O3  UNL     1      30.881  10.554 -20.277  1.00  0.00    -0.366 OA
ATOM     25  H3  UNL     1      30.519  10.052 -20.998  1.00  0.00     0.212 HD
ENDBRANCH  19  24
ENDBRANCH  18  19
BRANCH  18  26
HETATM   26  O4  UNL     1      33.829   8.542 -20.645  1.00  0.00    -0.354 OA
ATOM     27  H4  UNL     1      33.660   7.836 -20.031  1.00  0.00     0.213 HD
ENDBRANCH  18  26
BRANCH  18  28
HETATM   28  O5  UNL     1      31.669   8.028 -20.967  1.00  0.00    -0.354 OA
ATOM     29  H5  UNL     1      31.292   7.802 -21.810  1.00  0.00     0.213 HD
ENDBRANCH  18  28
ENDBRANCH  15  18
ENDBRANCH  11  14
ENDBRANCH   9  11
ENDBRANCH   1   9
BRANCH   8  30
HETATM   30  S2  UNL     1      31.836  11.544 -28.354  1.00  0.00     0.264 S
HETATM   31  O9  UNL     1      31.266  11.134 -29.731  1.00  0.00    -0.200 OA
HETATM   32  O10 UNL     1      30.535  11.736 -27.542  1.00  0.00    -0.200 OA
BRANCH  30  33
HETATM   33  N6  UNL     1      32.623  12.982 -28.383  1.00  0.00    -0.306 N
ATOM     34  H6  UNL     1      32.051  13.797 -28.163  1.00  0.00     0.173 HD
BRANCH  33  35
HETATM   35  C9  UNL     1      33.940  13.249 -28.663  1.00  0.00     0.148 C
HETATM   36  C10 UNL     1      34.231  13.657 -30.097  1.00  0.00     0.196 C
HETATM   37  O11 UNL     1      34.012  14.974 -30.369  1.00  0.00    -0.386 OA
HETATM   38  C11 UNL     1      34.750  15.844 -29.568  1.00  0.00     0.201 C
HETATM   39  C12 UNL     1      34.110  15.722 -28.178  1.00  0.00     0.172 C
HETATM   40  C13 UNL     1      34.440  14.343 -27.698  1.00  0.00     0.174 C
BRANCH  39  41
HETATM   41  O12 UNL     1      32.756  15.879 -28.338  1.00  0.00    -0.391 OA
ATOM     42  H12 UNL     1      32.490  16.607 -27.789  1.00  0.00     0.210 HD
ENDBRANCH  39  41
BRANCH  40  43
HETATM   43  O13 UNL     1      33.880  14.180 -26.446  1.00  0.00    -0.391 OA
ATOM     44  H13 UNL     1      34.123  14.898 -25.875  1.00  0.00     0.210 HD
ENDBRANCH  40  43
ENDBRANCH  33  35
ENDBRANCH  30  33
ENDBRANCH   8  30
TORSDOF 15
ENDMDL