MODEL 1
REMARK VINA RESULT: -7.755434696      0.000      0.000
REMARK  14 active torsions:
REMARK  status: ('A' for Active; 'I' for Inactive)
REMARK    1  A    between atoms: C2_5  and  C3_6
REMARK       I    between atoms: C3_6  and  N2_8
REMARK    2  A    between atoms: N2_8  and  C4_10
REMARK    3  A    between atoms: C4_10  and  C5_11
REMARK    4  A    between atoms: N3_13  and  C7_14
REMARK    5  A    between atoms: C8_16  and  C9_17
REMARK    6  A    between atoms: C10_20  and  O5_21
REMARK    7  A    between atoms: O5_21  and  C11_22
REMARK    8  A    between atoms: N5_24  and  N6_26
REMARK    9  A    between atoms: C13_35  and  N9_36
REMARK   10  A    between atoms: C14_40  and  N10_41
REMARK   11  A    between atoms: C16_46  and  N11_47
REMARK   12  A    between atoms: C17_51  and  C18_52
REMARK   13  A    between atoms: C18_52  and  O7_53
REMARK   14  A    between atoms: C18_52  and  O8_55
ROOT
HETATM    1  C3  UNL     1      34.750  15.859 -25.932  1.00  0.00     0.229 C
HETATM    2  O1  UNL     1      33.523  15.943 -25.725  1.00  0.00    -0.273 OA
HETATM    3  N2  UNL     1      35.298  16.080 -27.232  1.00  0.00    -0.355 N
ATOM      4  H2  UNL     1      36.302  16.012 -27.400  1.00  0.00     0.162 HD
ENDROOT
BRANCH   1   5
HETATM    5  C2  UNL     1      35.686  15.527 -24.824  1.00  0.00     0.156 C
HETATM    6  C1  UNL     1      35.959  16.767 -23.995  1.00  0.00     0.006 C
HETATM    7  N1  UNL     1      35.399  17.778 -24.464  1.00  0.00    -0.404 N
HETATM    8  C17 UNL     1      36.766  16.888 -22.789  1.00  0.00     0.117 C
ATOM      9  H12 UNL     1      34.835  17.693 -25.309  1.00  0.00     0.155 HD
ATOM     10  H11 UNL     1      35.583  18.612 -23.907  1.00  0.00     0.155 HD
HETATM   11  C16 UNL     1      37.167  15.516 -22.262  1.00  0.00     0.199 C
HETATM   12  C15 UNL     1      36.009  14.794 -21.659  1.00  0.00     0.068 C
HETATM   13  C14 UNL     1      34.814  14.737 -22.594  1.00  0.00     0.217 C
HETATM   14  C13 UNL     1      35.269  14.362 -23.989  1.00  0.00     0.232 C
BRANCH   8  15
HETATM   15  C18 UNL     1      36.219  17.707 -21.677  1.00  0.00     0.265 C
BRANCH  15  16
HETATM   16  O7  UNL     1      37.226  18.458 -21.031  1.00  0.00    -0.371 OA
ATOM     17  H7  UNL     1      36.863  19.173 -20.522  1.00  0.00     0.212 HD
ENDBRANCH  15  16
BRANCH  15  18
HETATM   18  O8  UNL     1      35.315  18.664 -22.144  1.00  0.00    -0.371 OA
ATOM     19  H8  UNL     1      34.982  19.201 -21.435  1.00  0.00     0.212 HD
ENDBRANCH  15  18
ENDBRANCH   8  15
BRANCH  11  20
HETATM   20  N11 UNL     1      38.204  15.692 -21.281  1.00  0.00    -0.074 N
ATOM     21 3H11 UNL     1      38.180  14.965 -20.566  1.00  0.00     0.274 HD
ATOM     22 2H11 UNL     1      39.129  15.494 -21.663  1.00  0.00     0.274 HD
ATOM     23 1H11 UNL     1      38.149  16.627 -20.877  1.00  0.00     0.274 HD
ENDBRANCH  11  20
BRANCH  13  24
HETATM   24  N10 UNL     1      33.971  13.631 -22.116  1.00  0.00    -0.073 N
ATOM     25 3H10 UNL     1      34.498  12.784 -21.903  1.00  0.00     0.274 HD
ATOM     26 2H10 UNL     1      33.596  13.785 -21.180  1.00  0.00     0.274 HD
ATOM     27 1H10 UNL     1      33.248  13.490 -22.821  1.00  0.00     0.274 HD
ENDBRANCH  13  24
BRANCH  14  28
HETATM   28  N9  UNL     1      34.306  13.479 -24.630  1.00  0.00    -0.072 N
ATOM     29  H93 UNL     1      33.904  13.928 -25.454  1.00  0.00     0.274 HD
ATOM     30  H92 UNL     1      34.782  12.694 -25.074  1.00  0.00     0.274 HD
ATOM     31  H91 UNL     1      33.567  13.144 -24.012  1.00  0.00     0.274 HD
ENDBRANCH  14  28
ENDBRANCH   1   5
BRANCH   3  32
HETATM   32  C4  UNL     1      34.383  16.404 -28.299  1.00  0.00     0.182 C
BRANCH  32  33
HETATM   33  C5  UNL     1      34.323  15.361 -29.351  1.00  0.00     0.062 A
HETATM   34  C6  UNL     1      34.352  13.982 -29.207  1.00  0.00     0.143 A
HETATM   35  N3  UNL     1      34.273  13.396 -30.415  1.00  0.00    -0.251 N
HETATM   36  N7  UNL     1      34.198  14.373 -31.289  1.00  0.00    -0.238 N
HETATM   37  N8  UNL     1      34.225  15.565 -30.677  1.00  0.00    -0.287 N
ATOM     38  H7  UNL     1      34.129  14.242 -32.299  1.00  0.00     0.208 HD
ATOM     39  H8  UNL     1      34.179  16.473 -31.138  1.00  0.00     0.188 HD
BRANCH  35  40
HETATM   40  C7  UNL     1      34.277  11.957 -30.644  1.00  0.00     0.319 C
HETATM   41  O2  UNL     1      34.572  11.251 -29.469  1.00  0.00    -0.339 OA
HETATM   42  C8  UNL     1      33.748  10.114 -29.518  1.00  0.00     0.262 C
HETATM   43  C10 UNL     1      32.426  10.789 -29.815  1.00  0.00     0.245 C
HETATM   44  C12 UNL     1      32.902  11.549 -31.062  1.00  0.00     0.209 C
HETATM   45  O6  UNL     1      32.341  11.762 -32.084  1.00  0.00    -0.290 OA
BRANCH  42  46
HETATM   46  C9  UNL     1      33.829   9.296 -28.339  1.00  0.00     0.206 C
HETATM   47  O3  UNL     1      34.813   9.379 -27.558  1.00  0.00    -0.646 OA
HETATM   48  O4  UNL     1      32.832   8.389 -28.016  1.00  0.00    -0.646 OA
ENDBRANCH  42  46
BRANCH  43  49
HETATM   49  O5  UNL     1      32.041  11.798 -28.949  1.00  0.00    -0.307 OA
BRANCH  49  50
HETATM   50  C11 UNL     1      31.665  11.577 -27.654  1.00  0.00     0.246 C
HETATM   51  N4  UNL     1      32.252  12.196 -26.504  1.00  0.00    -0.055 NA
HETATM   52  N5  UNL     1      30.700  10.741 -27.488  1.00  0.00    -0.274 N
ATOM     53  H5  UNL     1      30.265  10.288 -28.292  1.00  0.00     0.189 HD
BRANCH  52  54
HETATM   54  N6  UNL     1      30.259  10.462 -26.198  1.00  0.00    -0.342 N
ATOM     55  H62 UNL     1      30.665  10.965 -25.409  1.00  0.00     0.176 HD
ATOM     56  H61 UNL     1      29.534   9.757 -26.062  1.00  0.00     0.176 HD
ENDBRANCH  52  54
ENDBRANCH  49  50
ENDBRANCH  43  49
ENDBRANCH  35  40
ENDBRANCH  32  33
ENDBRANCH   3  32
TORSDOF 14
ENDMDL