MODEL 5
REMARK VINA RESULT: -7.784004662      1.101      1.165
REMARK  15 active torsions:
REMARK  status: ('A' for Active; 'I' for Inactive)
REMARK    1  A    between atoms: C2_2  and  O1_3
REMARK    2  A    between atoms: C2_2  and  C3_5
REMARK    3  A    between atoms: C3_5  and  O2_6
REMARK    4  A    between atoms: C4_8  and  O3_9
REMARK    5  A    between atoms: C5_11  and  C6_12
REMARK    6  A    between atoms: C6_12  and  O4_13
REMARK    7  A    between atoms: C7_16  and  N1_17
REMARK    8  A    between atoms: N3_24  and  C10_25
REMARK    9  A    between atoms: C10_25  and  O7_26
REMARK   10  A    between atoms: C10_25  and  C11_28
REMARK       I    between atoms: C11_28  and  N4_30
REMARK   11  A    between atoms: N4_30  and  C12_32
REMARK   12  A    between atoms: C15_38  and  N7_39
REMARK   13  A    between atoms: N7_39  and  C16_41
REMARK   14  A    between atoms: C16_41  and  C17_42
REMARK   15  A    between atoms: C17_42  and  O9_43
ROOT
HETATM    1  N1  UNL     1      33.143  10.023 -21.940  1.00  0.00    -0.233 N
HETATM    2  C8  UNL     1      32.705   8.965 -22.645  1.00  0.00     0.335 A
HETATM    3  O5  UNL     1      32.465   7.860 -22.092  1.00  0.00    -0.246 OA
HETATM    4  N2  UNL     1      32.499   9.029 -23.982  1.00  0.00    -0.260 N
ATOM      5  H2  UNL     1      32.166   8.208 -24.487  1.00  0.00     0.175 HD
HETATM    6  C9  UNL     1      32.729  10.157 -24.632  1.00  0.00     0.337 A
HETATM    7  O6  UNL     1      32.530  10.199 -25.888  1.00  0.00    -0.246 OA
HETATM    8  N3  UNL     1      33.167  11.230 -23.952  1.00  0.00    -0.214 N
HETATM    9  C18 UNL     1      33.370  11.158 -22.624  1.00  0.00     0.340 A
HETATM   10  O10 UNL     1      33.787  12.189 -21.992  1.00  0.00    -0.246 OA
ENDROOT
BRANCH   8  11
HETATM   11  C10 UNL     1      33.404  12.444 -24.714  1.00  0.00     0.327 C
BRANCH  11  12
HETATM   12  O7  UNL     1      32.361  12.663 -25.638  1.00  0.00    -0.367 OA
ATOM     13  H7  UNL     1      32.140  13.586 -25.681  1.00  0.00     0.212 HD
ENDBRANCH  11  12
BRANCH  11  14
HETATM   14  C11 UNL     1      34.681  12.383 -25.466  1.00  0.00     0.272 C
HETATM   15  O8  UNL     1      35.760  12.486 -24.831  1.00  0.00    -0.268 OA
HETATM   16  N4  UNL     1      34.762  12.214 -26.868  1.00  0.00    -0.309 N
ATOM     17  H4  UNL     1      34.941  11.275 -27.224  1.00  0.00     0.170 HD
BRANCH  16  18
HETATM   18  C12 UNL     1      34.625  13.154 -27.717  1.00  0.00     0.126 A
HETATM   19  C13 UNL     1      34.311  12.956 -29.048  1.00  0.00     0.094 A
HETATM   20  C14 UNL     1      34.189  14.052 -29.877  1.00  0.00     0.135 A
HETATM   21  N5  UNL     1      33.868  13.896 -31.248  1.00  0.00    -0.082 NA
HETATM   22  N6  UNL     1      34.371  15.321 -29.409  1.00  0.00    -0.179 N
HETATM   23  C15 UNL     1      34.675  15.504 -28.114  1.00  0.00     0.681 A
ATOM     24  H6  UNL     1      34.277  16.120 -30.035  1.00  0.00     0.185 HD
HETATM   25  N8  UNL     1      34.791  14.419 -27.317  1.00  0.00    -0.177 N
ATOM     26  H8  UNL     1      35.024  14.577 -26.336  1.00  0.00     0.186 HD
BRANCH  23  27
HETATM   27  N7  UNL     1      34.851  16.695 -27.652  1.00  0.00    -0.224 N
ATOM     28  H7  UNL     1      35.285  17.383 -28.267  1.00  0.00     0.177 HD
BRANCH  27  29
HETATM   29  C16 UNL     1      34.476  17.118 -26.326  1.00  0.00     0.164 C
BRANCH  29  30
HETATM   30  C17 UNL     1      35.699  16.957 -25.420  1.00  0.00     0.184 C
BRANCH  30  31
HETATM   31  O9  UNL     1      35.674  15.725 -24.813  1.00  0.00    -0.399 OA
ATOM     32  H9  UNL     1      35.413  15.817 -23.904  1.00  0.00     0.209 HD
ENDBRANCH  30  31
ENDBRANCH  29  30
ENDBRANCH  27  29
ENDBRANCH  23  27
ENDBRANCH  16  18
ENDBRANCH  11  14
ENDBRANCH   8  11
BRANCH   1  33
HETATM   33  C7  UNL     1      33.340   9.886 -20.528  1.00  0.00     0.201 C
HETATM   34  C3  UNL     1      32.148   9.846 -19.681  1.00  0.00     0.140 C
HETATM   35  C4  UNL     1      32.168   8.878 -18.609  1.00  0.00     0.173 C
HETATM   36  C5  UNL     1      33.410   8.103 -18.499  1.00  0.00     0.105 C
HETATM   37  S1  UNL     1      34.172   8.299 -20.132  1.00  0.00    -0.130 SA
BRANCH  34  38
HETATM   38  C2  UNL     1      31.878  11.234 -19.072  1.00  0.00     0.154 C
HETATM   39  C1  UNL     1      33.149  11.909 -18.623  1.00  0.00     0.042 C
BRANCH  38  40
HETATM   40  O1  UNL     1      31.065  11.076 -17.925  1.00  0.00    -0.393 OA
ATOM     41  H1  UNL     1      31.365  10.295 -17.476  1.00  0.00     0.210 HD
ENDBRANCH  38  40
ENDBRANCH  34  38
BRANCH  34  42
HETATM   42  O2  UNL     1      31.018   9.615 -20.503  1.00  0.00    -0.382 OA
ATOM     43  H2  UNL     1      31.381   9.588 -21.381  1.00  0.00     0.211 HD
ENDBRANCH  34  42
BRANCH  35  44
HETATM   44  O3  UNL     1      31.105   7.951 -18.739  1.00  0.00    -0.391 OA
ATOM     45  H3  UNL     1      31.432   7.066 -18.846  1.00  0.00     0.210 HD
ENDBRANCH  35  44
BRANCH  36  46
HETATM   46  C6  UNL     1      33.181   6.644 -18.167  1.00  0.00     0.181 C
BRANCH  46  47
HETATM   47  O4  UNL     1      32.645   6.579 -16.865  1.00  0.00    -0.400 OA
ATOM     48  H4  UNL     1      32.670   7.454 -16.498  1.00  0.00     0.209 HD
ENDBRANCH  46  47
ENDBRANCH  36  46
ENDBRANCH   1  33
TORSDOF 15
ENDMDL