MODEL 5
REMARK VINA RESULT: -6.585476102      3.670      9.077
REMARK  15 active torsions:
REMARK  status: ('A' for Active; 'I' for Inactive)
REMARK    1  A    between atoms: N1_1  and  C1_5
REMARK    2  A    between atoms: C1_5  and  C2_6
REMARK    3  A    between atoms: C2_6  and  N2_7
REMARK    4  A    between atoms: N2_7  and  C3_9
REMARK    5  A    between atoms: C5_16  and  N6_17
REMARK       I    between atoms: N6_17  and  C6_19
REMARK    6  A    between atoms: C6_19  and  C7_21
REMARK    7  A    between atoms: C7_21  and  O2_22
REMARK    8  A    between atoms: C7_21  and  C8_24
REMARK    9  A    between atoms: C8_24  and  O3_25
REMARK   10  A    between atoms: C9_27  and  O4_28
REMARK   11  A    between atoms: C10_30  and  O5_31
REMARK   12  A    between atoms: O5_31  and  S1_32
REMARK   13  A    between atoms: S1_32  and  N7_33
REMARK   14  A    between atoms: C13_41  and  N8_42
REMARK   15  A    between atoms: C15_47  and  C16_48
ROOT
HETATM    1  C7  UNL     1      34.404  12.987 -22.501  1.00  0.00     0.247 C
ENDROOT
BRANCH   1   2
HETATM    2  C6  UNL     1      34.262  12.580 -23.920  1.00  0.00     0.255 C
HETATM    3  N6  UNL     1      35.169  12.948 -24.954  1.00  0.00    -0.310 N
ATOM      4  H6  UNL     1      35.791  12.246 -25.354  1.00  0.00     0.170 HD
HETATM    5  O1  UNL     1      33.293  11.862 -24.279  1.00  0.00    -0.270 OA
BRANCH   3   6
HETATM    6  C5  UNL     1      35.210  14.171 -25.392  1.00  0.00     0.131 A
HETATM    7  N5  UNL     1      35.781  15.151 -24.700  1.00  0.00    -0.315 N
HETATM    8  C4  UNL     1      35.798  16.394 -25.195  1.00  0.00     0.195 A
ATOM      9  H5  UNL     1      36.205  14.956 -23.794  1.00  0.00     0.170 HD
HETATM   10  N3  UNL     1      35.245  16.674 -26.387  1.00  0.00    -0.316 N
HETATM   11  N4  UNL     1      36.399  17.502 -24.499  1.00  0.00    -0.063 NA
HETATM   12  C3  UNL     1      34.653  15.710 -27.128  1.00  0.00     0.124 A
ATOM     13  H3  UNL     1      35.272  17.630 -26.739  1.00  0.00     0.170 HD
HETATM   14  C15 UNL     1      34.625  14.425 -26.635  1.00  0.00     0.128 A
BRANCH  12  15
HETATM   15  N2  UNL     1      34.061  16.077 -28.337  1.00  0.00    -0.374 N
ATOM     16  H2  UNL     1      33.056  16.243 -28.362  1.00  0.00     0.161 HD
BRANCH  15  17
HETATM   17  C2  UNL     1      34.832  16.231 -29.570  1.00  0.00     0.148 C
BRANCH  17  18
HETATM   18  C1  UNL     1      34.568  15.111 -30.550  1.00  0.00     0.249 C
BRANCH  18  19
HETATM   19  N1  UNL     1      33.212  14.593 -30.342  1.00  0.00    -0.078 N
ATOM     20  H13 UNL     1      32.694  15.133 -29.649  1.00  0.00     0.274 HD
ATOM     21  H12 UNL     1      32.605  14.766 -31.144  1.00  0.00     0.274 HD
ATOM     22  H11 UNL     1      33.261  13.603 -30.102  1.00  0.00     0.274 HD
ENDBRANCH  18  19
ENDBRANCH  17  18
ENDBRANCH  15  17
ENDBRANCH  12  15
BRANCH  14  23
HETATM   23  C16 UNL     1      34.038  13.315 -27.342  1.00  0.00     0.217 C
HETATM   24  O9  UNL     1      32.829  13.146 -27.469  1.00  0.00    -0.644 OA
HETATM   25  O10 UNL     1      34.928  12.370 -27.920  1.00  0.00    -0.644 OA
ENDBRANCH  14  23
ENDBRANCH   3   6
ENDBRANCH   1   2
BRANCH   1  26
HETATM   26  O2  UNL     1      33.577  14.076 -22.252  1.00  0.00    -0.383 OA
ATOM     27  H2  UNL     1      34.060  14.879 -22.416  1.00  0.00     0.210 HD
ENDBRANCH   1  26
BRANCH   1  28
HETATM   28  C8  UNL     1      34.234  11.851 -21.545  1.00  0.00     0.129 C
HETATM   29  C9  UNL     1      32.888  11.744 -20.921  1.00  0.00     0.189 C
HETATM   30  C10 UNL     1      33.119  10.759 -19.801  1.00  0.00     0.205 C
HETATM   31  C11 UNL     1      34.604  10.683 -19.546  1.00  0.00     0.163 C
HETATM   32  O8  UNL     1      34.972  11.019 -18.271  1.00  0.00    -0.381 OA
HETATM   33  C14 UNL     1      35.233  11.727 -20.484  1.00  0.00     0.090 C
HETATM   34  C12 UNL     1      35.994  11.980 -18.334  1.00  0.00     0.201 C
HETATM   35  C13 UNL     1      35.473  12.817 -19.526  1.00  0.00     0.216 C
BRANCH  28  36
HETATM   36  O3  UNL     1      34.373  10.677 -22.339  1.00  0.00    -0.383 OA
ATOM     37  H3  UNL     1      34.144   9.960 -21.760  1.00  0.00     0.210 HD
ENDBRANCH  28  36
BRANCH  29  38
HETATM   38  O4  UNL     1      31.977  11.198 -21.828  1.00  0.00    -0.390 OA
ATOM     39  H4  UNL     1      31.346  10.654 -21.372  1.00  0.00     0.210 HD
ENDBRANCH  29  38
BRANCH  30  40
HETATM   40  O5  UNL     1      32.366  10.999 -18.680  1.00  0.00    -0.249 OA
BRANCH  40  41
HETATM   41  S1  UNL     1      31.711   9.587 -18.015  1.00  0.00     0.356 S
HETATM   42  O6  UNL     1      31.318   8.618 -19.106  1.00  0.00    -0.176 OA
HETATM   43  O7  UNL     1      30.479   9.868 -17.224  1.00  0.00    -0.176 OA
BRANCH  41  44
HETATM   44  N7  UNL     1      32.869   8.873 -16.941  1.00  0.00    -0.306 N
ATOM     45  H72 UNL     1      33.043   7.871 -16.859  1.00  0.00     0.171 HD
ATOM     46  H71 UNL     1      33.337   9.611 -16.415  1.00  0.00     0.171 HD
ENDBRANCH  41  44
ENDBRANCH  40  41
ENDBRANCH  30  40
BRANCH  35  47
HETATM   47  N8  UNL     1      34.333  13.507 -19.014  1.00  0.00    -0.072 N
ATOM     48  H83 UNL     1      33.479  12.949 -19.008  1.00  0.00     0.274 HD
ATOM     49  H82 UNL     1      34.367  13.677 -18.010  1.00  0.00     0.274 HD
ATOM     50  H81 UNL     1      34.270  14.355 -19.576  1.00  0.00     0.274 HD
ENDBRANCH  35  47
ENDBRANCH   1  28
TORSDOF 15
ENDMDL