MODEL 1
REMARK VINA RESULT: -7.042020374      0.000      0.000
REMARK  11 active torsions:
REMARK  status: ('A' for Active; 'I' for Inactive)
REMARK    1  A    between atoms: O1_2  and  C2_3
REMARK    2  A    between atoms: C2_3  and  C3_5
REMARK    3  A    between atoms: C5_7  and  O3_8
REMARK    4  A    between atoms: C6_10  and  C7_11
REMARK    5  A    between atoms: C7_11  and  N1_12
REMARK       I    between atoms: N1_12  and  C8_14
REMARK    6  A    between atoms: C8_14  and  C9_16
REMARK    7  A    between atoms: C9_16  and  N2_17
REMARK    8  A    between atoms: C9_16  and  C12_22
REMARK       I    between atoms: N2_17  and  C10_19
REMARK    9  A    between atoms: C15_31  and  O6_32
REMARK   10  A    between atoms: C16_34  and  N7_35
REMARK   11  A    between atoms: C20_44  and  O7_45
ROOT
HETATM    1  C3  UNL     1      33.145  10.085 -23.734  1.00  0.00     0.166 C
HETATM    2  C4  UNL     1      34.612  10.238 -23.427  1.00  0.00     0.086 C
HETATM    3  C5  UNL     1      34.708  11.598 -22.811  1.00  0.00     0.130 C
HETATM    4  C6  UNL     1      34.215  12.685 -23.741  1.00  0.00     0.150 C
HETATM    5  N5  UNL     1      32.857  12.311 -23.903  1.00  0.00    -0.151 NA
HETATM    6  N6  UNL     1      32.577  11.181 -23.046  1.00  0.00    -0.170 NA
HETATM    7  C15 UNL     1      33.416  11.608 -21.960  1.00  0.00     0.201 C
HETATM    8  C16 UNL     1      33.494  11.005 -20.671  1.00  0.00     0.236 C
HETATM    9  N8  UNL     1      32.846   9.768 -20.376  1.00  0.00    -0.340 N
ATOM     10  H8  UNL     1      32.586   9.777 -19.390  1.00  0.00     0.164 HD
HETATM   11  C19 UNL     1      32.477   8.682 -20.859  1.00  0.00     0.187 C
HETATM   12  N9  UNL     1      31.822   7.771 -19.974  1.00  0.00    -0.064 NA
HETATM   13  N10 UNL     1      32.600   8.175 -22.201  1.00  0.00    -0.336 N
ATOM     14  H10 UNL     1      32.702   7.160 -22.216  1.00  0.00     0.164 HD
HETATM   15  C20 UNL     1      32.616   8.716 -23.477  1.00  0.00     0.254 C
ENDROOT
BRANCH   4  16
HETATM   16  C7  UNL     1      35.035  12.842 -24.965  1.00  0.00     0.148 C
BRANCH  16  17
HETATM   17  N1  UNL     1      34.200  13.299 -26.052  1.00  0.00    -0.357 N
HETATM   18  C8  UNL     1      34.356  12.722 -27.333  1.00  0.00     0.246 C
HETATM   19  O4  UNL     1      35.226  11.801 -27.452  1.00  0.00    -0.271 OA
ATOM     20  H1  UNL     1      33.506  14.030 -25.897  1.00  0.00     0.162 HD
BRANCH  18  21
HETATM   21  C9  UNL     1      33.586  13.103 -28.545  1.00  0.00     0.228 C
BRANCH  21  22
HETATM   22  N2  UNL     1      34.261  14.093 -29.340  1.00  0.00    -0.343 N
HETATM   23  C10 UNL     1      34.185  15.463 -29.012  1.00  0.00     0.214 C
HETATM   24  C11 UNL     1      34.886  16.481 -29.847  1.00  0.00     0.117 C
HETATM   25  O5  UNL     1      33.522  15.810 -28.014  1.00  0.00    -0.274 OA
ATOM     26  H2  UNL     1      34.802  13.801 -30.154  1.00  0.00     0.163 HD
ENDBRANCH  21  22
BRANCH  21  27
HETATM   27  C12 UNL     1      33.051  11.996 -29.325  1.00  0.00     0.058 A
HETATM   28  C13 UNL     1      32.710  11.955 -30.673  1.00  0.00     0.116 A
HETATM   29  N3  UNL     1      32.261  10.758 -31.011  1.00  0.00    -0.360 N
HETATM   30  C14 UNL     1      32.296   9.993 -29.891  1.00  0.00     0.180 A
ATOM     31  H3  UNL     1      31.947  10.467 -31.936  1.00  0.00     0.166 HD
HETATM   32  N4  UNL     1      32.775  10.750 -28.881  1.00  0.00    -0.352 N
ATOM     33  H4  UNL     1      32.909  10.428 -27.922  1.00  0.00     0.166 HD
ENDBRANCH  21  27
ENDBRANCH  18  21
ENDBRANCH  16  17
ENDBRANCH   4  16
BRANCH   3  34
HETATM   34  O3  UNL     1      35.834  11.869 -22.135  1.00  0.00    -0.383 OA
ATOM     35  H3  UNL     1      35.823  11.683 -21.204  1.00  0.00     0.210 HD
ENDBRANCH   3  34
BRANCH   7  36
HETATM   36  O6  UNL     1      33.018  12.976 -21.777  1.00  0.00    -0.368 OA
ATOM     37  H6  UNL     1      32.068  13.001 -21.743  1.00  0.00     0.212 HD
ENDBRANCH   7  36
BRANCH   1  38
HETATM   38  C2  UNL     1      32.859  10.187 -25.196  1.00  0.00     0.287 C
HETATM   39  O2  UNL     1      33.472   9.478 -26.015  1.00  0.00    -0.263 OA
BRANCH  38  40
HETATM   40  O1  UNL     1      31.903  11.072 -25.688  1.00  0.00    -0.325 OA
HETATM   41  C1  UNL     1      30.742  10.563 -26.313  1.00  0.00     0.213 C
ENDBRANCH  38  40
ENDBRANCH   1  38
BRANCH   8  42
HETATM   42  N7  UNL     1      33.087  11.897 -19.598  1.00  0.00    -0.397 N
HETATM   43  C17 UNL     1      31.806  11.780 -19.064  1.00  0.00     0.144 C
HETATM   44  C18 UNL     1      34.093  12.326 -18.713  1.00  0.00     0.144 C
ENDBRANCH   8  42
BRANCH  15  45
HETATM   45  O7  UNL     1      31.341   8.625 -24.061  1.00  0.00    -0.374 OA
ATOM     46  H7  UNL     1      30.954   7.799 -23.795  1.00  0.00     0.212 HD
ENDBRANCH  15  45
TORSDOF 11
ENDMDL