MODEL 1
REMARK VINA RESULT: -7.303582667      0.000      0.000
REMARK  13 active torsions:
REMARK  status: ('A' for Active; 'I' for Inactive)
REMARK    1  A    between atoms: C1_2  and  C2_4
REMARK    2  A    between atoms: C4_6  and  O2_7
REMARK    3  A    between atoms: C5_9  and  N2_10
REMARK       I    between atoms: N2_10  and  C6_12
REMARK    4  A    between atoms: C6_12  and  C7_14
REMARK    5  A    between atoms: C7_14  and  N3_15
REMARK    6  A    between atoms: N3_15  and  C8_17
REMARK    7  A    between atoms: C8_17  and  C9_18
REMARK    8  A    between atoms: C9_18  and  O4_19
REMARK    9  A    between atoms: C9_18  and  C10_21
REMARK   10  A    between atoms: C12_25  and  O7_26
REMARK   11  A    between atoms: C17_36  and  N5_37
REMARK   12  A    between atoms: C19_43  and  O11_44
REMARK   13  A    between atoms: C20_46  and  O12_47
ROOT
HETATM    1  C2  UNL     1      33.907  12.861 -25.863  1.00  0.00     0.144 C
HETATM    2  C3  UNL     1      34.375  14.216 -26.102  1.00  0.00     0.009 A
HETATM    3  C4  UNL     1      35.135  14.700 -25.058  1.00  0.00     0.100 A
HETATM    4  C5  UNL     1      35.690  15.980 -25.041  1.00  0.00     0.071 A
HETATM    5  C11 UNL     1      35.449  16.758 -26.130  1.00  0.00     0.070 A
HETATM    6  C12 UNL     1      34.686  16.315 -27.218  1.00  0.00     0.082 A
HETATM    7  C13 UNL     1      34.161  15.040 -27.177  1.00  0.00     0.055 A
HETATM    8  C14 UNL     1      33.425  14.811 -28.409  1.00  0.00     0.189 C
HETATM    9  O8  UNL     1      32.975  15.858 -28.993  1.00  0.00    -0.290 OA
HETATM   10  C15 UNL     1      33.121  13.540 -29.084  1.00  0.00     0.204 C
HETATM   11  N4  UNL     1      33.492  13.503 -30.479  1.00  0.00    -0.344 N
ATOM     12  H4  UNL     1      33.484  14.382 -30.997  1.00  0.00     0.163 HD
HETATM   13  C16 UNL     1      33.864  12.338 -31.170  1.00  0.00     0.256 C
HETATM   14  O9  UNL     1      33.703  12.169 -32.403  1.00  0.00    -0.271 OA
HETATM   15  C17 UNL     1      34.492  11.226 -30.409  1.00  0.00     0.346 C
HETATM   16  C18 UNL     1      33.808  11.158 -29.090  1.00  0.00     0.205 C
HETATM   17  O10 UNL     1      33.335  10.116 -28.730  1.00  0.00    -0.292 OA
HETATM   18  C19 UNL     1      33.758  12.414 -28.302  1.00  0.00     0.175 C
HETATM   19  C20 UNL     1      33.040  12.319 -27.005  1.00  0.00     0.180 C
ENDROOT
BRANCH   4  20
HETATM   20  N2  UNL     1      36.456  16.391 -23.921  1.00  0.00    -0.320 N
HETATM   21  C6  UNL     1      36.309  17.588 -23.191  1.00  0.00     0.261 C
HETATM   22  O3  UNL     1      35.480  18.499 -23.402  1.00  0.00    -0.267 OA
ATOM     23  H2  UNL     1      37.190  15.753 -23.610  1.00  0.00     0.169 HD
BRANCH  21  24
HETATM   24  C7  UNL     1      37.253  17.785 -22.036  1.00  0.00     0.158 C
BRANCH  24  25
HETATM   25  N3  UNL     1      36.790  17.109 -20.889  1.00  0.00    -0.392 N
ATOM     26  H3  UNL     1      35.907  17.331 -20.428  1.00  0.00     0.159 HD
BRANCH  25  27
HETATM   27  C8  UNL     1      37.667  16.090 -20.437  1.00  0.00     0.156 C
BRANCH  27  28
HETATM   28  C9  UNL     1      36.960  14.750 -20.667  1.00  0.00     0.196 C
BRANCH  28  29
HETATM   29  O4  UNL     1      37.286  14.359 -21.966  1.00  0.00    -0.389 OA
ATOM     30  H4  UNL     1      36.970  13.468 -22.060  1.00  0.00     0.210 HD
ENDBRANCH  28  29
BRANCH  28  31
HETATM   31  C10 UNL     1      35.484  14.971 -20.496  1.00  0.00     0.363 A
HETATM   32  O5  UNL     1      34.705  15.169 -21.546  1.00  0.00    -0.200 OA
HETATM   33  O6  UNL     1      34.659  13.970 -20.995  1.00  0.00    -0.200 OA
ENDBRANCH  28  31
ENDBRANCH  27  28
ENDBRANCH  25  27
ENDBRANCH  24  25
ENDBRANCH  21  24
ENDBRANCH   4  20
BRANCH   3  34
HETATM   34  O2  UNL     1      35.323  13.849 -24.016  1.00  0.00    -0.358 OA
ATOM     35  H2  UNL     1      34.534  13.496 -23.622  1.00  0.00     0.217 HD
ENDBRANCH   3  34
BRANCH   6  36
HETATM   36  O7  UNL     1      34.499  17.175 -28.270  1.00  0.00    -0.360 OA
ATOM     37  H7  UNL     1      33.678  17.131 -28.744  1.00  0.00     0.217 HD
ENDBRANCH   6  36
BRANCH   1  38
HETATM   38  C1  UNL     1      33.142  12.633 -24.641  1.00  0.00     0.242 C
HETATM   39  N1  UNL     1      33.507  11.624 -23.721  1.00  0.00    -0.061 NA
HETATM   40  O1  UNL     1      32.138  13.332 -24.378  1.00  0.00    -0.276 OA
ENDBRANCH   1  38
BRANCH  19  41
HETATM   41  O12 UNL     1      32.692  11.013 -26.638  1.00  0.00    -0.391 OA
ATOM     42  H12 UNL     1      32.375  10.595 -27.430  1.00  0.00     0.210 HD
ENDBRANCH  19  41
BRANCH  18  43
HETATM   43  O11 UNL     1      35.094  12.786 -28.080  1.00  0.00    -0.377 OA
ATOM     44  H11 UNL     1      35.590  12.472 -28.828  1.00  0.00     0.211 HD
ENDBRANCH  18  43
BRANCH  15  45
HETATM   45  N5  UNL     1      34.415   9.966 -31.118  1.00  0.00    -0.059 N
ATOM     46  H53 UNL     1      34.151  10.107 -32.093  1.00  0.00     0.275 HD
ATOM     47  H52 UNL     1      35.342   9.563 -31.258  1.00  0.00     0.275 HD
ATOM     48  H51 UNL     1      33.791   9.303 -30.659  1.00  0.00     0.275 HD
ENDBRANCH  15  45
TORSDOF 13
ENDMDL