MODEL 3
REMARK VINA RESULT: -6.667299646      0.832      1.117
REMARK  14 active torsions:
REMARK  status: ('A' for Active; 'I' for Inactive)
REMARK    1  A    between atoms: C2_2  and  N1_3
REMARK    2  A    between atoms: C2_2  and  C3_7
REMARK    3  A    between atoms: C3_7  and  O1_8
REMARK    4  A    between atoms: C3_7  and  C4_10
REMARK    5  A    between atoms: C3_7  and  C5_12
REMARK    6  A    between atoms: C5_12  and  O3_13
REMARK    7  A    between atoms: C5_12  and  N2_15
REMARK    8  A    between atoms: N2_15  and  C6_17
REMARK    9  A    between atoms: C6_17  and  C7_18
REMARK   10  A    between atoms: C6_17  and  C8_21
REMARK   11  A    between atoms: C9_23  and  N4_24
REMARK   12  A    between atoms: C13_33  and  N7_34
REMARK   13  A    between atoms: C15_40  and  O7_41
REMARK   14  A    between atoms: C19_47  and  O9_48
ROOT
HETATM    1  C8  UNL     1      34.903  11.620 -24.329  1.00  0.00     0.164 C
HETATM    2  O5  UNL     1      34.353  12.401 -25.295  1.00  0.00    -0.355 OA
HETATM    3  C9  UNL     1      34.118  11.794 -26.488  1.00  0.00     0.262 C
HETATM    4  C15 UNL     1      34.980  10.636 -26.824  1.00  0.00     0.197 C
HETATM    5  C16 UNL     1      36.024  10.210 -25.914  1.00  0.00     0.163 C
HETATM    6  O8  UNL     1      37.211   9.944 -26.580  1.00  0.00    -0.383 OA
HETATM    7  C17 UNL     1      38.278   9.800 -25.690  1.00  0.00     0.171 C
HETATM    8  C18 UNL     1      37.835   9.278 -24.360  1.00  0.00     0.058 C
HETATM    9  C19 UNL     1      36.998  10.371 -23.646  1.00  0.00     0.129 C
HETATM   10  C20 UNL     1      36.249  11.139 -24.729  1.00  0.00     0.078 C
ENDROOT
BRANCH   1  11
HETATM   11  C6  UNL     1      34.712  12.137 -22.962  1.00  0.00     0.198 C
BRANCH  11  12
HETATM   12  N2  UNL     1      33.599  11.511 -22.340  1.00  0.00    -0.380 N
ATOM     13  H2  UNL     1      32.671  11.690 -22.725  1.00  0.00     0.156 HD
BRANCH  12  14
HETATM   14  C5  UNL     1      33.699  10.670 -21.238  1.00  0.00     0.258 C
BRANCH  14  15
HETATM   15  C3  UNL     1      32.443  10.159 -20.607  1.00  0.00     0.181 C
BRANCH  15  16
HETATM   16  C2  UNL     1      32.766   9.203 -19.450  1.00  0.00     0.225 C
HETATM   17  C1  UNL     1      31.805   8.040 -19.400  1.00  0.00     0.043 C
BRANCH  16  18
HETATM   18  N1  UNL     1      32.608   9.898 -18.184  1.00  0.00    -0.072 N
ATOM     19  H13 UNL     1      33.379   9.742 -17.535  1.00  0.00     0.274 HD
ATOM     20  H12 UNL     1      32.713  10.910 -18.258  1.00  0.00     0.274 HD
ATOM     21  H11 UNL     1      31.701   9.606 -17.821  1.00  0.00     0.274 HD
ENDBRANCH  16  18
ENDBRANCH  15  16
BRANCH  15  22
HETATM   22  O1  UNL     1      31.832   9.314 -21.571  1.00  0.00    -0.376 OA
ATOM     23  H1  UNL     1      31.459   8.615 -21.046  1.00  0.00     0.211 HD
ENDBRANCH  15  22
BRANCH  15  24
HETATM   24  C4  UNL     1      31.476  11.131 -20.152  1.00  0.00     0.275 C
HETATM   25  O2  UNL     1      31.710  12.326 -19.985  1.00  0.00    -0.303 OA
ENDBRANCH  15  24
ENDBRANCH  14  15
BRANCH  14  26
HETATM   26  O3  UNL     1      34.528  11.230 -20.230  1.00  0.00    -0.373 OA
ATOM     27  H3  UNL     1      35.314  10.702 -20.148  1.00  0.00     0.212 HD
ENDBRANCH  14  26
ENDBRANCH  12  14
ENDBRANCH  11  12
BRANCH  11  28
HETATM   28  C7  UNL     1      34.437  13.619 -22.869  1.00  0.00     0.256 C
HETATM   29  N3  UNL     1      35.377  14.619 -23.230  1.00  0.00    -0.060 NA
HETATM   30  O4  UNL     1      33.330  14.058 -22.463  1.00  0.00    -0.274 OA
ENDBRANCH  11  28
ENDBRANCH   1  11
BRANCH   3  31
HETATM   31  N4  UNL     1      34.247  12.774 -27.538  1.00  0.00    -0.297 N
HETATM   32  C10 UNL     1      34.071  12.528 -28.844  1.00  0.00     0.188 A
HETATM   33  N5  UNL     1      34.265  13.649 -29.561  1.00  0.00    -0.345 N
HETATM   34  C11 UNL     1      34.564  14.609 -28.704  1.00  0.00     0.147 A
ATOM     35  H5  UNL     1      34.195  13.741 -30.575  1.00  0.00     0.167 HD
HETATM   36  C12 UNL     1      34.860  15.942 -28.848  1.00  0.00     0.290 A
HETATM   37  C14 UNL     1      34.556  14.075 -27.438  1.00  0.00     0.159 A
HETATM   38  O6  UNL     1      34.887  16.514 -29.994  1.00  0.00    -0.265 OA
HETATM   39  N6  UNL     1      35.131  16.681 -27.755  1.00  0.00    -0.154 N
HETATM   40  C13 UNL     1      35.117  16.132 -26.521  1.00  0.00     0.680 A
ATOM     41  H6  UNL     1      35.350  17.671 -27.861  1.00  0.00     0.187 HD
HETATM   42  N8  UNL     1      34.829  14.828 -26.363  1.00  0.00    -0.174 N
ATOM     43  H8  UNL     1      34.819  14.413 -25.431  1.00  0.00     0.186 HD
BRANCH  40  44
HETATM   44  N7  UNL     1      35.392  16.894 -25.487  1.00  0.00    -0.234 N
ATOM     45  H72 UNL     1      36.080  16.606 -24.791  1.00  0.00     0.174 HD
ATOM     46  H71 UNL     1      34.906  17.786 -25.391  1.00  0.00     0.174 HD
ENDBRANCH  40  44
ENDBRANCH   3  31
BRANCH   9  47
HETATM   47  O9  UNL     1      37.948  11.198 -23.070  1.00  0.00    -0.395 OA
ATOM     48  H9  UNL     1      38.754  10.697 -23.127  1.00  0.00     0.210 HD
ENDBRANCH   9  47
BRANCH   4  49
HETATM   49  O7  UNL     1      35.522  10.764 -28.129  1.00  0.00    -0.389 OA
ATOM     50  H7  UNL     1      34.922  10.426 -28.784  1.00  0.00     0.210 HD
ENDBRANCH   4  49
TORSDOF 14
ENDMDL