MODEL 5
REMARK VINA RESULT: -7.648178292      2.369      3.735
REMARK  14 active torsions:
REMARK  status: ('A' for Active; 'I' for Inactive)
REMARK    1  A    between atoms: O1_2  and  C2_3
REMARK    2  A    between atoms: C2_3  and  C3_5
REMARK    3  A    between atoms: C4_7  and  N1_8
REMARK    4  A    between atoms: C6_12  and  C7_13
REMARK       I    between atoms: C7_13  and  N3_15
REMARK    5  A    between atoms: C10_21  and  O5_22
REMARK    6  A    between atoms: C11_24  and  O6_25
REMARK    7  A    between atoms: C12_27  and  O7_28
REMARK    8  A    between atoms: C12_27  and  C13_30
REMARK    9  A    between atoms: C13_30  and  O8_31
REMARK   10  A    between atoms: C13_30  and  C14_33
REMARK   11  A    between atoms: C14_33  and  N6_34
REMARK   12  A    between atoms: C15_37  and  C16_38
REMARK   13  A    between atoms: C16_38  and  N9_40
REMARK   14  A    between atoms: N9_40  and  N10_42
ROOT
HETATM    1  C3  UNL     1      32.921  12.612 -24.072  1.00  0.00     0.263 C
HETATM    2  O3  UNL     1      33.000  12.380 -22.736  1.00  0.00    -0.345 OA
HETATM    3  C4  UNL     1      32.443  11.209 -22.286  1.00  0.00     0.260 C
HETATM    4  C10 UNL     1      33.273  10.077 -22.874  1.00  0.00     0.199 C
HETATM    5  C11 UNL     1      33.054  10.112 -24.365  1.00  0.00     0.191 C
HETATM    6  C12 UNL     1      33.217  11.473 -24.971  1.00  0.00     0.148 C
ENDROOT
BRANCH   6   7
HETATM    7  O7  UNL     1      34.576  11.578 -25.354  1.00  0.00    -0.381 OA
ATOM      8  H7  UNL     1      34.678  11.103 -26.171  1.00  0.00     0.211 HD
ENDBRANCH   6   7
BRANCH   6   9
HETATM    9  C13 UNL     1      32.389  11.603 -26.232  1.00  0.00     0.178 C
BRANCH   9  10
HETATM   10  O8  UNL     1      31.237  10.857 -26.081  1.00  0.00    -0.391 OA
ATOM     11  H8  UNL     1      30.934  10.589 -26.941  1.00  0.00     0.210 HD
ENDBRANCH   9  10
BRANCH   9  12
HETATM   12  C14 UNL     1      33.172  11.205 -27.465  1.00  0.00     0.186 C
BRANCH  12  13
HETATM   13  N6  UNL     1      33.484  12.395 -28.243  1.00  0.00    -0.263 N
HETATM   14  N7  UNL     1      34.046  13.510 -27.809  1.00  0.00    -0.278 N
HETATM   15  C15 UNL     1      34.170  14.381 -28.826  1.00  0.00     0.165 A
ATOM     16  H7  UNL     1      34.342  13.684 -26.848  1.00  0.00     0.189 HD
HETATM   17  N11 UNL     1      33.672  13.805 -29.931  1.00  0.00    -0.314 N
HETATM   18  C17 UNL     1      33.257  12.590 -29.555  1.00  0.00     0.194 A
ATOM     19  H11 UNL     1      33.621  14.210 -30.865  1.00  0.00     0.170 HD
HETATM   20  S1  UNL     1      32.566  11.518 -30.607  1.00  0.00    -0.039 SA
BRANCH  15  21
HETATM   21  C16 UNL     1      34.739  15.723 -28.771  1.00  0.00     0.176 C
HETATM   22  N8  UNL     1      34.968  16.462 -29.961  1.00  0.00    -0.077 NA
BRANCH  21  23
HETATM   23  N9  UNL     1      35.057  16.295 -27.657  1.00  0.00    -0.291 N
ATOM     24  H9  UNL     1      35.991  16.124 -27.286  1.00  0.00     0.187 HD
BRANCH  23  25
HETATM   25  N10 UNL     1      34.216  17.123 -26.932  1.00  0.00    -0.344 N
ATOM     26 2H10 UNL     1      33.375  17.451 -27.407  1.00  0.00     0.176 HD
ATOM     27 1H10 UNL     1      34.384  17.418 -25.971  1.00  0.00     0.176 HD
ENDBRANCH  23  25
ENDBRANCH  21  23
ENDBRANCH  15  21
ENDBRANCH  12  13
ENDBRANCH   9  12
ENDBRANCH   6   9
BRANCH   1  28
HETATM   28  C2  UNL     1      33.806  13.792 -24.372  1.00  0.00     0.291 C
HETATM   29  O2  UNL     1      33.532  14.634 -25.259  1.00  0.00    -0.262 OA
BRANCH  28  30
HETATM   30  O1  UNL     1      34.996  14.014 -23.667  1.00  0.00    -0.324 OA
HETATM   31  C1  UNL     1      35.868  15.072 -24.042  1.00  0.00     0.213 C
ENDBRANCH  28  30
ENDBRANCH   1  28
BRANCH   5  32
HETATM   32  O6  UNL     1      31.798   9.561 -24.610  1.00  0.00    -0.390 OA
ATOM     33  H6  UNL     1      31.463   9.966 -25.401  1.00  0.00     0.210 HD
ENDBRANCH   5  32
BRANCH   4  34
HETATM   34  O5  UNL     1      34.597  10.364 -22.628  1.00  0.00    -0.388 OA
ATOM     35  H5  UNL     1      35.120   9.727 -23.100  1.00  0.00     0.210 HD
ENDBRANCH   4  34
BRANCH   3  36
HETATM   36  N1  UNL     1      32.543  11.180 -20.850  1.00  0.00    -0.321 N
HETATM   37  C5  UNL     1      33.356  11.908 -20.079  1.00  0.00     0.185 A
HETATM   38  N2  UNL     1      33.135  11.578 -18.784  1.00  0.00    -0.347 N
HETATM   39  C6  UNL     1      32.180  10.637 -18.721  1.00  0.00     0.117 A
ATOM     40  H2  UNL     1      33.619  11.981 -17.981  1.00  0.00     0.167 HD
HETATM   41  C9  UNL     1      31.817  10.400 -20.042  1.00  0.00     0.129 A
BRANCH  39  42
HETATM   42  C7  UNL     1      31.611   9.977 -17.556  1.00  0.00     0.275 C
HETATM   43  O4  UNL     1      30.451   9.499 -17.580  1.00  0.00    -0.266 OA
HETATM   44  N3  UNL     1      32.350   9.855 -16.351  1.00  0.00    -0.298 N
HETATM   45  C8  UNL     1      33.237   8.942 -16.175  1.00  0.00     0.203 C
ATOM     46  H3  UNL     1      32.170  10.516 -15.597  1.00  0.00     0.171 HD
HETATM   47  N4  UNL     1      33.558   7.978 -17.164  1.00  0.00    -0.066 NA
HETATM   48  N5  UNL     1      33.928   8.894 -14.938  1.00  0.00    -0.066 NA
ENDBRANCH  39  42
ENDBRANCH   3  36
TORSDOF 14
ENDMDL