MODEL 5
REMARK VINA RESULT: -7.386911161      3.607      6.449
REMARK  12 active torsions:
REMARK  status: ('A' for Active; 'I' for Inactive)
REMARK    1  A    between atoms: C5_10  and  C6_11
REMARK    2  A    between atoms: C6_11  and  N3_12
REMARK    3  A    between atoms: N4_14  and  C8_15
REMARK    4  A    between atoms: C10_19  and  C11_20
REMARK    5  A    between atoms: C11_20  and  O3_21
REMARK    6  A    between atoms: C11_20  and  C12_23
REMARK    7  A    between atoms: C12_23  and  O4_24
REMARK    8  A    between atoms: C14_27  and  O5_28
REMARK    9  A    between atoms: C14_27  and  C15_30
REMARK   10  A    between atoms: C16_33  and  O8_34
REMARK   11  A    between atoms: C17_36  and  O9_37
REMARK   12  A    between atoms: C17_36  and  O10_39
ROOT
HETATM    1  C8  UNL     1       3.811   6.635  23.443  1.00  0.00     0.311 C
HETATM    2  O1  UNL     1       4.308   7.429  24.466  1.00  0.00    -0.326 OA
HETATM    3  C9  UNL     1       5.649   7.202  24.586  1.00  0.00     0.307 C
HETATM    4  O2  UNL     1       6.316   8.442  24.557  1.00  0.00    -0.350 OA
HETATM    5  C10 UNL     1       7.619   8.191  24.921  1.00  0.00     0.159 C
HETATM    6  C13 UNL     1       8.329   7.293  23.959  1.00  0.00     0.087 C
HETATM    7  C14 UNL     1       7.426   6.848  22.827  1.00  0.00     0.189 C
HETATM    8  C16 UNL     1       6.109   6.433  23.367  1.00  0.00     0.209 C
HETATM    9  C17 UNL     1       4.948   6.753  22.415  1.00  0.00     0.247 C
ENDROOT
BRANCH   1  10
HETATM   10  N4  UNL     1       2.581   7.119  22.913  1.00  0.00    -0.237 N
HETATM   11  C7  UNL     1       1.540   7.567  23.613  1.00  0.00     0.219 A
HETATM   12  N3  UNL     1       0.543   7.945  22.758  1.00  0.00    -0.265 N
HETATM   13  N6  UNL     1       1.035   7.705  21.556  1.00  0.00    -0.005 NA
HETATM   14  N5  UNL     1       2.258   7.208  21.636  1.00  0.00    -0.003 NA
BRANCH  12  15
HETATM   15  C6  UNL     1      -0.755   8.486  23.069  1.00  0.00     0.223 C
BRANCH  15  16
HETATM   16  C5  UNL     1      -0.623   9.482  24.162  1.00  0.00     0.102 A
HETATM   17  N2  UNL     1      -0.212  10.728  23.945  1.00  0.00    -0.331 N
HETATM   18  C4  UNL     1      -0.077  11.667  24.903  1.00  0.00     0.101 A
ATOM     19  H2  UNL     1       0.016  10.992  22.987  1.00  0.00     0.168 HD
HETATM   20  C3  UNL     1      -0.385  11.306  26.202  1.00  0.00     0.072 A
HETATM   21  N1  UNL     1       0.329  12.861  24.615  1.00  0.00    -0.385 N
HETATM   22  C2  UNL     1      -0.809  10.018  26.427  1.00  0.00     0.010 A
HETATM   23  C1  UNL     1      -1.153   9.580  27.803  1.00  0.00     0.068 C
HETATM   24  N7  UNL     1      -0.926   9.127  25.441  1.00  0.00    -0.348 N
ATOM     25  H7  UNL     1      -1.243   8.180  25.646  1.00  0.00     0.167 HD
ATOM     26  H12 UNL     1       0.431  13.571  25.340  1.00  0.00     0.157 HD
ATOM     27  H11 UNL     1       0.556  13.127  23.657  1.00  0.00     0.157 HD
ENDBRANCH  15  16
ENDBRANCH  12  15
ENDBRANCH   1  10
BRANCH   9  28
HETATM   28  O9  UNL     1       4.839   5.827  21.413  1.00  0.00    -0.359 OA
ATOM     29  H9  UNL     1       4.312   5.079  21.669  1.00  0.00     0.213 HD
ENDBRANCH   9  28
BRANCH   9  30
HETATM   30  O10 UNL     1       5.002   8.058  22.010  1.00  0.00    -0.359 OA
ATOM     31  H10 UNL     1       5.918   8.298  21.940  1.00  0.00     0.213 HD
ENDBRANCH   9  30
BRANCH   8  32
HETATM   32  O8  UNL     1       6.059   5.080  23.706  1.00  0.00    -0.377 OA
ATOM     33  H8  UNL     1       6.010   5.038  24.654  1.00  0.00     0.211 HD
ENDBRANCH   8  32
BRANCH   7  34
HETATM   34  O5  UNL     1       7.355   7.792  21.804  1.00  0.00    -0.376 OA
ATOM     35  H5  UNL     1       8.211   8.012  21.456  1.00  0.00     0.211 HD
ENDBRANCH   7  34
BRANCH   7  36
HETATM   36  C15 UNL     1       8.081   5.619  22.247  1.00  0.00     0.212 C
HETATM   37  O6  UNL     1       8.978   4.993  22.856  1.00  0.00    -0.646 OA
HETATM   38  O7  UNL     1       7.679   5.167  20.998  1.00  0.00    -0.646 OA
ENDBRANCH   7  36
BRANCH   5  39
HETATM   39  C11 UNL     1       8.426   9.434  25.144  1.00  0.00     0.170 C
BRANCH  39  40
HETATM   40  O3  UNL     1       9.089   9.372  26.388  1.00  0.00    -0.391 OA
ATOM     41  H3  UNL     1       9.978   9.700  26.306  1.00  0.00     0.210 HD
ENDBRANCH  39  40
BRANCH  39  42
HETATM   42  C12 UNL     1       7.576  10.680  25.174  1.00  0.00     0.198 C
BRANCH  42  43
HETATM   43  O4  UNL     1       7.415  11.158  23.875  1.00  0.00    -0.398 OA
ATOM     44  H4  UNL     1       7.051  12.035  23.906  1.00  0.00     0.209 HD
ENDBRANCH  42  43
ENDBRANCH  39  42
ENDBRANCH   5  39
TORSDOF 12
ENDMDL