MODEL 4
REMARK VINA RESULT: -7.586226247      0.852      1.182
REMARK  12 active torsions:
REMARK  status: ('A' for Active; 'I' for Inactive)
REMARK    1  A    between atoms: N2_9  and  C7_10
REMARK    2  A    between atoms: C7_10  and  O2_11
REMARK    3  A    between atoms: O2_11  and  C8_12
REMARK    4  A    between atoms: C8_12  and  C9_14
REMARK    5  A    between atoms: C9_14  and  O4_15
REMARK    6  A    between atoms: C9_14  and  C10_17
REMARK    7  A    between atoms: C10_17  and  O5_18
REMARK    8  A    between atoms: N3_20  and  C11_21
REMARK    9  A    between atoms: N5_25  and  N6_27
REMARK   10  A    between atoms: C14_32  and  N9_33
REMARK   11  A    between atoms: C15_37  and  O6_38
REMARK   12  A    between atoms: C16_40  and  O7_41
ROOT
HETATM    1  C1  UNL     1       9.888   5.427  25.789  1.00  0.00     0.161 C
HETATM    2  N1  UNL     1       8.887   6.417  25.470  1.00  0.00    -0.300 N
HETATM    3  C2  UNL     1       9.136   7.710  25.674  1.00  0.00     0.276 A
HETATM    4  O1  UNL     1      10.254   8.043  26.148  1.00  0.00    -0.265 OA
HETATM    5  C3  UNL     1       8.206   8.706  25.385  1.00  0.00     0.108 A
HETATM    6  C4  UNL     1       6.984   8.319  24.866  1.00  0.00     0.032 A
HETATM    7  C5  UNL     1       6.715   6.976  24.650  1.00  0.00     0.110 A
HETATM    8  C6  UNL     1       7.669   6.073  24.956  1.00  0.00     0.159 A
HETATM    9  N2  UNL     1       6.839   5.115  24.547  1.00  0.00    -0.245 N
HETATM   10  N3  UNL     1       5.923   5.980  24.253  1.00  0.00    -0.256 N
HETATM   11  C17 UNL     1       5.964   9.342  24.543  1.00  0.00     0.277 C
HETATM   12  N10 UNL     1       6.694  10.547  24.151  1.00  0.00    -0.056 N
ATOM     13 1H10 UNL     1       6.069  11.265  23.783  1.00  0.00     0.279 HD
ATOM     14 2H10 UNL     1       7.258  10.392  23.315  1.00  0.00     0.279 HD
HETATM   15  C18 UNL     1       7.501  11.051  25.264  1.00  0.00     0.355 C
HETATM   16  N11 UNL     1       8.502  10.067  25.613  1.00  0.00    -0.362 N
ATOM     17  H11 UNL     1       9.396  10.348  26.014  1.00  0.00     0.161 HD
ENDROOT
BRANCH  10  18
HETATM   18  C11 UNL     1       4.579   5.969  23.715  1.00  0.00     0.239 C
HETATM   19  N4  UNL     1       3.995   4.637  23.719  1.00  0.00    -0.352 N
HETATM   20  C12 UNL     1       2.825   4.509  22.876  1.00  0.00     0.127 C
ATOM     21  H4  UNL     1       4.374   3.865  24.265  1.00  0.00     0.163 HD
HETATM   22  N5  UNL     1       2.432   3.356  22.464  1.00  0.00    -0.285 N
HETATM   23  C14 UNL     1       2.165   5.799  22.557  1.00  0.00     0.282 C
ATOM     24  H5  UNL     1       2.970   2.538  22.750  1.00  0.00     0.188 HD
HETATM   25  C15 UNL     1       3.125   6.803  21.944  1.00  0.00     0.188 C
HETATM   26  C16 UNL     1       4.547   6.420  22.270  1.00  0.00     0.193 C
BRANCH  22  27
HETATM   27  N6  UNL     1       1.338   3.157  21.666  1.00  0.00    -0.275 N
HETATM   28  C13 UNL     1       1.352   2.678  20.475  1.00  0.00     0.215 C
HETATM   29  N7  UNL     1       2.524   2.272  19.787  1.00  0.00    -0.065 NA
HETATM   30  N8  UNL     1       0.106   2.544  19.801  1.00  0.00    -0.065 NA
ATOM     31  H6  UNL     1       0.429   3.412  22.053  1.00  0.00     0.189 HD
ENDBRANCH  22  27
BRANCH  23  32
HETATM   32  N9  UNL     1       0.949   5.681  21.818  1.00  0.00    -0.066 N
ATOM     33  H93 UNL     1       1.107   5.158  20.956  1.00  0.00     0.275 HD
ATOM     34  H92 UNL     1       0.306   5.047  22.293  1.00  0.00     0.275 HD
ATOM     35  H91 UNL     1       0.487   6.567  21.613  1.00  0.00     0.275 HD
ENDBRANCH  23  32
BRANCH  25  36
HETATM   36  O6  UNL     1       2.921   6.905  20.564  1.00  0.00    -0.390 OA
ATOM     37  H6  UNL     1       3.255   6.136  20.117  1.00  0.00     0.210 HD
ENDBRANCH  25  36
BRANCH  26  38
HETATM   38  O7  UNL     1       5.462   7.390  21.982  1.00  0.00    -0.389 OA
ATOM     39  H7  UNL     1       5.254   8.234  22.365  1.00  0.00     0.210 HD
ENDBRANCH  26  38
ENDBRANCH  10  18
BRANCH   9  40
HETATM   40  C7  UNL     1       6.967   3.666  24.479  1.00  0.00     0.329 C
BRANCH  40  41
HETATM   41  O2  UNL     1       7.265   3.300  23.134  1.00  0.00    -0.298 OA
BRANCH  41  42
HETATM   42  C8  UNL     1       6.330   2.758  22.286  1.00  0.00     0.291 C
HETATM   43  O3  UNL     1       5.431   2.033  22.804  1.00  0.00    -0.262 OA
BRANCH  42  44
HETATM   44  C9  UNL     1       6.283   2.948  20.829  1.00  0.00     0.241 C
BRANCH  44  45
HETATM   45  O4  UNL     1       5.088   3.450  20.374  1.00  0.00    -0.383 OA
ATOM     46  H4  UNL     1       5.096   4.390  20.232  1.00  0.00     0.210 HD
ENDBRANCH  44  45
BRANCH  44  47
HETATM   47  C10 UNL     1       7.454   3.860  20.441  1.00  0.00     0.206 C
BRANCH  47  48
HETATM   48  O5  UNL     1       8.646   3.179  20.685  1.00  0.00    -0.398 OA
ATOM     49  H5  UNL     1       9.038   2.948  19.851  1.00  0.00     0.209 HD
ENDBRANCH  47  48
ENDBRANCH  44  47
ENDBRANCH  42  44
ENDBRANCH  41  42
ENDBRANCH  40  41
ENDBRANCH   9  40
TORSDOF 12
ENDMDL