MODEL 1
REMARK VINA RESULT: -8.225901514      0.000      0.000
REMARK  12 active torsions:
REMARK  status: ('A' for Active; 'I' for Inactive)
REMARK    1  A    between atoms: N1_1  and  C1_4
REMARK    2  A    between atoms: N3_9  and  C3_10
REMARK    3  A    between atoms: C4_12  and  O3_13
REMARK    4  A    between atoms: O3_13  and  N4_14
REMARK    5  A    between atoms: C5_16  and  O4_17
REMARK    6  A    between atoms: C5_16  and  N5_19
REMARK    7  A    between atoms: C6_20  and  C7_21
REMARK    8  A    between atoms: C7_21  and  N6_22
REMARK    9  A    between atoms: N6_22  and  N7_24
REMARK   10  A    between atoms: N7_24  and  C8_26
REMARK   11  A    between atoms: C12_40  and  O7_41
REMARK   12  A    between atoms: C13_43  and  O8_44
ROOT
HETATM    1  N4  UNL     1       3.874   3.761  22.558  1.00  0.00    -0.227 N
ATOM      2  H4  UNL     1       3.977   3.803  23.572  1.00  0.00     0.198 HD
HETATM    3  C5  UNL     1       3.635   2.619  22.009  1.00  0.00     0.253 C
ENDROOT
BRANCH   1   4
HETATM    4  O3  UNL     1       3.998   4.920  21.839  1.00  0.00    -0.242 OA
BRANCH   4   5
HETATM    5  C4  UNL     1       4.334   6.102  22.500  1.00  0.00     0.322 C
HETATM    6  O2  UNL     1       5.617   6.532  22.264  1.00  0.00    -0.328 OA
HETATM    7  C3  UNL     1       5.678   7.887  22.411  1.00  0.00     0.272 C
HETATM    8  C13 UNL     1       4.295   8.429  22.585  1.00  0.00     0.201 C
HETATM    9  C12 UNL     1       3.442   7.276  22.077  1.00  0.00     0.208 C
BRANCH   7  10
HETATM   10  N3  UNL     1       6.581   8.269  23.457  1.00  0.00    -0.220 N
HETATM   11  C2  UNL     1       6.585   7.665  24.661  1.00  0.00     0.347 A
HETATM   12  N2  UNL     1       7.463   8.078  25.593  1.00  0.00    -0.141 N
HETATM   13  O1  UNL     1       5.784   6.725  24.921  1.00  0.00    -0.246 OA
HETATM   14  C1  UNL     1       8.347   9.074  25.388  1.00  0.00     0.683 A
ATOM     15  H2  UNL     1       7.459   7.613  26.501  1.00  0.00     0.189 HD
HETATM   16  N12 UNL     1       8.335   9.672  24.181  1.00  0.00    -0.141 N
HETATM   17  C14 UNL     1       7.454   9.266  23.227  1.00  0.00     0.347 A
ATOM     18  H12 UNL     1       8.987  10.430  23.983  1.00  0.00     0.189 HD
HETATM   19  O9  UNL     1       7.497   9.870  22.118  1.00  0.00    -0.246 OA
BRANCH  14  20
HETATM   20  N1  UNL     1       9.189   9.462  26.298  1.00  0.00    -0.234 N
ATOM     21  H12 UNL     1       9.697   8.772  26.852  1.00  0.00     0.174 HD
ATOM     22  H11 UNL     1       9.372  10.445  26.493  1.00  0.00     0.174 HD
ENDBRANCH  14  20
ENDBRANCH   7  10
BRANCH   8  23
HETATM   23  O8  UNL     1       3.959   8.571  23.951  1.00  0.00    -0.388 OA
ATOM     24  H8  UNL     1       3.173   9.093  24.066  1.00  0.00     0.210 HD
ENDBRANCH   8  23
BRANCH   9  25
HETATM   25  O7  UNL     1       3.419   7.372  20.692  1.00  0.00    -0.388 OA
ATOM     26  H7  UNL     1       4.272   7.642  20.376  1.00  0.00     0.210 HD
ENDBRANCH   9  25
ENDBRANCH   4   5
ENDBRANCH   1   4
BRANCH   3  27
HETATM   27  O4  UNL     1       3.502   2.585  20.632  1.00  0.00    -0.331 OA
ATOM     28  H4  UNL     1       2.909   1.940  20.263  1.00  0.00     0.221 HD
ENDBRANCH   3  27
BRANCH   3  29
HETATM   29  N5  UNL     1       3.512   1.435  22.776  1.00  0.00    -0.225 N
HETATM   30  C6  UNL     1       4.543   0.633  23.184  1.00  0.00     0.080 A
HETATM   31  C10 UNL     1       3.961  -0.393  23.896  1.00  0.00     0.124 A
HETATM   32  N11 UNL     1       2.608  -0.217  23.918  1.00  0.00    -0.316 N
HETATM   33  C11 UNL     1       2.379   0.887  23.238  1.00  0.00     0.334 A
ATOM     34  H11 UNL     1       1.917  -0.816  24.369  1.00  0.00     0.170 HD
HETATM   35  O6  UNL     1       1.230   1.373  23.043  1.00  0.00    -0.246 OA
BRANCH  30  36
HETATM   36  C7  UNL     1       5.934   0.912  22.867  1.00  0.00     0.139 C
BRANCH  36  37
HETATM   37  N6  UNL     1       6.545   0.601  21.796  1.00  0.00    -0.295 N
ATOM     38  H6  UNL     1       7.034  -0.294  21.766  1.00  0.00     0.186 HD
BRANCH  37  39
HETATM   39  N7  UNL     1       6.588   1.389  20.685  1.00  0.00    -0.131 N
ATOM     40  H7  UNL     1       6.297   1.001  19.788  1.00  0.00     0.205 HD
BRANCH  39  41
HETATM   41  C8  UNL     1       6.985   2.599  20.740  1.00  0.00     0.715 A
HETATM   42  N8  UNL     1       6.350   3.645  20.190  1.00  0.00    -0.127 N
HETATM   43  N9  UNL     1       7.058   4.728  20.455  1.00  0.00    -0.237 N
ATOM     44  H8  UNL     1       5.478   3.610  19.662  1.00  0.00     0.206 HD
HETATM   45  C9  UNL     1       8.159   4.410  21.178  1.00  0.00     0.353 A
ATOM     46  H9  UNL     1       6.811   5.672  20.157  1.00  0.00     0.192 HD
HETATM   47  O5  UNL     1       9.045   5.195  21.598  1.00  0.00    -0.245 OA
HETATM   48  N10 UNL     1       8.082   3.075  21.337  1.00  0.00    -0.137 N
ATOM     49  H10 UNL     1       8.763   2.509  21.842  1.00  0.00     0.189 HD
ENDBRANCH  39  41
ENDBRANCH  37  39
ENDBRANCH  36  37
ENDBRANCH  30  36
ENDBRANCH   3  29
TORSDOF 12
ENDMDL