MODEL 3
REMARK VINA RESULT: -7.415210710      2.702      7.731
REMARK  11 active torsions:
REMARK  status: ('A' for Active; 'I' for Inactive)
REMARK    1  A    between atoms: N5_15  and  C6_16
REMARK    2  A    between atoms: C8_19  and  O2_20
REMARK    3  A    between atoms: C9_22  and  N6_23
REMARK    4  A    between atoms: N6_23  and  C10_25
REMARK    5  A    between atoms: C10_25  and  O3_26
REMARK    6  A    between atoms: C10_25  and  C11_28
REMARK    7  A    between atoms: C11_28  and  C12_29
REMARK    8  A    between atoms: C11_28  and  N7_34
REMARK    9  A    between atoms: C12_29  and  O4_30
REMARK   10  A    between atoms: C12_29  and  O5_32
REMARK   11  A    between atoms: C17_46  and  O9_47
ROOT
HETATM    1  C6  UNL     1       5.944   1.874  22.220  1.00  0.00     0.145 C
HETATM    2  C7  UNL     1       6.985   2.247  23.217  1.00  0.00     0.199 C
HETATM    3  O1  UNL     1       7.704   3.319  22.793  1.00  0.00    -0.351 OA
HETATM    4  C8  UNL     1       7.838   3.551  21.468  1.00  0.00     0.191 A
HETATM    5  C9  UNL     1       7.274   4.922  21.031  1.00  0.00     0.154 A
HETATM    6  C16 UNL     1       6.505   3.705  20.726  1.00  0.00     0.108 A
HETATM    7  C17 UNL     1       5.441   3.158  21.590  1.00  0.00     0.155 C
ENDROOT
BRANCH   5   8
HETATM    8  N6  UNL     1       6.944   5.831  22.041  1.00  0.00    -0.382 N
ATOM      9  H6  UNL     1       6.964   5.485  23.001  1.00  0.00     0.156 HD
BRANCH   8  10
HETATM   10  C10 UNL     1       6.591   7.161  21.856  1.00  0.00     0.267 C
BRANCH  10  11
HETATM   11  O3  UNL     1       5.647   7.187  20.786  1.00  0.00    -0.372 OA
ATOM     12  H3  UNL     1       6.074   7.623  20.058  1.00  0.00     0.212 HD
ENDBRANCH  10  11
BRANCH  10  13
HETATM   13  C11 UNL     1       6.120   8.021  22.966  1.00  0.00     0.105 C
BRANCH  13  14
HETATM   14  C12 UNL     1       4.705   7.897  23.412  1.00  0.00     0.306 C
BRANCH  14  15
HETATM   15  O4  UNL     1       3.791   8.687  22.705  1.00  0.00    -0.366 OA
ATOM     16  H4  UNL     1       2.881   8.429  22.798  1.00  0.00     0.213 HD
ENDBRANCH  14  15
BRANCH  14  17
HETATM   17  O5  UNL     1       4.289   6.529  23.301  1.00  0.00    -0.366 OA
ATOM     18  H5  UNL     1       3.831   6.273  24.094  1.00  0.00     0.213 HD
ENDBRANCH  14  17
ENDBRANCH  13  14
BRANCH  13  19
HETATM   19  N7  UNL     1       7.111   8.226  23.999  1.00  0.00    -0.213 N
HETATM   20  C13 UNL     1       7.849   9.347  23.997  1.00  0.00     0.339 A
HETATM   21  O6  UNL     1       7.734  10.230  23.103  1.00  0.00    -0.246 OA
HETATM   22  N8  UNL     1       8.748   9.533  24.995  1.00  0.00    -0.260 N
HETATM   23  C14 UNL     1       8.920   8.628  25.983  1.00  0.00     0.332 A
ATOM     24  H8  UNL     1       9.313  10.383  25.000  1.00  0.00     0.175 HD
HETATM   25  O7  UNL     1       9.739   8.781  26.908  1.00  0.00    -0.246 OA
HETATM   26  N9  UNL     1       8.182   7.509  25.982  1.00  0.00    -0.260 N
HETATM   27  C15 UNL     1       7.299   7.319  25.010  1.00  0.00     0.339 A
ATOM     28  H9  UNL     1       8.297   6.813  26.718  1.00  0.00     0.175 HD
HETATM   29  O8  UNL     1       6.605   6.246  25.025  1.00  0.00    -0.246 OA
ENDBRANCH  13  19
ENDBRANCH  10  13
ENDBRANCH   8  10
ENDBRANCH   5   8
BRANCH   4  30
HETATM   30  O2  UNL     1       8.895   3.016  20.739  1.00  0.00    -0.363 OA
ATOM     31  H2  UNL     1       9.627   3.551  20.458  1.00  0.00     0.213 HD
ENDBRANCH   4  30
BRANCH   7  32
HETATM   32  O9  UNL     1       5.066   3.998  22.634  1.00  0.00    -0.393 OA
ATOM     33  H9  UNL     1       5.771   4.624  22.750  1.00  0.00     0.210 HD
ENDBRANCH   7  32
BRANCH   1  34
HETATM   34  N5  UNL     1       4.847   1.107  22.785  1.00  0.00    -0.318 N
HETATM   35  C3  UNL     1       5.014  -0.125  23.304  1.00  0.00     0.141 A
HETATM   36  N3  UNL     1       6.084  -0.955  23.467  1.00  0.00    -0.336 N
HETATM   37  C4  UNL     1       3.805  -0.610  23.764  1.00  0.00     0.122 A
HETATM   38  C2  UNL     1       6.008  -2.166  24.026  1.00  0.00     0.183 A
ATOM     39  H3  UNL     1       6.996  -0.632  23.143  1.00  0.00     0.168 HD
HETATM   40  N2  UNL     1       4.799  -2.602  24.463  1.00  0.00    -0.337 N
HETATM   41  C1  UNL     1       3.697  -1.853  24.346  1.00  0.00     0.131 A
ATOM     42  H2  UNL     1       4.729  -3.525  24.891  1.00  0.00     0.168 HD
HETATM   43  N1  UNL     1       2.576  -2.312  24.775  1.00  0.00    -0.383 N
ATOM     44  H12 UNL     1       2.496  -3.233  25.206  1.00  0.00     0.157 HD
ATOM     45  H11 UNL     1       1.736  -1.740  24.686  1.00  0.00     0.157 HD
HETATM   46  N4  UNL     1       2.923   0.368  23.501  1.00  0.00    -0.346 N
HETATM   47  C5  UNL     1       3.544   1.406  22.912  1.00  0.00     0.185 A
ATOM     48  H4  UNL     1       1.927   0.330  23.717  1.00  0.00     0.167 HD
ENDBRANCH   1  34
TORSDOF 11
ENDMDL