MODEL 5
REMARK VINA RESULT: -6.583079375      1.016      1.659
REMARK  13 active torsions:
REMARK  status: ('A' for Active; 'I' for Inactive)
REMARK    1  A    between atoms: N1_1  and  C1_4
REMARK    2  A    between atoms: N4_13  and  C5_14
REMARK    3  A    between atoms: C6_15  and  O2_16
REMARK    4  A    between atoms: C8_19  and  O3_20
REMARK    5  A    between atoms: C8_19  and  C9_22
REMARK    6  A    between atoms: C9_22  and  O4_23
REMARK    7  A    between atoms: C9_22  and  C10_25
REMARK    8  A    between atoms: C10_25  and  O5_26
REMARK    9  A    between atoms: O5_26  and  N5_27
REMARK   10  A    between atoms: C12_30  and  C13_31
REMARK   11  A    between atoms: C14_34  and  O9_35
REMARK   12  A    between atoms: C15_37  and  O10_38
REMARK   13  A    between atoms: C16_40  and  O11_41
ROOT
HETATM    1  C5  UNL     1       6.053   8.660  23.178  1.00  0.00     0.152 C
HETATM    2  C6  UNL     1       6.213   8.452  21.662  1.00  0.00     0.147 C
HETATM    3  C7  UNL     1       7.447   7.656  21.499  1.00  0.00     0.077 C
HETATM    4  C8  UNL     1       7.145   6.266  21.985  1.00  0.00     0.116 C
HETATM    5  C15 UNL     1       6.530   6.184  23.355  1.00  0.00     0.186 C
HETATM    6  C16 UNL     1       6.148   7.444  23.999  1.00  0.00     0.175 C
ENDROOT
BRANCH   4   7
HETATM    7  O3  UNL     1       6.143   5.707  21.136  1.00  0.00    -0.384 OA
ATOM      8  H3  UNL     1       6.516   5.602  20.269  1.00  0.00     0.210 HD
ENDBRANCH   4   7
BRANCH   4   9
HETATM    9  C9  UNL     1       8.338   5.481  21.755  1.00  0.00     0.180 C
BRANCH   9  10
HETATM   10  O4  UNL     1       8.840   4.901  23.007  1.00  0.00    -0.390 OA
ATOM     11  H4  UNL     1       8.131   4.741  23.619  1.00  0.00     0.210 HD
ENDBRANCH   9  10
BRANCH   9  12
HETATM   12  C10 UNL     1       8.165   4.125  21.000  1.00  0.00     0.229 C
BRANCH  12  13
HETATM   13  O5  UNL     1       8.479   3.250  22.046  1.00  0.00    -0.296 OA
BRANCH  13  14
HETATM   14  N5  UNL     1       7.866   2.179  22.224  1.00  0.00    -0.141 NA
HETATM   15  C11 UNL     1       6.841   2.238  21.089  1.00  0.00     0.292 C
HETATM   16  O6  UNL     1       6.297   1.019  21.257  1.00  0.00    -0.355 OA
HETATM   17  C12 UNL     1       6.029   0.893  22.649  1.00  0.00     0.268 C
HETATM   18  C14 UNL     1       7.098   1.798  23.292  1.00  0.00     0.260 C
BRANCH  17  19
HETATM   19  C13 UNL     1       6.204  -0.538  22.993  1.00  0.00     0.207 C
HETATM   20  O7  UNL     1       5.250  -1.259  23.254  1.00  0.00    -0.646 OA
HETATM   21  O8  UNL     1       7.521  -1.059  23.025  1.00  0.00    -0.646 OA
ENDBRANCH  17  19
BRANCH  18  22
HETATM   22  O9  UNL     1       6.448   2.881  23.891  1.00  0.00    -0.376 OA
ATOM     23  H9  UNL     1       5.545   2.960  23.611  1.00  0.00     0.211 HD
ENDBRANCH  18  22
ENDBRANCH  13  14
ENDBRANCH  12  13
ENDBRANCH   9  12
ENDBRANCH   4   9
BRANCH   5  24
HETATM   24  O10 UNL     1       5.363   5.368  23.286  1.00  0.00    -0.390 OA
ATOM     25  H10 UNL     1       4.597   5.930  23.266  1.00  0.00     0.210 HD
ENDBRANCH   5  24
BRANCH   2  26
HETATM   26  O2  UNL     1       5.075   7.813  21.182  1.00  0.00    -0.393 OA
ATOM     27  H2  UNL     1       4.683   8.360  20.511  1.00  0.00     0.210 HD
ENDBRANCH   2  26
BRANCH   6  28
HETATM   28  O11 UNL     1       7.005   7.701  25.107  1.00  0.00    -0.391 OA
ATOM     29  H11 UNL     1       7.226   6.876  25.523  1.00  0.00     0.210 HD
ENDBRANCH   6  28
BRANCH   1  30
HETATM   30  N4  UNL     1       4.792   9.389  23.260  1.00  0.00    -0.317 N
HETATM   31  C4  UNL     1       4.640  10.712  23.301  1.00  0.00     0.185 A
HETATM   32  N3  UNL     1       3.306  10.993  23.424  1.00  0.00    -0.345 N
HETATM   33  C3  UNL     1       2.636   9.838  23.457  1.00  0.00     0.147 A
ATOM     34  H3  UNL     1       2.894  11.925  23.481  1.00  0.00     0.167 HD
HETATM   35  C2  UNL     1       1.322   9.452  23.542  1.00  0.00     0.290 A
HETATM   36  C17 UNL     1       3.588   8.832  23.357  1.00  0.00     0.157 A
HETATM   37  N2  UNL     1       1.016   8.156  23.522  1.00  0.00    -0.154 N
HETATM   38  O1  UNL     1       0.450  10.344  23.646  1.00  0.00    -0.265 OA
HETATM   39  C1  UNL     1       1.937   7.171  23.427  1.00  0.00     0.680 A
ATOM     40  H2  UNL     1       0.032   7.892  23.583  1.00  0.00     0.187 HD
HETATM   41  N6  UNL     1       3.218   7.570  23.352  1.00  0.00    -0.174 N
ATOM     42  H6  UNL     1       3.942   6.856  23.287  1.00  0.00     0.186 HD
BRANCH  39  43
HETATM   43  N1  UNL     1       1.652   5.955  23.335  1.00  0.00    -0.234 N
ATOM     44  H12 UNL     1       1.499   5.532  22.419  1.00  0.00     0.174 HD
ATOM     45  H11 UNL     1       1.499   5.344  24.138  1.00  0.00     0.174 HD
ENDBRANCH  39  43
ENDBRANCH   1  30
TORSDOF 13
ENDMDL