MODEL 1
REMARK VINA RESULT: -7.383622501      0.000      0.000
REMARK  13 active torsions:
REMARK  status: ('A' for Active; 'I' for Inactive)
REMARK    1  A    between atoms: N1_1  and  N2_4
REMARK    2  A    between atoms: N6_17  and  C6_18
REMARK    3  A    between atoms: C8_24  and  C9_25
REMARK    4  A    between atoms: C9_25  and  N9_26
REMARK    5  A    between atoms: C9_25  and  N10_30
REMARK    6  A    between atoms: C11_35  and  C12_36
REMARK    7  A    between atoms: C14_40  and  O3_41
REMARK    8  A    between atoms: O3_41  and  C15_42
REMARK       I    between atoms: C15_42  and  N11_44
REMARK    9  A    between atoms: N11_44  and  N12_46
REMARK   10  A    between atoms: C16_49  and  C17_50
REMARK   11  A    between atoms: C17_50  and  O5_51
REMARK   12  A    between atoms: C17_50  and  C18_53
REMARK   13  A    between atoms: C18_53  and  O6_54
ROOT
HETATM    1  C6  UNL     1       4.851   5.237  22.883  1.00  0.00     0.059 C
HETATM    2  C7  UNL     1       3.642   5.542  22.434  1.00  0.00     0.085 A
HETATM    3  N7  UNL     1       2.963   6.661  22.697  1.00  0.00    -0.298 N
ATOM      4  H7  UNL     1       3.265   7.412  23.318  1.00  0.00     0.187 HD
HETATM    5  N8  UNL     1       1.860   6.629  22.030  1.00  0.00    -0.300 N
ATOM      6  H8  UNL     1       1.156   7.367  22.050  1.00  0.00     0.186 HD
HETATM    7  C8  UNL     1       1.750   5.464  21.282  1.00  0.00     0.096 A
HETATM    8  C10 UNL     1       2.900   4.780  21.553  1.00  0.00     0.040 A
HETATM    9  C11 UNL     1       3.325   3.544  21.285  1.00  0.00     0.064 C
HETATM   10  C13 UNL     1       4.460   3.032  22.121  1.00  0.00    -0.005 C
HETATM   11  C14 UNL     1       4.462   1.811  22.595  1.00  0.00     0.156 C
HETATM   12  C16 UNL     1       5.548   3.995  22.449  1.00  0.00     0.105 C
ENDROOT
BRANCH   1  13
HETATM   13  N6  UNL     1       5.540   6.134  23.734  1.00  0.00    -0.292 N
HETATM   14  C3  UNL     1       6.040   7.344  23.404  1.00  0.00     0.145 A
HETATM   15  N4  UNL     1       6.036   8.016  22.244  1.00  0.00    -0.336 N
HETATM   16  C4  UNL     1       6.637   7.913  24.492  1.00  0.00     0.124 A
HETATM   17  C2  UNL     1       6.613   9.234  22.167  1.00  0.00     0.183 A
ATOM     18  H4  UNL     1       5.595   7.608  21.419  1.00  0.00     0.168 HD
HETATM   19  N3  UNL     1       7.208   9.806  23.242  1.00  0.00    -0.336 N
HETATM   20  C1  UNL     1       7.228   9.158  24.414  1.00  0.00     0.151 A
ATOM     21  H3  UNL     1       7.638  10.727  23.160  1.00  0.00     0.168 HD
HETATM   22  N2  UNL     1       7.773   9.657  25.450  1.00  0.00    -0.290 N
ATOM     23  H2  UNL     1       7.760   9.118  26.317  1.00  0.00     0.188 HD
HETATM   24  N5  UNL     1       6.497   7.037  25.497  1.00  0.00    -0.346 N
HETATM   25  C5  UNL     1       5.831   5.963  25.025  1.00  0.00     0.191 A
ATOM     26  H5  UNL     1       6.835   7.161  26.451  1.00  0.00     0.167 HD
BRANCH  22  27
HETATM   27  N1  UNL     1       8.384  10.899  25.450  1.00  0.00    -0.344 N
ATOM     28  H12 UNL     1       9.401  10.925  25.508  1.00  0.00     0.176 HD
ATOM     29  H11 UNL     1       7.859  11.771  25.396  1.00  0.00     0.176 HD
ENDBRANCH  22  27
ENDBRANCH   1  13
BRANCH  12  30
HETATM   30  C17 UNL     1       6.463   4.226  21.283  1.00  0.00     0.156 C
BRANCH  30  31
HETATM   31  O5  UNL     1       6.408   5.507  20.789  1.00  0.00    -0.392 OA
ATOM     32  H5  UNL     1       7.233   5.809  20.427  1.00  0.00     0.210 HD
ENDBRANCH  30  31
BRANCH  30  33
HETATM   33  C18 UNL     1       7.909   3.949  21.667  1.00  0.00     0.196 C
BRANCH  33  34
HETATM   34  O6  UNL     1       8.509   3.047  20.811  1.00  0.00    -0.398 OA
ATOM     35  H6  UNL     1       8.988   3.481  20.115  1.00  0.00     0.209 HD
ENDBRANCH  33  34
ENDBRANCH  30  33
ENDBRANCH  12  30
BRANCH   7  36
HETATM   36  C9  UNL     1       0.544   5.168  20.522  1.00  0.00     0.429 C
BRANCH  36  37
HETATM   37  N9  UNL     1      -0.263   4.289  21.481  1.00  0.00    -0.045 N
ATOM     38  H93 UNL     1      -1.035   4.766  21.948  1.00  0.00     0.277 HD
ATOM     39  H92 UNL     1      -0.839   3.580  21.026  1.00  0.00     0.277 HD
ATOM     40  H91 UNL     1       0.451   3.918  22.109  1.00  0.00     0.277 HD
ENDBRANCH  36  37
BRANCH  36  41
HETATM   41  N10 UNL     1      -0.277   6.337  20.432  1.00  0.00    -0.045 N
ATOM     42 3H10 UNL     1      -0.077   7.004  21.177  1.00  0.00     0.277 HD
ATOM     43 2H10 UNL     1      -0.023   6.923  19.636  1.00  0.00     0.277 HD
ATOM     44 1H10 UNL     1      -1.262   6.072  20.411  1.00  0.00     0.277 HD
ENDBRANCH  36  41
ENDBRANCH   7  36
BRANCH   9  45
HETATM   45  C12 UNL     1       2.713   2.664  20.394  1.00  0.00     0.211 C
HETATM   46  O1  UNL     1       3.301   2.493  19.235  1.00  0.00    -0.644 OA
HETATM   47  O2  UNL     1       1.598   1.913  20.430  1.00  0.00    -0.644 OA
ENDBRANCH   9  45
BRANCH  11  48
HETATM   48  O3  UNL     1       5.552   1.363  23.376  1.00  0.00    -0.272 OA
BRANCH  48  49
HETATM   49  C15 UNL     1       6.470   0.439  22.938  1.00  0.00     0.383 C
HETATM   50  O4  UNL     1       6.754   0.490  21.700  1.00  0.00    -0.236 OA
HETATM   51  N11 UNL     1       7.087  -0.523  23.761  1.00  0.00    -0.252 N
ATOM     52  H11 UNL     1       6.862  -0.567  24.754  1.00  0.00     0.191 HD
BRANCH  51  53
HETATM   53  N12 UNL     1       8.002  -1.412  23.212  1.00  0.00    -0.341 N
ATOM     54 2H12 UNL     1       8.979  -1.131  23.128  1.00  0.00     0.177 HD
ATOM     55 1H12 UNL     1       7.690  -2.332  22.901  1.00  0.00     0.177 HD
ENDBRANCH  51  53
ENDBRANCH  48  49
ENDBRANCH  11  48
TORSDOF 13
ENDMDL