MODEL 5
REMARK VINA RESULT: -6.244246131      2.686      5.799
REMARK  16 active torsions:
REMARK  status: ('A' for Active; 'I' for Inactive)
REMARK    1  A    between atoms: N1_1  and  C1_5
REMARK    2  A    between atoms: C1_5  and  C2_6
REMARK    3  A    between atoms: C3_7  and  O1_8
REMARK    4  A    between atoms: C4_10  and  O2_11
REMARK    5  A    between atoms: C4_10  and  O3_13
REMARK    6  A    between atoms: O3_13  and  C5_14
REMARK       I    between atoms: C5_14  and  N2_16
REMARK    7  A    between atoms: N3_19  and  C6_20
REMARK    8  A    between atoms: C6_20  and  C7_21
REMARK    9  A    between atoms: C8_22  and  O6_23
REMARK   10  A    between atoms: C10_26  and  C11_27
REMARK   11  A    between atoms: C11_27  and  O7_28
REMARK   12  A    between atoms: O7_28  and  C12_29
REMARK   13  A    between atoms: C12_29  and  C13_31
REMARK   14  A    between atoms: C13_31  and  O9_32
REMARK   15  A    between atoms: C13_31  and  C14_34
REMARK   16  A    between atoms: C17_45  and  O11_46
ROOT
HETATM    1  C5  UNL     1       8.608   3.840  23.377  1.00  0.00     0.469 C
HETATM    2  O4  UNL     1       7.677   3.566  24.139  1.00  0.00    -0.218 OA
HETATM    3  N2  UNL     1       8.775   3.403  22.019  1.00  0.00    -0.213 NA
HETATM    4  O5  UNL     1       8.912   3.042  20.895  1.00  0.00    -0.213 OA
ATOM      5  H5  UNL     1       9.022   2.753  19.997  1.00  0.00     0.262 HD
ENDROOT
BRANCH   1   6
HETATM    6  O3  UNL     1       9.593   4.677  23.947  1.00  0.00    -0.230 OA
BRANCH   6   7
HETATM    7  C4  UNL     1      10.260   4.293  25.124  1.00  0.00     0.287 C
HETATM    8  C3  UNL     1      11.734   4.145  25.090  1.00  0.00     0.228 C
HETATM    9  C2  UNL     1      11.689   4.867  26.425  1.00  0.00     0.150 C
HETATM   10  N3  UNL     1      10.330   5.246  26.190  1.00  0.00    -0.324 N
BRANCH   8  11
HETATM   11  O1  UNL     1      12.232   2.862  25.233  1.00  0.00    -0.386 OA
ATOM     12  H1  UNL     1      11.661   2.224  24.821  1.00  0.00     0.210 HD
ENDBRANCH   8  11
BRANCH   9  13
HETATM   13  C1  UNL     1      11.874   3.902  27.596  1.00  0.00     0.257 C
BRANCH  13  14
HETATM   14  N1  UNL     1      13.206   3.970  28.111  1.00  0.00    -0.077 N
ATOM     15  H13 UNL     1      13.783   3.206  27.760  1.00  0.00     0.274 HD
ATOM     16  H12 UNL     1      13.724   4.753  27.712  1.00  0.00     0.274 HD
ATOM     17  H11 UNL     1      13.203   4.001  29.131  1.00  0.00     0.274 HD
ENDBRANCH  13  14
ENDBRANCH   9  13
BRANCH  10  18
HETATM   18  C6  UNL     1       9.352   6.124  26.730  1.00  0.00     0.108 C
BRANCH  18  19
HETATM   19  C7  UNL     1       8.385   6.751  26.147  1.00  0.00     0.048 A
HETATM   20  C8  UNL     1       7.125   6.245  25.939  1.00  0.00     0.081 A
HETATM   21  C9  UNL     1       6.149   6.988  25.272  1.00  0.00     0.053 A
HETATM   22  C10 UNL     1       6.401   8.247  24.797  1.00  0.00     0.016 A
HETATM   23  C16 UNL     1       7.659   8.746  25.009  1.00  0.00     0.092 A
HETATM   24  N7  UNL     1       7.986  10.069  24.532  1.00  0.00    -0.099 NA
HETATM   25  C17 UNL     1       8.634   8.045  25.657  1.00  0.00     0.105 A
BRANCH  20  26
HETATM   26  O6  UNL     1       6.815   4.976  26.403  1.00  0.00    -0.360 OA
ATOM     27  H6  UNL     1       5.959   4.607  26.218  1.00  0.00     0.217 HD
ENDBRANCH  20  26
BRANCH  22  28
HETATM   28  C11 UNL     1       5.485   8.948  24.143  1.00  0.00     0.159 C
BRANCH  28  29
HETATM   29  O7  UNL     1       5.538   9.028  22.759  1.00  0.00    -0.288 OA
BRANCH  29  30
HETATM   30  C12 UNL     1       5.462   7.911  21.945  1.00  0.00     0.299 C
HETATM   31  O8  UNL     1       4.314   7.694  21.444  1.00  0.00    -0.261 OA
BRANCH  30  32
HETATM   32  C13 UNL     1       6.575   6.997  21.639  1.00  0.00     0.286 C
BRANCH  32  33
HETATM   33  O9  UNL     1       7.135   7.371  20.421  1.00  0.00    -0.378 OA
ATOM     34  H9  UNL     1       7.146   6.613  19.848  1.00  0.00     0.211 HD
ENDBRANCH  32  33
BRANCH  32  35
HETATM   35  C14 UNL     1       6.101   5.602  21.549  1.00  0.00     0.139 A
HETATM   36  N4  UNL     1       6.496   4.728  20.620  1.00  0.00    -0.282 N
HETATM   37  N5  UNL     1       5.876   3.597  20.858  1.00  0.00    -0.250 N
ATOM     38  H4  UNL     1       7.157   4.906  19.865  1.00  0.00     0.188 HD
HETATM   39  C15 UNL     1       5.077   3.727  21.939  1.00  0.00     0.340 A
ATOM     40  H5  UNL     1       5.981   2.745  20.308  1.00  0.00     0.192 HD
HETATM   41  O10 UNL     1       4.343   2.848  22.446  1.00  0.00    -0.245 OA
HETATM   42  N6  UNL     1       5.234   4.991  22.356  1.00  0.00    -0.293 N
ATOM     43  H6  UNL     1       4.767   5.415  23.157  1.00  0.00     0.172 HD
ENDBRANCH  32  35
ENDBRANCH  30  32
ENDBRANCH  29  30
ENDBRANCH  28  29
ENDBRANCH  22  28
BRANCH  25  44
HETATM   44  O11 UNL     1       9.884   8.598  25.842  1.00  0.00    -0.358 OA
ATOM     45  H11 UNL     1      10.275   9.095  25.134  1.00  0.00     0.217 HD
ENDBRANCH  25  44
ENDBRANCH  18  19
ENDBRANCH  10  18
BRANCH   7  46
HETATM   46  O2  UNL     1       9.665   3.094  25.586  1.00  0.00    -0.346 OA
ATOM     47  H2  UNL     1       9.715   2.427  24.911  1.00  0.00     0.215 HD
ENDBRANCH   7  46
ENDBRANCH   6   7
ENDBRANCH   1   6
TORSDOF 16
ENDMDL