MODEL 4
REMARK VINA RESULT: -7.463464295      2.833      6.374
REMARK  11 active torsions:
REMARK  status: ('A' for Active; 'I' for Inactive)
REMARK    1  A    between atoms: N5_15  and  C6_16
REMARK    2  A    between atoms: C7_18  and  N6_19
REMARK    3  A    between atoms: C7_18  and  C8_23
REMARK    4  A    between atoms: C8_23  and  O2_24
REMARK    5  A    between atoms: O2_24  and  S1_25
REMARK    6  A    between atoms: S1_25  and  N7_28
REMARK       I    between atoms: N7_28  and  C9_30
REMARK       I    between atoms: C9_30  and  N8_32
REMARK    7  A    between atoms: N8_32  and  N9_33
REMARK    8  A    between atoms: N8_32  and  C10_36
REMARK    9  A    between atoms: C11_40  and  O6_41
REMARK   10  A    between atoms: C12_43  and  O7_44
REMARK   11  A    between atoms: C13_47  and  O9_48
ROOT
HETATM    1  C6  UNL     1       4.639   6.453  23.414  1.00  0.00     0.267 C
HETATM    2  O1  UNL     1       3.412   7.037  23.088  1.00  0.00    -0.322 OA
HETATM    3  C7  UNL     1       3.342   6.227  21.971  1.00  0.00     0.279 C
HETATM    4  C13 UNL     1       4.854   6.152  21.970  1.00  0.00     0.232 C
ENDROOT
BRANCH   3   5
HETATM    5  N6  UNL     1       2.843   6.911  20.776  1.00  0.00    -0.042 N
ATOM      6  H63 UNL     1       2.390   7.789  21.027  1.00  0.00     0.278 HD
ATOM      7  H62 UNL     1       3.618   7.271  20.219  1.00  0.00     0.278 HD
ATOM      8  H61 UNL     1       2.224   6.338  20.203  1.00  0.00     0.278 HD
ENDBRANCH   3   5
BRANCH   3   9
HETATM    9  C8  UNL     1       2.623   4.916  22.213  1.00  0.00     0.263 C
BRANCH   9  10
HETATM   10  O2  UNL     1       2.316   4.390  20.964  1.00  0.00    -0.254 OA
BRANCH  10  11
HETATM   11  S1  UNL     1       2.894   2.838  20.780  1.00  0.00     0.365 S
HETATM   12  O3  UNL     1       2.385   1.928  21.880  1.00  0.00    -0.175 OA
HETATM   13  O4  UNL     1       2.399   2.260  19.479  1.00  0.00    -0.175 OA
BRANCH  11  14
HETATM   14  N7  UNL     1       4.611   2.811  20.730  1.00  0.00    -0.211 N
HETATM   15  C9  UNL     1       5.354   2.654  21.925  1.00  0.00     0.355 C
HETATM   16  O5  UNL     1       4.722   2.532  23.032  1.00  0.00    -0.244 OA
HETATM   17  N8  UNL     1       6.759   2.628  21.924  1.00  0.00    -0.193 N
ATOM     18  H7  UNL     1       5.096   2.909  19.837  1.00  0.00     0.185 HD
BRANCH  17  19
HETATM   19  N9  UNL     1       7.431   2.766  20.697  1.00  0.00    -0.335 N
ATOM     20  H92 UNL     1       6.984   3.196  19.888  1.00  0.00     0.177 HD
ATOM     21  H91 UNL     1       8.389   2.421  20.625  1.00  0.00     0.177 HD
ENDBRANCH  17  19
BRANCH  17  22
HETATM   22  C10 UNL     1       7.476   2.467  23.162  1.00  0.00     0.459 C
HETATM   23  N10 UNL     1       8.852   2.893  23.025  1.00  0.00     0.002 N
HETATM   24  C11 UNL     1       9.492   2.308  24.182  1.00  0.00     0.379 C
ATOM     25 2H10 UNL     1       9.285   2.653  22.133  1.00  0.00     0.285 HD
ATOM     26 1H10 UNL     1       8.978   3.900  22.933  1.00  0.00     0.285 HD
HETATM   27  C12 UNL     1       8.561   1.195  24.556  1.00  0.00     0.318 C
HETATM   28  O8  UNL     1       7.628   1.112  23.503  1.00  0.00    -0.307 OA
BRANCH  24  29
HETATM   29  O6  UNL     1      10.764   1.821  23.881  1.00  0.00    -0.366 OA
ATOM     30  H6  UNL     1      11.402   2.071  24.538  1.00  0.00     0.212 HD
ENDBRANCH  24  29
BRANCH  27  31
HETATM   31  O7  UNL     1       7.925   1.552  25.749  1.00  0.00    -0.367 OA
ATOM     32  H7  UNL     1       6.987   1.540  25.594  1.00  0.00     0.212 HD
ENDBRANCH  27  31
ENDBRANCH  17  22
ENDBRANCH  11  14
ENDBRANCH  10  11
ENDBRANCH   9  10
ENDBRANCH   3   9
BRANCH   4  33
HETATM   33  O9  UNL     1       5.366   7.152  21.167  1.00  0.00    -0.386 OA
ATOM     34  H9  UNL     1       5.628   6.926  20.283  1.00  0.00     0.210 HD
ENDBRANCH   4  33
BRANCH   1  35
HETATM   35  N5  UNL     1       5.543   7.376  24.033  1.00  0.00    -0.297 N
HETATM   36  C3  UNL     1       5.731   8.704  23.859  1.00  0.00     0.142 A
HETATM   37  N3  UNL     1       5.116   9.570  23.041  1.00  0.00    -0.336 N
HETATM   38  C4  UNL     1       6.735   9.137  24.702  1.00  0.00     0.122 A
HETATM   39  C2  UNL     1       5.490  10.854  23.056  1.00  0.00     0.183 A
ATOM     40  H3  UNL     1       4.374   9.253  22.416  1.00  0.00     0.168 HD
HETATM   41  N2  UNL     1       6.467  11.275  23.877  1.00  0.00    -0.337 N
HETATM   42  C1  UNL     1       7.128  10.466  24.723  1.00  0.00     0.131 A
ATOM     43  H2  UNL     1       6.721  12.263  23.856  1.00  0.00     0.168 HD
HETATM   44  N1  UNL     1       8.057  10.843  25.510  1.00  0.00    -0.383 N
ATOM     45  H12 UNL     1       8.346  11.821  25.526  1.00  0.00     0.157 HD
ATOM     46  H11 UNL     1       8.558  10.229  26.152  1.00  0.00     0.157 HD
HETATM   47  N4  UNL     1       7.144   8.060  25.380  1.00  0.00    -0.346 N
HETATM   48  C5  UNL     1       6.436   7.003  24.985  1.00  0.00     0.188 A
ATOM     49  H4  UNL     1       7.880   8.049  26.086  1.00  0.00     0.167 HD
ENDBRANCH   1  35
TORSDOF 11
ENDMDL