MODEL 3
REMARK VINA RESULT: -6.683745920      3.274      4.373
REMARK  12 active torsions:
REMARK  status: ('A' for Active; 'I' for Inactive)
REMARK    1  A    between atoms: N1_1  and  C1_4
REMARK    2  A    between atoms: C2_7  and  S1_8
REMARK    3  A    between atoms: S1_8  and  N3_9
REMARK    4  A    between atoms: N5_19  and  C5_20
REMARK    5  A    between atoms: C6_22  and  C7_23
REMARK    6  A    between atoms: C7_23  and  S2_24
REMARK    7  A    between atoms: S2_24  and  C8_25
REMARK    8  A    between atoms: C9_27  and  O6_28
REMARK    9  A    between atoms: C10_30  and  N6_31
REMARK   10  A    between atoms: C11_35  and  O7_36
REMARK   11  A    between atoms: C12_38  and  O8_39
REMARK   12  A    between atoms: C12_38  and  O9_41
ROOT
HETATM    1  C5  UNL     1       3.969   6.050  23.206  1.00  0.00     0.299 C
HETATM    2  O4  UNL     1       4.790   6.933  22.559  1.00  0.00    -0.352 OA
HETATM    3  C6  UNL     1       4.011   7.924  21.987  1.00  0.00     0.168 C
HETATM    4  C11 UNL     1       2.688   7.304  21.631  1.00  0.00     0.214 C
HETATM    5  C12 UNL     1       2.591   6.155  22.602  1.00  0.00     0.234 C
ENDROOT
BRANCH   1   6
HETATM    6  N5  UNL     1       4.394   4.688  23.201  1.00  0.00    -0.249 N
HETATM    7  C4  UNL     1       3.884   3.748  24.017  1.00  0.00     0.331 A
HETATM    8  N4  UNL     1       4.467   2.559  23.793  1.00  0.00    -0.302 N
HETATM    9  O3  UNL     1       2.982   3.884  24.897  1.00  0.00    -0.246 OA
HETATM   10  C3  UNL     1       5.375   2.717  22.815  1.00  0.00     0.122 A
ATOM     11  H4  UNL     1       4.257   1.688  24.280  1.00  0.00     0.171 HD
HETATM   12  C2  UNL     1       6.264   1.890  22.166  1.00  0.00     0.194 A
HETATM   13  C13 UNL     1       5.313   4.049  22.460  1.00  0.00     0.159 A
HETATM   14  N2  UNL     1       7.050   2.409  21.200  1.00  0.00    -0.177 N
HETATM   15  C1  UNL     1       6.973   3.709  20.871  1.00  0.00     0.678 A
ATOM     16  H2  UNL     1       7.712   1.805  20.712  1.00  0.00     0.185 HD
HETATM   17  N7  UNL     1       6.107   4.515  21.504  1.00  0.00    -0.174 N
ATOM     18  H7  UNL     1       6.057   5.501  21.245  1.00  0.00     0.186 HD
BRANCH  12  19
HETATM   19  S1  UNL     1       6.331   0.214  22.626  1.00  0.00     0.275 S
HETATM   20  O1  UNL     1       5.064  -0.280  23.225  1.00  0.00    -0.199 OA
HETATM   21  O2  UNL     1       6.627  -0.653  21.428  1.00  0.00    -0.199 OA
BRANCH  19  22
HETATM   22  N3  UNL     1       7.612  -0.056  23.750  1.00  0.00    -0.323 N
ATOM     23  H32 UNL     1       7.477  -0.443  24.684  1.00  0.00     0.169 HD
ATOM     24  H31 UNL     1       8.507   0.222  23.347  1.00  0.00     0.169 HD
ENDBRANCH  19  22
ENDBRANCH  12  19
BRANCH  15  25
HETATM   25  N1  UNL     1       7.724   4.205  19.949  1.00  0.00    -0.234 N
ATOM     26  H12 UNL     1       7.911   3.650  19.114  1.00  0.00     0.174 HD
ATOM     27  H11 UNL     1       8.128   5.137  20.046  1.00  0.00     0.174 HD
ENDBRANCH  15  25
ENDBRANCH   1   6
BRANCH   5  28
HETATM   28  O8  UNL     1       1.619   6.444  23.572  1.00  0.00    -0.360 OA
ATOM     29  H8  UNL     1       0.908   5.815  23.554  1.00  0.00     0.213 HD
ENDBRANCH   5  28
BRANCH   5  30
HETATM   30  O9  UNL     1       2.233   5.026  21.891  1.00  0.00    -0.360 OA
ATOM     31  H9  UNL     1       2.341   4.228  22.393  1.00  0.00     0.213 HD
ENDBRANCH   5  30
BRANCH   3  32
HETATM   32  C7  UNL     1       3.892   9.065  22.943  1.00  0.00     0.111 C
BRANCH  32  33
HETATM   33  S2  UNL     1       5.439  10.007  23.016  1.00  0.00    -0.132 SA
BRANCH  33  34
HETATM   34  C8  UNL     1       6.277   9.813  24.589  1.00  0.00     0.221 C
HETATM   35  O5  UNL     1       6.353   8.467  24.939  1.00  0.00    -0.341 OA
HETATM   36  C9  UNL     1       7.552   8.367  24.259  1.00  0.00     0.292 C
HETATM   37  C10 UNL     1       7.787   9.825  24.485  1.00  0.00     0.276 C
BRANCH  36  38
HETATM   38  O6  UNL     1       7.440   8.065  22.904  1.00  0.00    -0.369 OA
ATOM     39  H6  UNL     1       7.911   8.648  22.321  1.00  0.00     0.212 HD
ENDBRANCH  36  38
BRANCH  37  40
HETATM   40  N6  UNL     1       8.479  10.173  25.691  1.00  0.00    -0.067 N
ATOM     41  H63 UNL     1       7.810  10.429  26.417  1.00  0.00     0.275 HD
ATOM     42  H62 UNL     1       8.891   9.340  26.111  1.00  0.00     0.275 HD
ATOM     43  H61 UNL     1       9.185  10.902  25.592  1.00  0.00     0.275 HD
ENDBRANCH  37  40
ENDBRANCH  33  34
ENDBRANCH  32  33
ENDBRANCH   3  32
BRANCH   4  44
HETATM   44  O7  UNL     1       1.627   8.184  21.724  1.00  0.00    -0.387 OA
ATOM     45  H7  UNL     1       1.804   8.931  22.284  1.00  0.00     0.210 HD
ENDBRANCH   4  44
TORSDOF 12
ENDMDL