MODEL 3
REMARK VINA RESULT: -7.522354918      1.533      2.003
REMARK  12 active torsions:
REMARK  status: ('A' for Active; 'I' for Inactive)
REMARK    1  A    between atoms: S1_2  and  C2_3
REMARK    2  A    between atoms: C3_5  and  O2_6
REMARK    3  A    between atoms: C4_8  and  O3_9
REMARK    4  A    between atoms: C5_11  and  N1_12
REMARK    5  A    between atoms: C6_16  and  N2_17
REMARK    6  A    between atoms: C7_21  and  C8_22
REMARK    7  A    between atoms: C8_22  and  N7_29
REMARK    8  A    between atoms: N5_23  and  N6_25
REMARK    9  A    between atoms: N6_25  and  O4_27
REMARK   10  A    between atoms: N7_29  and  N8_31
REMARK   11  A    between atoms: N8_31  and  C9_33
REMARK   12  A    between atoms: C11_40  and  N11_41
REMARK       I    between atoms: N11_41  and  C12_43
ROOT
HETATM    1  C8  UNL     1       6.026  10.455  23.911  1.00  0.00     0.184 C
HETATM    2  N5  UNL     1       6.851  10.971  24.740  1.00  0.00    -0.262 N
ATOM      3  H5  UNL     1       6.543  11.746  25.328  1.00  0.00     0.190 HD
ENDROOT
BRANCH   1   4
HETATM    4  C7  UNL     1       6.478   9.335  23.063  1.00  0.00     0.182 A
HETATM    5  N4  UNL     1       6.943   9.370  21.820  1.00  0.00    -0.264 N
HETATM    6  N3  UNL     1       7.217   8.121  21.480  1.00  0.00    -0.002 NA
ATOM      7  H4  UNL     1       7.066  10.199  21.239  1.00  0.00     0.186 HD
HETATM    8  N2  UNL     1       6.936   7.290  22.483  1.00  0.00    -0.206 N
HETATM    9  N15 UNL     1       6.481   8.063  23.452  1.00  0.00    -0.266 N
ATOM     10  H15 UNL     1       6.176   7.732  24.367  1.00  0.00     0.190 HD
BRANCH   8  11
HETATM   11  C6  UNL     1       7.090   5.849  22.517  1.00  0.00     0.197 C
HETATM   12  C2  UNL     1       8.540   5.436  22.515  1.00  0.00     0.214 C
HETATM   13  O1  UNL     1       8.853   4.605  21.450  1.00  0.00    -0.341 OA
HETATM   14  C3  UNL     1       8.056   3.468  21.401  1.00  0.00     0.289 C
HETATM   15  C4  UNL     1       6.590   3.789  21.321  1.00  0.00     0.205 C
HETATM   16  C5  UNL     1       6.336   5.279  21.336  1.00  0.00     0.246 C
BRANCH  12  17
HETATM   17  S1  UNL     1       8.938   4.679  24.109  1.00  0.00    -0.139 SA
HETATM   18  C1  UNL     1       9.259   5.982  25.328  1.00  0.00     0.092 C
ENDBRANCH  12  17
BRANCH  14  19
HETATM   19  O2  UNL     1       8.328   2.581  22.451  1.00  0.00    -0.369 OA
ATOM     20  H2  UNL     1       7.690   2.643  23.151  1.00  0.00     0.212 HD
ENDBRANCH  14  19
BRANCH  15  21
HETATM   21  O3  UNL     1       5.987   3.264  20.183  1.00  0.00    -0.388 OA
ATOM     22  H3  UNL     1       5.525   2.452  20.355  1.00  0.00     0.210 HD
ENDBRANCH  15  21
BRANCH  16  23
HETATM   23  N1  UNL     1       4.939   5.555  21.525  1.00  0.00    -0.070 N
ATOM     24  H13 UNL     1       4.556   6.108  20.758  1.00  0.00     0.274 HD
ATOM     25  H12 UNL     1       4.370   4.716  21.408  1.00  0.00     0.274 HD
ATOM     26  H11 UNL     1       4.778   5.998  22.429  1.00  0.00     0.274 HD
ENDBRANCH  16  23
ENDBRANCH   8  11
ENDBRANCH   1   4
BRANCH   1  27
HETATM   27  N7  UNL     1       4.688  10.884  23.742  1.00  0.00    -0.267 N
ATOM     28  H7  UNL     1       4.416  11.843  23.961  1.00  0.00     0.189 HD
BRANCH  27  29
HETATM   29  N8  UNL     1       3.752   9.968  23.269  1.00  0.00    -0.130 N
ATOM     30  H8  UNL     1       4.049   9.086  22.851  1.00  0.00     0.205 HD
BRANCH  29  31
HETATM   31  C9  UNL     1       2.512  10.257  23.370  1.00  0.00     0.715 A
HETATM   32  N9  UNL     1       2.054  11.417  23.871  1.00  0.00    -0.139 N
HETATM   33  C10 UNL     1       0.743  11.679  23.963  1.00  0.00     0.352 A
ATOM     34  H9  UNL     1       2.723  12.117  24.191  1.00  0.00     0.189 HD
HETATM   35  O5  UNL     1       0.347  12.757  24.428  1.00  0.00    -0.246 OA
HETATM   36  N10 UNL     1      -0.139  10.761  23.545  1.00  0.00    -0.140 N
HETATM   37  C11 UNL     1       0.281   9.577  23.033  1.00  0.00     0.703 A
ATOM     38  H10 UNL     1      -1.139  10.955  23.613  1.00  0.00     0.189 HD
HETATM   39  N14 UNL     1       1.592   9.347  22.955  1.00  0.00    -0.020 N
ATOM     40  H14 UNL     1       1.915   8.458  22.571  1.00  0.00     0.203 HD
BRANCH  37  41
HETATM   41  N11 UNL     1      -0.565   8.709  22.639  1.00  0.00    -0.163 N
HETATM   42  C12 UNL     1      -0.720   8.453  21.250  1.00  0.00     0.200 C
HETATM   43  N12 UNL     1      -1.675   8.995  20.557  1.00  0.00    -0.373 N
HETATM   44  N13 UNL     1       0.188   7.584  20.606  1.00  0.00    -0.063 NA
ATOM     45 2H12 UNL     1      -2.331   9.622  21.022  1.00  0.00     0.158 HD
ATOM     46 1H12 UNL     1      -1.787   8.812  19.560  1.00  0.00     0.158 HD
ATOM     47  H11 UNL     1      -1.129   8.200  23.319  1.00  0.00     0.187 HD
ENDBRANCH  37  41
ENDBRANCH  29  31
ENDBRANCH  27  29
ENDBRANCH   1  27
BRANCH   2  48
HETATM   48  N6  UNL     1       8.146  10.510  24.860  1.00  0.00    -0.208 N
ATOM     49  H6  UNL     1       8.874  10.902  24.264  1.00  0.00     0.215 HD
BRANCH  48  50
HETATM   50  O4  UNL     1       8.441   9.621  25.686  1.00  0.00    -0.274 OA
ATOM     51  H4  UNL     1       9.343   9.354  25.822  1.00  0.00     0.246 HD
ENDBRANCH  48  50
ENDBRANCH   2  48
TORSDOF 12
ENDMDL