MODEL 1
REMARK VINA RESULT: -6.805869512      0.000      0.000
REMARK  8 active torsions:
REMARK  status: ('A' for Active; 'I' for Inactive)
REMARK    1  A    between atoms: C2_2  and  C4_4
REMARK    2  A    between atoms: C4_4  and  C5_5
REMARK    3  A    between atoms: C5_5  and  C6_6
REMARK    4  A    between atoms: C6_6  and  O1_7
REMARK    5  A    between atoms: C9_14  and  O4_16
REMARK    6  A    between atoms: O4_16  and  C11_17
REMARK    7  A    between atoms: C11_17  and  C12_19
REMARK    8  A    between atoms: C12_19  and  C13_21
ROOT
HETATM    1  C6  UNL     1      26.050  -0.578  -9.193  1.00  0.00     0.204 C
HETATM    2  O2  UNL     1      26.191  -1.440  -8.049  1.00  0.00    -0.279 OA
HETATM    3  C7  UNL     1      27.528  -1.510  -7.738  1.00  0.00     0.279 C
HETATM    4  O3  UNL     1      28.053  -2.377  -7.000  1.00  0.00    -0.264 OA
HETATM    5  C8  UNL     1      28.228  -0.372  -8.440  1.00  0.00     0.197 C
HETATM    6 BR1  UNL     1      28.054   1.262  -7.515  1.00  0.00    -0.077 Br
HETATM    7  C9  UNL     1      27.379  -0.446  -9.754  1.00  0.00     0.145 C
HETATM    8  C10 UNL     1      27.937  -1.732 -10.380  1.00  0.00     0.054 C
ENDROOT
BRANCH   7   9
HETATM    9  O4  UNL     1      27.743   0.662 -10.501  1.00  0.00    -0.302 OA
BRANCH   9  10
HETATM   10  C11 UNL     1      27.009   1.524 -11.233  1.00  0.00     0.287 C
HETATM   11  O5  UNL     1      26.635   2.605 -10.697  1.00  0.00    -0.263 OA
BRANCH  10  12
HETATM   12  C12 UNL     1      26.573   1.350 -12.634  1.00  0.00     0.288 C
HETATM   13 CL1  UNL     1      27.679   0.231 -13.458  1.00  0.00    -0.105 Cl
BRANCH  12  14
HETATM   14  C13 UNL     1      25.146   0.975 -12.828  1.00  0.00     0.413 C
HETATM   15  F1  UNL     1      24.705   1.471 -14.033  1.00  0.00    -0.169 F
HETATM   16  F2  UNL     1      24.339   1.375 -11.795  1.00  0.00    -0.169 F
HETATM   17  F3  UNL     1      25.117  -0.421 -12.967  1.00  0.00    -0.169 F
ENDBRANCH  12  14
ENDBRANCH  10  12
ENDBRANCH   9  10
ENDBRANCH   7   9
BRANCH   1  18
HETATM   18  C5  UNL     1      24.847  -0.971  -9.939  1.00  0.00     0.076 C
BRANCH  18  19
HETATM   19  C4  UNL     1      23.508  -0.624  -9.334  1.00  0.00     0.038 C
BRANCH  19  20
HETATM   20  C2  UNL     1      22.415  -0.780 -10.369  1.00  0.00    -0.093 C
HETATM   21  C1  UNL     1      22.423  -1.758 -11.265  1.00  0.00     0.014 C
HETATM   22  C3  UNL     1      21.286   0.201 -10.384  1.00  0.00     0.042 C
ENDBRANCH  19  20
ENDBRANCH  18  19
ENDBRANCH   1  18
BRANCH   1  23
HETATM   23  O1  UNL     1      25.744   0.688  -8.586  1.00  0.00    -0.362 OA
ATOM     24  H1  UNL     1      25.412   1.240  -9.285  1.00  0.00     0.213 HD
ENDBRANCH   1  23
TORSDOF 8
ENDMDL