MODEL 3
REMARK VINA RESULT: -3.223673201      1.694      2.021
REMARK  4 active torsions:
REMARK  status: ('A' for Active; 'I' for Inactive)
REMARK    1  A    between atoms: O1_2  and  C2_3
REMARK    2  A    between atoms: C2_3  and  C3_4
REMARK    3  A    between atoms: C3_4  and  C4_5
REMARK       I    between atoms: N3_11  and  C6_13
REMARK    4  A    between atoms: C6_13  and  C7_15
ROOT
HETATM    1  C4  UNL     1      19.796  -0.823 -10.432  1.00  0.00     0.071 A
HETATM    2  N1  UNL     1      20.351   0.381 -10.502  1.00  0.00    -0.296 N
ATOM      3  H1  UNL     1      19.785   1.213 -10.339  1.00  0.00     0.187 HD
HETATM    4  N2  UNL     1      21.585   0.497 -10.770  1.00  0.00    -0.279 N
ATOM      5  H2  UNL     1      22.018   1.419 -10.825  1.00  0.00     0.189 HD
HETATM    6  C5  UNL     1      22.310  -0.605 -10.979  1.00  0.00     0.168 A
HETATM    7  N3  UNL     1      23.567  -0.755 -11.264  1.00  0.00    -0.302 N
ATOM      8  H3  UNL     1      23.917  -1.705 -11.384  1.00  0.00     0.171 HD
HETATM    9  C6  UNL     1      24.469   0.293 -11.417  1.00  0.00     0.262 C
HETATM   10  O2  UNL     1      24.168   1.285 -12.114  1.00  0.00    -0.267 OA
HETATM   11  S1  UNL     1      21.136  -1.830 -10.774  1.00  0.00    -0.038 SA
ENDROOT
BRANCH   9  12
HETATM   12  C7  UNL     1      25.770   0.261 -10.776  1.00  0.00     0.096 A
HETATM   13  C8  UNL     1      25.877   0.037  -9.405  1.00  0.00     0.157 A
HETATM   14  F1  UNL     1      24.723  -0.145  -8.730  1.00  0.00    -0.203 F
HETATM   15  C9  UNL     1      27.116   0.007  -8.797  1.00  0.00     0.097 A
HETATM   16 CL1  UNL     1      27.198  -0.281  -7.066  1.00  0.00    -0.079 Cl
HETATM   17  C10 UNL     1      28.274   0.193  -9.491  1.00  0.00     0.082 A
HETATM   18 CL2  UNL     1      29.803   0.139  -8.642  1.00  0.00    -0.081 Cl
HETATM   19  C11 UNL     1      28.182   0.416 -10.850  1.00  0.00     0.080 A
HETATM   20 CL3  UNL     1      29.646   0.661 -11.783  1.00  0.00    -0.081 Cl
HETATM   21  C12 UNL     1      26.948   0.450 -11.478  1.00  0.00     0.076 A
HETATM   22 CL4  UNL     1      26.895   0.740 -13.218  1.00  0.00    -0.081 Cl
ENDBRANCH   9  12
BRANCH   1  23
HETATM   23  C3  UNL     1      18.366  -1.182 -10.133  1.00  0.00     0.092 C
BRANCH  23  24
HETATM   24  C2  UNL     1      18.100  -2.624 -10.479  1.00  0.00     0.173 C
BRANCH  24  25
HETATM   25  O1  UNL     1      17.676  -2.656 -11.806  1.00  0.00    -0.396 OA
HETATM   26  C1  UNL     1      18.438  -3.573 -12.536  1.00  0.00     0.201 C
ENDBRANCH  24  25
ENDBRANCH  23  24
ENDBRANCH   1  23
TORSDOF 4
ENDMDL