MODEL 1
REMARK VINA RESULT: -9.854042973      0.000      0.000
REMARK  9 active torsions:
REMARK  status: ('A' for Active; 'I' for Inactive)
REMARK    1  A    between atoms: C2_2  and  C3_5
REMARK    2  A    between atoms: C3_5  and  C4_6
REMARK    3  A    between atoms: C4_6  and  O1_7
REMARK    4  A    between atoms: C4_6  and  C18_26
REMARK    5  A    between atoms: O1_7  and  C5_8
REMARK    6  A    between atoms: C5_8  and  C6_10
REMARK    7  A    between atoms: C6_10  and  O4_12
REMARK    8  A    between atoms: O4_12  and  C7_13
REMARK    9  A    between atoms: C10_16  and  O5_17
ROOT
HETATM    1  C6  UNL     1      23.006  -0.637 -10.258  1.00  0.00     0.359 C
HETATM    2  O3  UNL     1      22.651   0.057  -9.280  1.00  0.00    -0.253 OA
ENDROOT
BRANCH   1   3
HETATM    3  C5  UNL     1      22.089  -1.640 -10.769  1.00  0.00     0.359 C
HETATM    4  O2  UNL     1      22.378  -2.207 -11.871  1.00  0.00    -0.253 OA
BRANCH   3   5
HETATM    5  O1  UNL     1      20.932  -2.022 -10.154  1.00  0.00    -0.299 OA
BRANCH   5   6
HETATM    6  C4  UNL     1      19.660  -1.395 -10.450  1.00  0.00     0.245 C
BRANCH   6   7
HETATM    7  C3  UNL     1      19.833  -0.230 -11.326  1.00  0.00     0.120 C
BRANCH   7   8
HETATM    8  C2  UNL     1      19.439   1.116 -10.887  1.00  0.00     0.242 C
HETATM    9  C1  UNL     1      18.795   1.188  -9.531  1.00  0.00     0.090 C
HETATM   10  F1  UNL     1      20.618   1.916 -10.727  1.00  0.00    -0.207 F
HETATM   11  F2  UNL     1      18.698   1.851 -11.775  1.00  0.00    -0.207 F
ENDBRANCH   7   8
ENDBRANCH   6   7
BRANCH   6  12
HETATM   12  C18 UNL     1      18.845  -2.509 -11.047  1.00  0.00     0.414 C
HETATM   13  F3  UNL     1      19.534  -3.221 -12.029  1.00  0.00    -0.168 F
HETATM   14  F4  UNL     1      18.771  -3.476  -9.989  1.00  0.00    -0.168 F
HETATM   15  F5  UNL     1      17.574  -2.192 -11.372  1.00  0.00    -0.168 F
ENDBRANCH   6  12
ENDBRANCH   5   6
ENDBRANCH   3   5
ENDBRANCH   1   3
BRANCH   1  16
HETATM   16  O4  UNL     1      24.254  -0.409 -10.799  1.00  0.00    -0.308 OA
BRANCH  16  17
HETATM   17  C7  UNL     1      25.370   0.018 -10.000  1.00  0.00     0.136 C
HETATM   18  C8  UNL     1      25.970  -1.177  -9.345  1.00  0.00     0.036 C
HETATM   19  C9  UNL     1      26.492  -0.880  -7.950  1.00  0.00     0.040 C
HETATM   20  C10 UNL     1      27.781  -0.155  -7.926  1.00  0.00     0.059 C
HETATM   21  C11 UNL     1      28.705  -0.425  -9.057  1.00  0.00     0.043 C
HETATM   22  C17 UNL     1      27.629   1.347  -7.933  1.00  0.00     0.043 C
HETATM   23  C12 UNL     1      28.533   0.658 -10.071  1.00  0.00    -0.007 C
HETATM   24  C13 UNL     1      27.579   0.314 -11.180  1.00  0.00     0.012 C
HETATM   25  C16 UNL     1      27.896   1.812  -9.327  1.00  0.00    -0.007 C
HETATM   26  C14 UNL     1      26.268   0.862 -10.797  1.00  0.00     0.016 C
HETATM   27  C15 UNL     1      26.640   2.154 -10.065  1.00  0.00     0.012 C
BRANCH  20  28
HETATM   28  O5  UNL     1      28.427  -0.473  -6.708  1.00  0.00    -0.390 OA
ATOM     29  H5  UNL     1      29.364  -0.449  -6.865  1.00  0.00     0.210 HD
ENDBRANCH  20  28
ENDBRANCH  16  17
ENDBRANCH   1  16
TORSDOF 9
ENDMDL