MODEL 3
REMARK VINA RESULT: -0.291593990      2.198      3.462
REMARK  6 active torsions:
REMARK  status: ('A' for Active; 'I' for Inactive)
REMARK    1  A    between atoms: C2_2  and  C4_4
REMARK    2  A    between atoms: C4_4  and  C5_5
REMARK       I    between atoms: C5_5  and  N1_7
REMARK    3  A    between atoms: N1_7  and  C6_9
REMARK    4  A    between atoms: C7_10  and  C8_11
REMARK    5  A    between atoms: N4_21  and  C14_22
REMARK    6  A    between atoms: C14_22  and  C15_23
ROOT
HETATM    1  C6  UNL     1      24.677  -0.259 -10.203  1.00  0.00     0.138 A
HETATM    2  C7  UNL     1      25.261  -1.481  -9.732  1.00  0.00     0.075 A
HETATM    3  N2  UNL     1      24.297  -2.398  -9.594  1.00  0.00    -0.321 N
ATOM      4  H2  UNL     1      24.422  -3.359  -9.276  1.00  0.00     0.169 HD
HETATM    5  C10 UNL     1      23.152  -1.835  -9.944  1.00  0.00     0.228 A
HETATM    6  N3  UNL     1      23.392  -0.555 -10.305  1.00  0.00    -0.288 N
HETATM    7  C11 UNL     1      22.468   0.444 -10.728  1.00  0.00     0.129 C
HETATM    8  C12 UNL     1      22.216   0.405 -12.206  1.00  0.00     0.038 C
HETATM    9  C13 UNL     1      21.155   0.401  -9.975  1.00  0.00     0.088 C
HETATM   10  N4  UNL     1      20.121  -0.373 -10.480  1.00  0.00    -0.362 N
HETATM   11  C16 UNL     1      19.858  -1.614  -9.867  1.00  0.00     0.154 C
HETATM   12  C17 UNL     1      20.797  -2.640 -10.516  1.00  0.00     0.199 C
HETATM   13  O2  UNL     1      22.047  -2.641  -9.864  1.00  0.00    -0.320 OA
ENDROOT
BRANCH   1  14
HETATM   14  N1  UNL     1      25.454   0.863 -10.433  1.00  0.00    -0.311 N
HETATM   15  C5  UNL     1      25.960   1.659 -11.423  1.00  0.00     0.223 C
HETATM   16  O1  UNL     1      25.920   1.643 -12.655  1.00  0.00    -0.273 OA
ATOM     17  H1  UNL     1      25.763   1.230  -9.534  1.00  0.00     0.170 HD
BRANCH  15  18
HETATM   18  C4  UNL     1      26.790   2.889 -10.944  1.00  0.00     0.107 C
BRANCH  18  19
HETATM   19  C2  UNL     1      26.426   3.275  -9.567  1.00  0.00    -0.014 C
HETATM   20  C1  UNL     1      27.404   2.624  -8.615  1.00  0.00     0.010 C
HETATM   21  C3  UNL     1      26.554   4.775  -9.387  1.00  0.00     0.010 C
ENDBRANCH  18  19
ENDBRANCH  15  18
ENDBRANCH   1  14
BRANCH   2  22
HETATM   22  C8  UNL     1      26.682  -1.726  -9.427  1.00  0.00     0.132 C
HETATM   23  C9  UNL     1      27.111  -1.022  -8.153  1.00  0.00     0.033 C
HETATM   24 CL1  UNL     1      27.717  -1.184 -10.797  1.00  0.00    -0.119 Cl
ENDBRANCH   2  22
BRANCH  10  25
HETATM   25  C14 UNL     1      19.150   0.235 -11.288  1.00  0.00     0.179 C
BRANCH  25  26
HETATM   26  C15 UNL     1      18.919   1.698 -11.189  1.00  0.00     0.422 C
HETATM   27  F1  UNL     1      17.723   1.852 -10.436  1.00  0.00    -0.166 F
HETATM   28  F2  UNL     1      19.874   2.421 -10.538  1.00  0.00    -0.166 F
HETATM   29  F3  UNL     1      18.538   2.272 -12.415  1.00  0.00    -0.166 F
ENDBRANCH  25  26
ENDBRANCH  10  25
TORSDOF 6
ENDMDL