MODEL 4
REMARK VINA RESULT: -5.641198111      0.816      1.729
REMARK  6 active torsions:
REMARK  status: ('A' for Active; 'I' for Inactive)
REMARK    1  A    between atoms: N1_2  and  C2_3
REMARK    2  A    between atoms: N1_2  and  C7_11
REMARK    3  A    between atoms: C2_3  and  C3_4
REMARK    4  A    between atoms: C7_11  and  O1_12
REMARK    5  A    between atoms: C7_11  and  C8_14
REMARK    6  A    between atoms: C9_17  and  C10_18
ROOT
HETATM    1  C8  UNL     1      25.588   0.217 -11.077  1.00  0.00     0.090 A
HETATM    2  N4  UNL     1      25.696  -0.239  -9.832  1.00  0.00    -0.353 N
ATOM      3  H4  UNL     1      24.862  -0.629  -9.393  1.00  0.00     0.166 HD
HETATM    4  C9  UNL     1      26.842  -0.218  -9.109  1.00  0.00     0.086 A
HETATM    5  C11 UNL     1      28.001   0.301  -9.663  1.00  0.00     0.062 A
HETATM    6 CL4  UNL     1      29.527   0.370  -8.810  1.00  0.00    -0.082 Cl
HETATM    7  C12 UNL     1      27.931   0.784 -10.952  1.00  0.00     0.052 A
HETATM    8  C13 UNL     1      26.748   0.747 -11.657  1.00  0.00     0.062 A
HETATM    9 CL5  UNL     1      26.757   1.387 -13.292  1.00  0.00    -0.082 Cl
ENDROOT
BRANCH   1  10
HETATM   10  C7  UNL     1      24.342   0.199 -11.840  1.00  0.00     0.409 C
BRANCH  10  11
HETATM   11  N1  UNL     1      23.138  -0.074 -11.096  1.00  0.00     0.123 N
HETATM   12  C1  UNL     1      22.974  -1.549 -11.196  1.00  0.00     0.314 C
BRANCH  11  13
HETATM   13  C2  UNL     1      21.930   0.466 -11.704  1.00  0.00     0.317 C
BRANCH  13  14
HETATM   14  C3  UNL     1      20.793  -0.201 -10.958  1.00  0.00     0.004 A
HETATM   15  C4  UNL     1      20.168   0.269  -9.814  1.00  0.00     0.117 A
HETATM   16  N2  UNL     1      19.215  -0.622  -9.491  1.00  0.00    -0.310 N
HETATM   17  N3  UNL     1      19.186  -1.628 -10.344  1.00  0.00    -0.308 N
ATOM     18  H2  UNL     1      18.593  -0.532  -8.687  1.00  0.00     0.186 HD
HETATM   19  C5  UNL     1      18.280  -2.780 -10.305  1.00  0.00     0.177 C
HETATM   20  C6  UNL     1      20.148  -1.384 -11.250  1.00  0.00     0.120 A
ENDBRANCH  13  14
ENDBRANCH  11  13
ENDBRANCH  10  11
BRANCH  10  21
HETATM   21  O1  UNL     1      24.421  -0.856 -12.797  1.00  0.00    -0.363 OA
ATOM     22  H1  UNL     1      25.122  -0.595 -13.384  1.00  0.00     0.212 HD
ENDBRANCH  10  21
ENDBRANCH   1  10
BRANCH   4  23
HETATM   23  C10 UNL     1      26.908  -0.741  -7.717  1.00  0.00     0.232 C
HETATM   24 CL1  UNL     1      27.854  -2.251  -7.711  1.00  0.00    -0.077 Cl
HETATM   25 CL2  UNL     1      27.623   0.391  -6.578  1.00  0.00    -0.077 Cl
HETATM   26 CL3  UNL     1      25.261  -1.144  -7.128  1.00  0.00    -0.077 Cl
ENDBRANCH   4  23
TORSDOF 6
ENDMDL