MODEL 5
REMARK VINA RESULT: -4.468234902      3.142      4.417
REMARK  7 active torsions:
REMARK  status: ('A' for Active; 'I' for Inactive)
REMARK    1  A    between atoms: C2_2  and  C4_4
REMARK    2  A    between atoms: C4_4  and  N1_5
REMARK    3  A    between atoms: N1_5  and  C5_7
REMARK    4  A    between atoms: C6_10  and  C7_11
REMARK    5  A    between atoms: C8_15  and  C9_16
REMARK    6  A    between atoms: C9_16  and  C10_17
REMARK    7  A    between atoms: C11_21  and  N3_22
ROOT
HETATM    1  C5  UNL     1      23.113  -0.347  -9.771  1.00  0.00     0.680 A
HETATM    2  N2  UNL     1      23.794  -0.738  -8.700  1.00  0.00    -0.186 N
ATOM      3  H2  UNL     1      23.273  -0.941  -7.846  1.00  0.00     0.184 HD
HETATM    4  C6  UNL     1      25.166  -0.885  -8.675  1.00  0.00     0.146 A
HETATM    5  C8  UNL     1      25.840  -0.603  -9.850  1.00  0.00     0.041 A
HETATM    6  C11 UNL     1      25.133  -0.178 -11.001  1.00  0.00     0.131 A
HETATM    7  N4  UNL     1      23.775  -0.074 -10.892  1.00  0.00    -0.176 N
ATOM      8  H4  UNL     1      23.243   0.227 -11.708  1.00  0.00     0.186 HD
ENDROOT
BRANCH   1   9
HETATM    9  N1  UNL     1      21.840  -0.232  -9.745  1.00  0.00    -0.226 N
ATOM     10  H1  UNL     1      21.376  -0.538  -8.890  1.00  0.00     0.177 HD
BRANCH   9  11
HETATM   11  C4  UNL     1      20.994   0.278 -10.779  1.00  0.00     0.142 C
BRANCH  11  12
HETATM   12  C2  UNL     1      19.737   0.838 -10.164  1.00  0.00    -0.004 C
HETATM   13  C1  UNL     1      18.926   1.524 -11.234  1.00  0.00     0.011 C
HETATM   14  C3  UNL     1      18.927  -0.226  -9.501  1.00  0.00     0.011 C
ENDBRANCH  11  12
ENDBRANCH   9  11
ENDBRANCH   1   9
BRANCH   4  15
HETATM   15  C7  UNL     1      25.789  -1.296  -7.409  1.00  0.00     0.434 C
HETATM   16  F1  UNL     1      26.934  -2.039  -7.513  1.00  0.00    -0.165 F
HETATM   17  F2  UNL     1      24.992  -1.451  -6.337  1.00  0.00    -0.165 F
HETATM   18  F3  UNL     1      26.452  -0.015  -7.006  1.00  0.00    -0.165 F
ENDBRANCH   4  15
BRANCH   6  19
HETATM   19  N3  UNL     1      25.709   0.253 -12.220  1.00  0.00    -0.362 N
HETATM   20  C12 UNL     1      26.113  -0.524 -13.344  1.00  0.00     0.150 C
HETATM   21  C13 UNL     1      27.442   0.009 -13.834  1.00  0.00     0.187 C
HETATM   22  O1  UNL     1      27.216   1.290 -14.303  1.00  0.00    -0.388 OA
HETATM   23  C14 UNL     1      26.853   2.171 -13.322  1.00  0.00     0.187 C
HETATM   24  C15 UNL     1      25.833   1.714 -12.357  1.00  0.00     0.150 C
ENDBRANCH   6  19
BRANCH   5  25
HETATM   25  C9  UNL     1      27.272  -0.692  -9.994  1.00  0.00     0.049 C
BRANCH  25  26
HETATM   26  C10 UNL     1      28.268   0.314  -9.626  1.00  0.00     0.208 C
HETATM   27 CL1  UNL     1      29.304   0.931 -10.956  1.00  0.00    -0.079 Cl
HETATM   28 CL2  UNL     1      27.206   1.848  -9.188  1.00  0.00    -0.079 Cl
HETATM   29 CL3  UNL     1      29.254   0.223  -8.200  1.00  0.00    -0.079 Cl
ENDBRANCH  25  26
ENDBRANCH   5  25
TORSDOF 7
ENDMDL