MODEL 1
REMARK VINA RESULT: -7.985926407      0.000      0.000
REMARK  5 active torsions:
REMARK  status: ('A' for Active; 'I' for Inactive)
REMARK    1  A    between atoms: N1_2  and  O1_3
REMARK       I    between atoms: N1_2  and  C2_5
REMARK       I    between atoms: C2_5  and  N3_22
REMARK    2  A    between atoms: N2_6  and  O2_8
REMARK    3  A    between atoms: O2_8  and  C3_9
REMARK    4  A    between atoms: C3_9  and  C4_11
REMARK    5  A    between atoms: N3_22  and  N4_24
ROOT
HETATM    1  O2  UNL     1      22.833  -0.039 -11.148  1.00  0.00    -0.180 OA
ENDROOT
BRANCH   1   2
HETATM    2  N2  UNL     1      21.692   0.607 -10.806  1.00  0.00    -0.084 N
HETATM    3  C2  UNL     1      20.528   0.063 -10.903  1.00  0.00     0.747 C
HETATM    4  N1  UNL     1      19.404   0.845 -10.513  1.00  0.00    -0.071 N
HETATM    5  N3  UNL     1      20.354  -1.256 -11.378  1.00  0.00    -0.068 N
HETATM    6  C1  UNL     1      18.935   0.814  -9.327  1.00  0.00     0.176 C
ATOM      7  H3  UNL     1      20.902  -1.591 -12.170  1.00  0.00     0.212 HD
ATOM      8  H2  UNL     1      21.757   1.564 -10.458  1.00  0.00     0.214 HD
BRANCH   4   9
HETATM    9  O1  UNL     1      18.815   1.659 -11.459  1.00  0.00    -0.270 OA
ATOM     10  H1  UNL     1      18.156   2.289 -11.191  1.00  0.00     0.245 HD
ENDBRANCH   4   9
BRANCH   5  11
HETATM   11  N4  UNL     1      19.432  -2.101 -10.758  1.00  0.00    -0.024 N
HETATM   12  O4  UNL     1      19.670  -2.608  -9.644  1.00  0.00    -0.516 OA
HETATM   13  O5  UNL     1      18.229  -2.413 -11.337  1.00  0.00    -0.516 OA
ENDBRANCH   5  11
ENDBRANCH   1   2
BRANCH   1  14
HETATM   14  C3  UNL     1      23.635  -0.755 -10.273  1.00  0.00     0.319 C
HETATM   15  O3  UNL     1      23.108  -1.687  -9.629  1.00  0.00    -0.257 OA
BRANCH  14  16
HETATM   16  C4  UNL     1      25.046  -0.411 -10.125  1.00  0.00     0.088 A
HETATM   17  C5  UNL     1      25.799  -0.034 -11.216  1.00  0.00     0.075 A
HETATM   18 CL1  UNL     1      25.079   0.041 -12.819  1.00  0.00    -0.081 Cl
HETATM   19  C6  UNL     1      27.124   0.279 -11.014  1.00  0.00     0.080 A
HETATM   20 CL2  UNL     1      28.133   0.764 -12.362  1.00  0.00    -0.081 Cl
HETATM   21  C7  UNL     1      27.702   0.224  -9.764  1.00  0.00     0.081 A
HETATM   22 CL3  UNL     1      29.392   0.620  -9.486  1.00  0.00    -0.081 Cl
HETATM   23  C8  UNL     1      26.961  -0.150  -8.663  1.00  0.00     0.080 A
HETATM   24 CL4  UNL     1      27.673  -0.230  -7.048  1.00  0.00    -0.081 Cl
HETATM   25  C9  UNL     1      25.636  -0.461  -8.879  1.00  0.00     0.075 A
HETATM   26 CL5  UNL     1      24.699  -0.939  -7.466  1.00  0.00    -0.081 Cl
ENDBRANCH  14  16
ENDBRANCH   1  14
TORSDOF 5
ENDMDL