MODEL 3
REMARK VINA RESULT: -6.553545845      1.036      1.719
REMARK  7 active torsions:
REMARK  status: ('A' for Active; 'I' for Inactive)
REMARK    1  A    between atoms: N1_1  and  C1_5
REMARK    2  A    between atoms: C6_10  and  N2_11
REMARK    3  A    between atoms: C8_13  and  C9_14
REMARK    4  A    between atoms: C11_16  and  N3_17
REMARK    5  A    between atoms: C14_20  and  C15_21
REMARK    6  A    between atoms: C17_26  and  C18_27
REMARK    7  A    between atoms: C18_27  and  C19_28
ROOT
HETATM    1  N2  UNL     1      20.910  -1.030  -9.922  1.00  0.00    -0.280 N
HETATM    2  C7  UNL     1      21.842  -0.239 -10.526  1.00  0.00     0.139 A
HETATM    3  C8  UNL     1      23.027  -0.933 -10.633  1.00  0.00     0.050 A
HETATM    4  N4  UNL     1      22.782  -2.136 -10.087  1.00  0.00    -0.288 N
ATOM      5  H4  UNL     1      23.453  -2.899 -10.003  1.00  0.00     0.188 HD
HETATM    6  N5  UNL     1      21.542  -2.164  -9.681  1.00  0.00    -0.240 N
ATOM      7  H5  UNL     1      21.110  -2.970  -9.229  1.00  0.00     0.208 HD
ENDROOT
BRANCH   3   8
HETATM    8  C9  UNL     1      24.318  -0.506 -11.209  1.00  0.00     0.063 A
HETATM    9  C10 UNL     1      24.427   0.626 -12.126  1.00  0.00     0.039 A
HETATM   10  C11 UNL     1      24.891   0.878 -10.741  1.00  0.00     0.094 A
BRANCH  10  11
HETATM   11  N3  UNL     1      26.228   0.839 -10.339  1.00  0.00    -0.383 N
HETATM   12  C12 UNL     1      26.473   1.671  -9.237  1.00  0.00     0.060 C
HETATM   13  C13 UNL     1      27.728   1.381  -8.469  1.00  0.00     0.057 C
HETATM   14  C14 UNL     1      28.521   0.219  -8.935  1.00  0.00     0.100 C
HETATM   15  C16 UNL     1      28.590   0.218 -10.416  1.00  0.00     0.039 C
HETATM   16  C17 UNL     1      27.267   0.396 -11.133  1.00  0.00     0.089 C
BRANCH  14  17
HETATM   17  C15 UNL     1      28.151  -1.108  -8.319  1.00  0.00     0.391 C
HETATM   18  F1  UNL     1      29.024  -2.042  -8.856  1.00  0.00    -0.171 F
HETATM   19  F2  UNL     1      28.376  -1.064  -6.956  1.00  0.00    -0.171 F
HETATM   20  F3  UNL     1      26.866  -1.498  -8.527  1.00  0.00    -0.171 F
ENDBRANCH  14  17
BRANCH  16  21
HETATM   21  C18 UNL     1      27.578   1.106 -12.411  1.00  0.00     0.096 C
BRANCH  21  22
HETATM   22  C19 UNL     1      27.520   0.295 -13.666  1.00  0.00     0.355 C
HETATM   23  F4  UNL     1      26.806   1.007 -14.639  1.00  0.00    -0.214 F
HETATM   24  F5  UNL     1      26.780  -0.864 -13.430  1.00  0.00    -0.214 F
ENDBRANCH  21  22
ENDBRANCH  16  21
ENDBRANCH  10  11
ENDBRANCH   3   8
BRANCH   1  25
HETATM   25  C6  UNL     1      19.537  -0.683  -9.624  1.00  0.00     0.139 C
HETATM   26  C1  UNL     1      18.590  -0.973 -10.761  1.00  0.00     0.208 C
HETATM   27  C2  UNL     1      18.710   0.042 -11.872  1.00  0.00     0.035 C
HETATM   28  C3  UNL     1      18.439   1.432 -11.301  1.00  0.00     0.002 C
HETATM   29  C4  UNL     1      19.562   1.720 -10.329  1.00  0.00     0.002 C
HETATM   30  C5  UNL     1      19.423   0.762  -9.169  1.00  0.00     0.029 C
BRANCH  26  31
HETATM   31  N1  UNL     1      18.816  -2.279 -11.300  1.00  0.00    -0.073 N
ATOM     32  H13 UNL     1      17.966  -2.697 -11.679  1.00  0.00     0.274 HD
ATOM     33  H12 UNL     1      19.358  -2.255 -12.164  1.00  0.00     0.274 HD
ATOM     34  H11 UNL     1      19.250  -2.861 -10.584  1.00  0.00     0.274 HD
ENDBRANCH  26  31
ENDBRANCH   1  25
TORSDOF 7
ENDMDL