MODEL 5
REMARK VINA RESULT: -5.032655341      1.465      1.475
REMARK  4 active torsions:
REMARK  status: ('A' for Active; 'I' for Inactive)
REMARK    1  A    between atoms: C1_2  and  C2_3
REMARK       I    between atoms: C1_2  and  N2_11
REMARK    2  A    between atoms: N3_14  and  C7_15
REMARK    3  A    between atoms: C7_15  and  C8_16
REMARK    4  A    between atoms: C11_20  and  C12_21
ROOT
HETATM    1  O1  UNL     1      27.398   1.002 -11.553  1.00  0.00    -0.266 OA
HETATM    2  C1  UNL     1      26.765   0.537 -10.563  1.00  0.00     0.273 C
HETATM    3  N2  UNL     1      25.379   0.424 -10.687  1.00  0.00    -0.340 N
HETATM    4  C5  UNL     1      24.750   0.851 -11.960  1.00  0.00     0.146 C
HETATM    5  C6  UNL     1      23.817  -0.322 -12.303  1.00  0.00     0.147 C
HETATM    6  N3  UNL     1      22.777  -0.341 -11.364  1.00  0.00    -0.366 N
HETATM    7  C13 UNL     1      23.079  -0.103 -10.013  1.00  0.00     0.083 C
HETATM    8  C14 UNL     1      24.547  -0.080  -9.654  1.00  0.00     0.170 C
ENDROOT
BRANCH   2   9
HETATM    9  C2  UNL     1      27.554   0.156  -9.367  1.00  0.00     0.131 A
HETATM   10  N1  UNL     1      28.224   1.087  -8.687  1.00  0.00    -0.319 N
HETATM   11  S1  UNL     1      28.965   0.269  -7.438  1.00  0.00     0.000 SA
ATOM     12  H1  UNL     1      28.274   2.086  -8.887  1.00  0.00     0.174 HD
HETATM   13  C3  UNL     1      28.411  -1.300  -7.784  1.00  0.00     0.115 A
HETATM   14 CL1  UNL     1      28.735  -2.822  -6.924  1.00  0.00    -0.073 Cl
HETATM   15  C4  UNL     1      27.645  -1.119  -8.897  1.00  0.00     0.096 A
HETATM   16 CL2  UNL     1      26.831  -2.528  -9.648  1.00  0.00    -0.079 Cl
ENDBRANCH   2   9
BRANCH   6  17
HETATM   17  C7  UNL     1      21.556  -0.956 -11.666  1.00  0.00     0.104 C
BRANCH  17  18
HETATM   18  C8  UNL     1      20.414  -0.259 -11.034  1.00  0.00     0.019 A
HETATM   19  C9  UNL     1      20.217   1.076 -10.800  1.00  0.00     0.155 A
HETATM   20  O2  UNL     1      19.076   1.297 -10.175  1.00  0.00    -0.333 OA
HETATM   21  C10 UNL     1      18.517   0.152  -9.987  1.00  0.00     0.158 A
HETATM   22  C11 UNL     1      19.281  -0.869 -10.491  1.00  0.00     0.083 A
BRANCH  22  23
HETATM   23  C12 UNL     1      19.060  -2.328 -10.512  1.00  0.00     0.420 C
HETATM   24  F1  UNL     1      19.369  -2.891 -11.733  1.00  0.00    -0.166 F
HETATM   25  F2  UNL     1      17.766  -2.600 -10.119  1.00  0.00    -0.166 F
HETATM   26  F3  UNL     1      19.893  -2.898  -9.566  1.00  0.00    -0.166 F
ENDBRANCH  22  23
ENDBRANCH  17  18
ENDBRANCH   6  17
TORSDOF 4
ENDMDL