MODEL 2
REMARK VINA RESULT: -7.060659199      0.762      1.687
REMARK  5 active torsions:
REMARK  status: ('A' for Active; 'I' for Inactive)
REMARK    1  A    between atoms: C2_2  and  C3_5
REMARK    2  A    between atoms: C3_5  and  C4_6
REMARK    3  A    between atoms: C3_5  and  C5_8
REMARK    4  A    between atoms: C6_11  and  S1_12
REMARK    5  A    between atoms: S1_12  and  C7_13
ROOT
HETATM    1  C7  UNL     1      21.209   0.477 -10.071  1.00  0.00     0.087 C
HETATM    2  C8  UNL     1      19.902   0.277  -9.993  1.00  0.00     0.131 C
HETATM    3  C9  UNL     1      18.935   1.261  -9.534  1.00  0.00     0.111 C
HETATM    4  N2  UNL     1      18.177   2.053  -9.108  1.00  0.00    -0.191 NA
HETATM    5  C10 UNL     1      19.346  -0.987 -10.393  1.00  0.00     0.111 C
HETATM    6  N3  UNL     1      18.925  -2.013 -10.675  1.00  0.00    -0.191 NA
ENDROOT
BRANCH   1   7
HETATM    7  S1  UNL     1      22.324  -0.707 -10.610  1.00  0.00    -0.064 SA
BRANCH   7   8
HETATM    8  C6  UNL     1      23.994  -0.369 -11.011  1.00  0.00     0.151 A
HETATM    9  N1  UNL     1      25.046  -0.531 -10.182  1.00  0.00    -0.338 N
HETATM   10  C5  UNL     1      26.330  -0.300 -10.516  1.00  0.00     0.045 A
ATOM     11  H1  UNL     1      24.855  -0.850  -9.233  1.00  0.00     0.168 HD
HETATM   12  C12 UNL     1      26.627   0.144 -11.838  1.00  0.00     0.102 A
HETATM   13  C11 UNL     1      25.573   0.305 -12.670  1.00  0.00     0.266 A
HETATM   14 BR1  UNL     1      28.429   0.378 -12.423  1.00  0.00    -0.043 Br
HETATM   15  N4  UNL     1      24.309   0.064 -12.287  1.00  0.00    -0.302 N
HETATM   16  O1  UNL     1      25.836   0.685 -13.844  1.00  0.00    -0.267 OA
ATOM     17  H4  UNL     1      23.555   0.205 -12.959  1.00  0.00     0.171 HD
BRANCH  10  18
HETATM   18  C3  UNL     1      27.493  -0.322  -9.631  1.00  0.00     0.122 C
BRANCH  18  19
HETATM   19  C2  UNL     1      27.802  -1.683  -9.044  1.00  0.00     0.250 C
HETATM   20  C1  UNL     1      27.395  -1.673  -7.554  1.00  0.00     0.091 C
HETATM   21  F1  UNL     1      27.254  -2.683  -9.749  1.00  0.00    -0.206 F
HETATM   22  F2  UNL     1      29.215  -1.766  -9.089  1.00  0.00    -0.206 F
ENDBRANCH  18  19
BRANCH  18  23
HETATM   23  C4  UNL     1      27.228   0.570  -8.349  1.00  0.00     0.131 C
HETATM   24 CL1  UNL     1      27.155   2.266  -8.793  1.00  0.00    -0.130 Cl
ENDBRANCH  18  23
ENDBRANCH  10  18
ENDBRANCH   7   8
ENDBRANCH   1   7
TORSDOF 5
ENDMDL