MODEL 3
REMARK VINA RESULT: -9.362395522      3.523      9.718
REMARK  5 active torsions:
REMARK  status: ('A' for Active; 'I' for Inactive)
REMARK    1  A    between atoms: C3_3  and  C4_4
REMARK       I    between atoms: C4_4  and  N1_6
REMARK    2  A    between atoms: N1_6  and  C5_8
REMARK    3  A    between atoms: C7_10  and  C8_11
REMARK    4  A    between atoms: C8_11  and  C9_12
REMARK    5  A    between atoms: C15_19  and  C16_20
ROOT
HETATM    1  C4  UNL     1      16.952  19.966 -17.045  1.00  0.00     0.263 C
HETATM    2  O1  UNL     1      17.584  19.421 -17.942  1.00  0.00    -0.267 OA
HETATM    3  N1  UNL     1      16.226  19.131 -16.146  1.00  0.00    -0.322 N
ATOM      4  H1  UNL     1      15.630  19.546 -15.431  1.00  0.00     0.169 HD
ENDROOT
BRANCH   3   5
HETATM    5  C5  UNL     1      16.341  17.695 -16.254  1.00  0.00     0.036 A
HETATM    6  C6  UNL     1      15.921  16.974 -17.342  1.00  0.00     0.040 A
HETATM    7  C7  UNL     1      15.913  15.609 -17.367  1.00  0.00    -0.013 A
HETATM    8  C14 UNL     1      16.363  14.982 -16.189  1.00  0.00     0.133 A
HETATM    9  F1  UNL     1      16.389  13.606 -16.131  1.00  0.00    -0.205 F
HETATM   10  C15 UNL     1      16.792  15.653 -15.089  1.00  0.00     0.007 A
HETATM   11  C19 UNL     1      16.784  17.040 -15.117  1.00  0.00     0.044 A
BRANCH   7  12
HETATM   12  C8  UNL     1      15.584  14.707 -18.459  1.00  0.00     0.075 C
BRANCH  12  13
HETATM   13  C9  UNL     1      16.430  14.764 -19.667  1.00  0.00    -0.079 C
HETATM   14  C10 UNL     1      15.989  15.007 -20.925  1.00  0.00    -0.024 C
HETATM   15  C11 UNL     1      17.143  14.982 -21.875  1.00  0.00     0.027 C
HETATM   16  C12 UNL     1      18.236  15.532 -20.927  1.00  0.00     0.008 C
HETATM   17  C13 UNL     1      17.904  14.614 -19.722  1.00  0.00     0.034 C
ENDBRANCH  12  13
ENDBRANCH   7  12
BRANCH  10  18
HETATM   18  C16 UNL     1      17.113  14.903 -13.853  1.00  0.00    -0.074 C
HETATM   19  C17 UNL     1      15.891  14.348 -13.164  1.00  0.00     0.044 C
HETATM   20  C18 UNL     1      18.216  15.385 -13.010  1.00  0.00     0.044 C
ENDBRANCH  10  18
ENDBRANCH   3   5
BRANCH   1  21
HETATM   21  C3  UNL     1      16.989  21.446 -16.971  1.00  0.00     0.082 A
HETATM   22  C2  UNL     1      17.951  22.396 -16.923  1.00  0.00    -0.021 A
HETATM   23  C1  UNL     1      19.417  21.972 -16.852  1.00  0.00     0.051 C
HETATM   24  C21 UNL     1      17.560  23.707 -16.964  1.00  0.00     0.074 A
HETATM   25  C20 UNL     1      16.222  23.948 -17.051  1.00  0.00     0.097 A
HETATM   26  C22 UNL     1      18.364  24.869 -16.951  1.00  0.00     0.264 A
HETATM   27  S1  UNL     1      15.533  22.411 -17.079  1.00  0.00    -0.065 SA
HETATM   28  N3  UNL     1      15.680  25.205 -17.114  1.00  0.00    -0.297 N
HETATM   29  C24 UNL     1      16.456  26.292 -17.095  1.00  0.00     0.331 A
HETATM   30  C25 UNL     1      14.241  25.311 -17.189  1.00  0.00     0.162 C
HETATM   31  N2  UNL     1      17.760  26.073 -17.016  1.00  0.00    -0.270 N
HETATM   32  O3  UNL     1      15.938  27.420 -17.149  1.00  0.00    -0.246 OA
HETATM   33  C23 UNL     1      18.606  27.277 -17.018  1.00  0.00     0.164 C
HETATM   34  O2  UNL     1      19.614  24.863 -16.882  1.00  0.00    -0.267 OA
ENDBRANCH   1  21
TORSDOF 5
ENDMDL