MODEL 3
REMARK VINA RESULT: -8.682940278      1.435      1.983
REMARK  6 active torsions:
REMARK  status: ('A' for Active; 'I' for Inactive)
REMARK    1  A    between atoms: O1_2  and  C2_3
REMARK    2  A    between atoms: C6_8  and  C7_9
REMARK    3  A    between atoms: C11_13  and  O2_14
REMARK    4  A    between atoms: O2_14  and  C12_15
REMARK    5  A    between atoms: C12_15  and  C13_16
REMARK    6  A    between atoms: C13_16  and  C14_17
ROOT
HETATM    1  C14 UNL     1      17.296  20.658 -16.773  1.00  0.00     0.039 C
HETATM    2  C15 UNL     1      16.107  21.607 -16.601  1.00  0.00     0.028 C
HETATM    3  C16 UNL     1      17.734  20.730 -18.178  1.00  0.00    -0.013 C
HETATM    4  C17 UNL     1      18.574  21.680 -18.551  1.00  0.00    -0.018 C
HETATM    5  C18 UNL     1      19.136  22.711 -17.662  1.00  0.00     0.011 C
HETATM    6  C19 UNL     1      20.511  23.136 -18.201  1.00  0.00     0.022 C
HETATM    7  C20 UNL     1      18.319  23.982 -17.620  1.00  0.00     0.022 C
HETATM    8  C21 UNL     1      19.388  22.104 -16.322  1.00  0.00     0.208 C
HETATM    9  C22 UNL     1      20.703  21.418 -16.390  1.00  0.00     0.093 C
HETATM   10  N1  UNL     1      21.719  20.876 -16.458  1.00  0.00    -0.195 NA
HETATM   11  C23 UNL     1      19.436  23.174 -15.310  1.00  0.00     0.093 C
HETATM   12  N2  UNL     1      19.492  24.014 -14.510  1.00  0.00    -0.195 NA
HETATM   13  C24 UNL     1      18.385  21.104 -15.896  1.00  0.00     0.176 C
HETATM   14  O3  UNL     1      18.534  20.672 -14.743  1.00  0.00    -0.294 OA
ENDROOT
BRANCH   1  15
HETATM   15  C13 UNL     1      16.784  19.285 -16.408  1.00  0.00     0.048 C
BRANCH  15  16
HETATM   16  C12 UNL     1      16.257  18.532 -17.618  1.00  0.00     0.177 C
BRANCH  16  17
HETATM   17  O2  UNL     1      17.003  17.379 -17.711  1.00  0.00    -0.348 OA
BRANCH  17  18
HETATM   18  C11 UNL     1      17.053  16.380 -18.624  1.00  0.00     0.109 A
HETATM   19  C2  UNL     1      17.522  16.755 -19.896  1.00  0.00     0.103 A
HETATM   20  C3  UNL     1      17.601  15.787 -20.858  1.00  0.00     0.058 A
HETATM   21  C4  UNL     1      17.229  14.489 -20.573  1.00  0.00     0.014 A
HETATM   22 BR1  UNL     1      17.363  13.184 -21.966  1.00  0.00    -0.051 Br
HETATM   23  C5  UNL     1      16.776  14.161 -19.315  1.00  0.00     0.030 A
HETATM   24  C6  UNL     1      16.675  15.113 -18.288  1.00  0.00    -0.013 A
BRANCH  19  25
HETATM   25  O1  UNL     1      17.889  18.085 -20.142  1.00  0.00    -0.353 OA
HETATM   26  C1  UNL     1      17.250  18.726 -21.226  1.00  0.00     0.210 C
ENDBRANCH  19  25
BRANCH  24  27
HETATM   27  C7  UNL     1      16.211  14.626 -17.001  1.00  0.00    -0.021 C
HETATM   28  C8  UNL     1      15.875  13.127 -17.114  1.00  0.00     0.019 C
HETATM   29  C9  UNL     1      17.353  14.674 -15.971  1.00  0.00     0.019 C
HETATM   30  C10 UNL     1      15.041  15.251 -16.363  1.00  0.00     0.019 C
ENDBRANCH  24  27
ENDBRANCH  17  18
ENDBRANCH  16  17
ENDBRANCH  15  16
ENDBRANCH   1  15
TORSDOF 6
ENDMDL