MODEL 1
REMARK VINA RESULT: -8.956844753      0.000      0.000
REMARK  7 active torsions:
REMARK  status: ('A' for Active; 'I' for Inactive)
REMARK    1  A    between atoms: O1_2  and  C2_3
REMARK    2  A    between atoms: C3_4  and  C4_5
REMARK    3  A    between atoms: C10_12  and  N1_13
REMARK       I    between atoms: N1_13  and  C11_15
REMARK    4  A    between atoms: C11_15  and  O4_17
REMARK    5  A    between atoms: O4_17  and  C12_18
REMARK    6  A    between atoms: C22_28  and  O5_29
REMARK    7  A    between atoms: O5_29  and  C23_30
ROOT
HETATM    1  C4  UNL     1      17.208  21.105 -16.504  1.00  0.00    -0.009 C
HETATM    2  C5  UNL     1      17.616  20.738 -15.089  1.00  0.00     0.015 C
HETATM    3  C6  UNL     1      18.778  21.682 -14.698  1.00  0.00     0.011 C
HETATM    4  C7  UNL     1      18.351  22.812 -15.549  1.00  0.00    -0.032 C
HETATM    5  C8  UNL     1      19.087  23.973 -15.929  1.00  0.00     0.090 C
HETATM    6  C9  UNL     1      18.117  24.772 -16.777  1.00  0.00     0.150 C
HETATM    7  O2  UNL     1      18.603  25.716 -17.374  1.00  0.00    -0.296 OA
HETATM    8  C10 UNL     1      16.647  24.475 -16.916  1.00  0.00     0.160 C
HETATM    9  C16 UNL     1      16.127  23.389 -16.075  1.00  0.00     0.017 C
HETATM   10  C17 UNL     1      17.082  23.250 -14.943  1.00  0.00     0.017 C
HETATM   11  C18 UNL     1      15.968  22.010 -16.583  1.00  0.00     0.021 C
HETATM   12  C19 UNL     1      18.290  21.977 -16.859  1.00  0.00     0.024 C
ENDROOT
BRANCH   1  13
HETATM   13  C3  UNL     1      16.871  19.870 -17.192  1.00  0.00    -0.014 A
HETATM   14  C2  UNL     1      17.132  19.552 -18.493  1.00  0.00     0.099 A
HETATM   15  C25 UNL     1      16.871  18.280 -19.048  1.00  0.00     0.101 A
HETATM   16  C22 UNL     1      16.326  17.275 -18.297  1.00  0.00     0.103 A
HETATM   17 CL1  UNL     1      17.256  18.008 -20.716  1.00  0.00    -0.078 Cl
HETATM   18  C21 UNL     1      16.051  17.567 -16.993  1.00  0.00     0.040 A
HETATM   19  C20 UNL     1      16.310  18.825 -16.442  1.00  0.00     0.013 A
BRANCH  14  20
HETATM   20  O1  UNL     1      17.667  20.505 -19.331  1.00  0.00    -0.354 OA
HETATM   21  C1  UNL     1      19.084  20.410 -19.560  1.00  0.00     0.210 C
ENDBRANCH  14  20
BRANCH  16  22
HETATM   22  O5  UNL     1      16.076  16.022 -18.865  1.00  0.00    -0.277 OA
BRANCH  22  23
HETATM   23  C23 UNL     1      16.353  14.847 -18.150  1.00  0.00     0.260 C
HETATM   24  C24 UNL     1      15.293  13.942 -17.650  1.00  0.00     0.126 C
HETATM   25  O6  UNL     1      17.549  14.532 -17.913  1.00  0.00    -0.265 OA
ENDBRANCH  22  23
ENDBRANCH  16  22
ENDBRANCH   1  13
BRANCH   8  26
HETATM   26  N1  UNL     1      16.019  25.728 -16.448  1.00  0.00    -0.325 N
HETATM   27  C11 UNL     1      14.854  26.269 -17.012  1.00  0.00     0.362 C
HETATM   28  O3  UNL     1      14.293  25.688 -17.961  1.00  0.00    -0.238 OA
ATOM     29  H1  UNL     1      16.457  26.226 -15.673  1.00  0.00     0.165 HD
BRANCH  27  30
HETATM   30  O4  UNL     1      14.315  27.435 -16.537  1.00  0.00    -0.294 OA
BRANCH  30  31
HETATM   31  C12 UNL     1      14.592  28.710 -17.085  1.00  0.00     0.061 C
HETATM   32  C13 UNL     1      15.995  28.803 -17.609  1.00  0.00     0.046 C
HETATM   33  C14 UNL     1      14.422  29.735 -15.992  1.00  0.00     0.046 C
HETATM   34  C15 UNL     1      13.636  29.060 -18.203  1.00  0.00     0.046 C
ENDBRANCH  30  31
ENDBRANCH  27  30
ENDBRANCH   8  26
TORSDOF 7
ENDMDL