MODEL 1
REMARK VINA RESULT: -6.730489391      0.000      0.000
REMARK  6 active torsions:
REMARK  status: ('A' for Active; 'I' for Inactive)
REMARK    1  A    between atoms: C2_2  and  O1_3
REMARK    2  A    between atoms: O1_3  and  C3_4
REMARK    3  A    between atoms: C3_4  and  C4_6
REMARK    4  A    between atoms: C8_11  and  C9_12
REMARK    5  A    between atoms: N3_20  and  C12_21
REMARK    6  A    between atoms: C19_28  and  C20_29
ROOT
HETATM    1  C4  UNL     1      17.332  22.238 -15.796  1.00  0.00     0.183 C
HETATM    2  C5  UNL     1      16.608  22.664 -16.964  1.00  0.00     0.152 C
HETATM    3  O3  UNL     1      16.082  21.981 -17.823  1.00  0.00    -0.296 OA
HETATM    4  C6  UNL     1      16.587  24.166 -16.969  1.00  0.00     0.103 C
HETATM    5  C7  UNL     1      15.613  24.661 -15.991  1.00  0.00     0.024 C
HETATM    6  C8  UNL     1      18.035  24.629 -16.913  1.00  0.00     0.035 C
HETATM    7  N3  UNL     1      19.075  23.782 -16.684  1.00  0.00    -0.367 N
HETATM    8  C19 UNL     1      18.789  22.738 -15.756  1.00  0.00     0.146 C
ENDROOT
BRANCH   6   9
HETATM    9  C9  UNL     1      18.024  25.864 -17.712  1.00  0.00     0.061 A
HETATM   10  C10 UNL     1      17.442  26.099 -18.968  1.00  0.00     0.125 A
HETATM   11  N1  UNL     1      17.523  27.400 -19.310  1.00  0.00    -0.309 N
HETATM   12  N2  UNL     1      18.134  27.987 -18.317  1.00  0.00    -0.276 N
ATOM     13  H1  UNL     1      17.178  27.834 -20.166  1.00  0.00     0.186 HD
HETATM   14  C11 UNL     1      18.451  27.133 -17.352  1.00  0.00     0.216 A
ATOM     15  H2  UNL     1      18.344  28.985 -18.287  1.00  0.00     0.189 HD
HETATM   16  F1  UNL     1      19.124  27.444 -16.245  1.00  0.00    -0.184 F
ENDBRANCH   6   9
BRANCH   7  17
HETATM   17  C12 UNL     1      20.117  23.488 -17.586  1.00  0.00     0.085 C
HETATM   18  C13 UNL     1      19.678  22.917 -18.940  1.00  0.00     0.026 C
HETATM   19  C14 UNL     1      19.282  21.473 -18.888  1.00  0.00     0.006 C
HETATM   20  C15 UNL     1      20.485  20.622 -18.550  1.00  0.00    -0.019 C
HETATM   21  C16 UNL     1      21.514  20.560 -19.603  1.00  0.00     0.010 C
HETATM   22  C17 UNL     1      20.947  21.127 -17.205  1.00  0.00     0.006 C
HETATM   23  C18 UNL     1      21.262  22.630 -17.301  1.00  0.00     0.026 C
ENDBRANCH   7  17
BRANCH   8  24
HETATM   24  C20 UNL     1      18.956  23.006 -14.282  1.00  0.00     0.012 A
HETATM   25  S1  UNL     1      17.805  23.599 -13.136  1.00  0.00    -0.104 SA
HETATM   26  C21 UNL     1      18.781  23.735 -11.759  1.00  0.00     0.051 A
HETATM   27  C22 UNL     1      19.977  23.312 -12.218  1.00  0.00     0.015 A
HETATM   28  C23 UNL     1      20.089  22.933 -13.512  1.00  0.00    -0.046 A
HETATM   29  C24 UNL     1      21.436  22.348 -13.965  1.00  0.00     0.049 C
ENDBRANCH   8  24
BRANCH   1  30
HETATM   30  C3  UNL     1      17.357  20.767 -15.681  1.00  0.00     0.272 C
HETATM   31  O2  UNL     1      16.972  20.334 -14.524  1.00  0.00    -0.264 OA
BRANCH  30  32
HETATM   32  O1  UNL     1      17.706  19.827 -16.592  1.00  0.00    -0.321 OA
BRANCH  32  33
HETATM   33  C2  UNL     1      16.870  18.715 -16.851  1.00  0.00     0.174 C
HETATM   34  C1  UNL     1      16.689  18.353 -18.282  1.00  0.00     0.034 C
ENDBRANCH  32  33
ENDBRANCH  30  32
ENDBRANCH   1  30
TORSDOF 6
ENDMDL