MODEL 2
REMARK VINA RESULT: -9.931145838      1.697      2.306
REMARK  4 active torsions:
REMARK  status: ('A' for Active; 'I' for Inactive)
REMARK    1  A    between atoms: O1_2  and  C2_3
REMARK    2  A    between atoms: C6_8  and  C7_9
REMARK    3  A    between atoms: C7_9  and  N1_10
REMARK    4  A    between atoms: N1_10  and  C8_13
ROOT
HETATM    1  C8  UNL     1      17.368  19.295 -18.030  1.00  0.00     0.200 C
HETATM    2  C9  UNL     1      17.133  19.398 -19.492  1.00  0.00     0.034 C
HETATM    3  C10 UNL     1      18.459  19.756 -20.176  1.00  0.00     0.002 C
HETATM    4  C11 UNL     1      19.324  20.628 -19.261  1.00  0.00     0.007 C
HETATM    5  C12 UNL     1      18.342  21.464 -18.437  1.00  0.00     0.012 C
HETATM    6  C13 UNL     1      18.975  22.756 -18.047  1.00  0.00     0.057 C
HETATM    7  C14 UNL     1      17.933  23.710 -17.485  1.00  0.00     0.018 C
HETATM    8  C15 UNL     1      20.187  22.685 -17.244  1.00  0.00     0.145 C
HETATM    9  O2  UNL     1      21.076  23.447 -17.582  1.00  0.00    -0.297 OA
HETATM   10  C16 UNL     1      20.614  21.870 -16.056  1.00  0.00     0.169 C
HETATM   11  C17 UNL     1      21.709  22.489 -15.304  1.00  0.00     0.271 C
HETATM   12  O3  UNL     1      22.885  22.227 -15.698  1.00  0.00    -0.264 OA
HETATM   13  O4  UNL     1      21.668  23.349 -14.190  1.00  0.00    -0.316 OA
HETATM   14  C18 UNL     1      20.468  23.868 -13.639  1.00  0.00     0.128 C
HETATM   15  C19 UNL     1      20.745  24.990 -12.693  1.00  0.00     0.040 C
HETATM   16  C20 UNL     1      19.753  22.748 -12.930  1.00  0.00     0.033 C
HETATM   17  C21 UNL     1      19.722  21.467 -13.741  1.00  0.00     0.019 C
HETATM   18  C22 UNL     1      19.354  21.753 -15.186  1.00  0.00     0.068 C
HETATM   19  S1  UNL     1      18.394  20.412 -15.848  1.00  0.00    -0.156 SA
HETATM   20  C23 UNL     1      17.638  20.684 -17.410  1.00  0.00     0.083 C
ENDROOT
BRANCH   1  21
HETATM   21  N1  UNL     1      16.426  18.559 -17.266  1.00  0.00    -0.066 N
ATOM     22  H12 UNL     1      15.718  19.167 -16.854  1.00  0.00     0.278 HD
ATOM     23  H11 UNL     1      16.838  18.197 -16.406  1.00  0.00     0.278 HD
BRANCH  21  24
HETATM   24  C7  UNL     1      15.839  17.522 -18.047  1.00  0.00     0.273 C
BRANCH  24  25
HETATM   25  C6  UNL     1      15.948  16.178 -17.366  1.00  0.00    -0.008 A
HETATM   26  C5  UNL     1      16.032  15.096 -18.225  1.00  0.00     0.042 A
HETATM   27  C4  UNL     1      16.139  13.835 -17.682  1.00  0.00     0.027 A
HETATM   28 CL1  UNL     1      16.007  15.274 -19.962  1.00  0.00    -0.084 Cl
HETATM   29  C3  UNL     1      16.160  13.675 -16.314  1.00  0.00     0.038 A
HETATM   30  C2  UNL     1      16.075  14.772 -15.470  1.00  0.00     0.068 A
HETATM   31  C24 UNL     1      15.966  16.052 -15.999  1.00  0.00     0.047 A
BRANCH  30  32
HETATM   32  O1  UNL     1      16.098  14.606 -14.093  1.00  0.00    -0.356 OA
HETATM   33  C1  UNL     1      17.194  15.123 -13.374  1.00  0.00     0.210 C
ENDBRANCH  30  32
ENDBRANCH  24  25
ENDBRANCH  21  24
ENDBRANCH   1  21
TORSDOF 4
ENDMDL