MODEL 1
REMARK VINA RESULT: -7.154042307      0.000      0.000
REMARK  5 active torsions:
REMARK  status: ('A' for Active; 'I' for Inactive)
REMARK    1  A    between atoms: O1_2  and  C2_3
REMARK    2  A    between atoms: C4_5  and  C5_6
REMARK       I    between atoms: C5_6  and  N1_8
REMARK    3  A    between atoms: N1_8  and  C6_10
REMARK    4  A    between atoms: C22_29  and  O3_30
REMARK    5  A    between atoms: C24_32  and  O4_33
ROOT
HETATM    1  C6  UNL     1      17.640  27.874 -18.355  1.00  0.00     0.112 C
HETATM    2  C7  UNL     1      16.215  27.803 -18.652  1.00  0.00     0.055 C
HETATM    3  C8  UNL     1      15.691  29.028 -19.242  1.00  0.00     0.003 C
HETATM    4  C9  UNL     1      14.443  29.264 -19.583  1.00  0.00     0.046 C
HETATM    5  C10 UNL     1      14.223  30.567 -20.143  1.00  0.00     0.097 C
HETATM    6  N2  UNL     1      14.027  31.614 -20.602  1.00  0.00    -0.192 NA
HETATM    7  C11 UNL     1      13.236  28.384 -19.469  1.00  0.00     0.092 C
HETATM    8  C12 UNL     1      13.672  26.932 -19.493  1.00  0.00     0.017 C
HETATM    9  C13 UNL     1      14.194  26.460 -18.168  1.00  0.00     0.007 C
HETATM   10  C14 UNL     1      15.290  27.319 -17.582  1.00  0.00     0.000 C
HETATM   11  C15 UNL     1      14.681  28.370 -16.730  1.00  0.00     0.035 C
HETATM   12  C16 UNL     1      13.221  28.556 -16.950  1.00  0.00     0.012 C
HETATM   13  C17 UNL     1      12.601  28.563 -18.116  1.00  0.00     0.099 C
HETATM   14  F1  UNL     1      11.256  28.749 -18.105  1.00  0.00    -0.210 F
HETATM   15  S1  UNL     1      17.092  30.152 -19.398  1.00  0.00    -0.121 SA
HETATM   16  C18 UNL     1      18.178  29.257 -18.231  1.00  0.00     0.026 C
HETATM   17  C19 UNL     1      18.216  29.841 -16.879  1.00  0.00     0.029 C
HETATM   18  C20 UNL     1      19.593  29.386 -18.819  1.00  0.00     0.029 C
ENDROOT
BRANCH   1  19
HETATM   19  N1  UNL     1      18.025  27.022 -17.245  1.00  0.00    -0.350 N
HETATM   20  C5  UNL     1      18.341  25.646 -17.416  1.00  0.00     0.252 C
HETATM   21  O2  UNL     1      18.272  25.186 -18.601  1.00  0.00    -0.268 OA
ATOM     22  H1  UNL     1      18.070  27.424 -16.309  1.00  0.00     0.163 HD
BRANCH  20  23
HETATM   23  C4  UNL     1      18.728  24.751 -16.358  1.00  0.00     0.037 A
HETATM   24  C3  UNL     1      18.025  23.604 -16.043  1.00  0.00     0.057 A
HETATM   25  C2  UNL     1      18.421  22.758 -15.015  1.00  0.00     0.105 A
HETATM   26  C24 UNL     1      19.550  23.071 -14.285  1.00  0.00     0.135 A
HETATM   27  C22 UNL     1      20.271  24.210 -14.577  1.00  0.00     0.105 A
HETATM   28  C21 UNL     1      19.847  25.021 -15.601  1.00  0.00     0.057 A
BRANCH  25  29
HETATM   29  O1  UNL     1      17.741  21.600 -14.672  1.00  0.00    -0.353 OA
HETATM   30  C1  UNL     1      17.565  20.540 -15.624  1.00  0.00     0.210 C
ENDBRANCH  25  29
BRANCH  26  31
HETATM   31  O4  UNL     1      19.963  22.239 -13.253  1.00  0.00    -0.351 OA
HETATM   32  C25 UNL     1      19.882  22.614 -11.892  1.00  0.00     0.210 C
ENDBRANCH  26  31
BRANCH  27  33
HETATM   33  O3  UNL     1      21.422  24.526 -13.830  1.00  0.00    -0.353 OA
HETATM   34  C23 UNL     1      22.660  23.901 -14.099  1.00  0.00     0.210 C
ENDBRANCH  27  33
ENDBRANCH  20  23
ENDBRANCH   1  19
TORSDOF 5
ENDMDL