MODEL 5
REMARK VINA RESULT: -7.393731674      4.608      8.797
REMARK  9 active torsions:
REMARK  status: ('A' for Active; 'I' for Inactive)
REMARK    1  A    between atoms: N1_4  and  C4_5
REMARK    2  A    between atoms: C4_5  and  C5_6
REMARK    3  A    between atoms: C10_15  and  N3_16
REMARK    4  A    between atoms: N3_16  and  C11_18
REMARK    5  A    between atoms: C11_18  and  O3_30
REMARK       I    between atoms: N4_19  and  C12_21
REMARK    6  A    between atoms: C12_21  and  O2_23
REMARK    7  A    between atoms: O2_23  and  C13_24
REMARK    8  A    between atoms: C13_24  and  C14_25
REMARK    9  A    between atoms: O3_30  and  C19_31
ROOT
HETATM    1  N3  UNL     1      19.253  21.012 -16.515  1.00  0.00    -0.351 N
ATOM      2  H3  UNL     1      19.837  20.217 -16.772  1.00  0.00     0.163 HD
ENDROOT
BRANCH   1   3
HETATM    3  C10 UNL     1      17.817  20.869 -16.654  1.00  0.00     0.092 C
HETATM    4  C2  UNL     1      17.425  19.771 -17.603  1.00  0.00     0.033 C
HETATM    5  C1  UNL     1      17.167  20.312 -19.001  1.00  0.00     0.014 C
HETATM    6  C3  UNL     1      16.224  19.056 -17.059  1.00  0.00     0.279 C
HETATM    7  N1  UNL     1      16.547  18.370 -15.828  1.00  0.00     0.093 N
HETATM    8  C8  UNL     1      17.170  19.218 -14.868  1.00  0.00     0.275 C
HETATM    9  C9  UNL     1      17.129  20.673 -15.350  1.00  0.00     0.056 C
BRANCH   7  10
HETATM   10  C4  UNL     1      17.199  17.150 -16.125  1.00  0.00     0.321 C
BRANCH  10  11
HETATM   11  C5  UNL     1      16.946  16.118 -15.084  1.00  0.00     0.050 A
HETATM   12  S1  UNL     1      17.525  15.945 -13.486  1.00  0.00    -0.084 SA
HETATM   13  C6  UNL     1      16.713  14.501 -13.069  1.00  0.00     0.139 A
HETATM   14  N2  UNL     1      16.042  14.231 -14.178  1.00  0.00    -0.350 N
HETATM   15  C7  UNL     1      16.136  15.017 -15.202  1.00  0.00     0.118 A
ATOM     16  H2  UNL     1      15.449  13.401 -14.226  1.00  0.00     0.166 HD
HETATM   17 CL1  UNL     1      15.244  14.686 -16.719  1.00  0.00    -0.063 Cl
ENDBRANCH  10  11
ENDBRANCH   7  10
ENDBRANCH   1   3
BRANCH   1  18
HETATM   18  C11 UNL     1      19.898  22.185 -16.046  1.00  0.00     0.224 C
HETATM   19  N4  UNL     1      20.043  23.218 -16.804  1.00  0.00    -0.268 N
HETATM   20  C12 UNL     1      19.532  23.140 -18.128  1.00  0.00     0.367 C
ATOM     21  H4  UNL     1      20.507  24.060 -16.466  1.00  0.00     0.174 HD
HETATM   22  O1  UNL     1      20.101  22.392 -18.969  1.00  0.00    -0.238 OA
BRANCH  20  23
HETATM   23  O2  UNL     1      18.433  23.847 -18.554  1.00  0.00    -0.303 OA
BRANCH  23  24
HETATM   24  C13 UNL     1      18.222  25.218 -18.430  1.00  0.00     0.185 C
BRANCH  24  25
HETATM   25  C14 UNL     1      17.738  25.666 -17.090  1.00  0.00     0.010 C
HETATM   26  C15 UNL     1      17.151  27.062 -17.209  1.00  0.00     0.007 C
HETATM   27  C16 UNL     1      15.837  26.831 -17.942  1.00  0.00     0.000 C
HETATM   28  C17 UNL     1      15.337  25.536 -17.385  1.00  0.00     0.000 C
HETATM   29  C18 UNL     1      16.491  24.881 -16.660  1.00  0.00     0.007 C
ENDBRANCH  24  25
ENDBRANCH  23  24
ENDBRANCH  20  23
BRANCH  18  30
HETATM   30  O3  UNL     1      20.408  22.297 -14.759  1.00  0.00    -0.312 OA
BRANCH  30  31
HETATM   31  C19 UNL     1      19.962  23.236 -13.833  1.00  0.00     0.060 C
HETATM   32  C20 UNL     1      20.668  24.548 -13.839  1.00  0.00     0.046 C
HETATM   33  C21 UNL     1      20.164  22.589 -12.452  1.00  0.00     0.046 C
HETATM   34  C22 UNL     1      18.468  23.489 -13.933  1.00  0.00     0.046 C
ENDBRANCH  30  31
ENDBRANCH  18  30
ENDBRANCH   1  18
TORSDOF 9
ENDMDL