MODEL 2
REMARK VINA RESULT: -9.476632967      0.500      1.539
REMARK  6 active torsions:
REMARK  status: ('A' for Active; 'I' for Inactive)
REMARK    1  A    between atoms: C3_6  and  C4_7
REMARK    2  A    between atoms: C4_7  and  N2_8
REMARK    3  A    between atoms: C5_13  and  C6_14
REMARK    4  A    between atoms: C6_14  and  N5_15
REMARK    5  A    between atoms: N5_15  and  C7_18
REMARK    6  A    between atoms: C18_30  and  C19_31
ROOT
HETATM    1  N2  UNL     1      17.364  20.581 -18.293  1.00  0.00    -0.263 N
HETATM    2  N3  UNL     1      16.464  21.249 -17.631  1.00  0.00    -0.239 N
ATOM      3  H3  UNL     1      15.540  20.889 -17.395  1.00  0.00     0.208 HD
HETATM    4  N4  UNL     1      16.898  22.459 -17.303  1.00  0.00    -0.286 N
ATOM      5  H4  UNL     1      16.375  23.165 -16.786  1.00  0.00     0.188 HD
HETATM    6  C5  UNL     1      18.173  22.592 -17.781  1.00  0.00     0.088 A
HETATM    7  C17 UNL     1      18.458  21.412 -18.400  1.00  0.00     0.124 A
HETATM    8 BR1  UNL     1      20.084  20.952 -19.261  1.00  0.00    -0.027 Br
ENDROOT
BRANCH   6   9
HETATM    9  C6  UNL     1      19.075  23.778 -17.594  1.00  0.00     0.294 C
BRANCH   9  10
HETATM   10  N5  UNL     1      18.872  24.326 -16.272  1.00  0.00    -0.061 N
ATOM     11  H52 UNL     1      18.857  25.346 -16.308  1.00  0.00     0.278 HD
ATOM     12  H51 UNL     1      17.919  24.149 -15.955  1.00  0.00     0.278 HD
BRANCH  10  13
HETATM   13  C7  UNL     1      19.818  23.874 -15.291  1.00  0.00     0.127 C
HETATM   14  C8  UNL     1      20.380  24.975 -14.423  1.00  0.00     0.043 C
HETATM   15  C9  UNL     1      21.423  24.363 -13.509  1.00  0.00    -0.012 C
HETATM   16  C10 UNL     1      22.544  23.680 -14.246  1.00  0.00     0.009 C
HETATM   17  C14 UNL     1      20.808  23.341 -12.574  1.00  0.00     0.009 C
HETATM   18  C11 UNL     1      21.943  22.567 -15.063  1.00  0.00    -0.012 C
HETATM   19  C12 UNL     1      21.214  21.544 -14.237  1.00  0.00     0.009 C
HETATM   20  C16 UNL     1      20.941  23.191 -16.010  1.00  0.00     0.043 C
HETATM   21  C13 UNL     1      20.159  22.268 -13.432  1.00  0.00    -0.012 C
HETATM   22  C15 UNL     1      19.132  22.924 -14.301  1.00  0.00     0.043 C
ENDBRANCH  10  13
ENDBRANCH   9  10
ENDBRANCH   6   9
BRANCH   1  23
HETATM   23  C4  UNL     1      17.278  19.264 -18.890  1.00  0.00     0.219 C
BRANCH  23  24
HETATM   24  C3  UNL     1      16.883  18.228 -17.927  1.00  0.00     0.105 A
HETATM   25  O1  UNL     1      16.704  18.641 -16.634  1.00  0.00    -0.240 OA
HETATM   26  N1  UNL     1      16.349  17.662 -15.917  1.00  0.00    -0.265 N
HETATM   27  C2  UNL     1      16.265  16.537 -16.639  1.00  0.00     0.038 A
ATOM     28  H1  UNL     1      16.153  17.722 -14.918  1.00  0.00     0.194 HD
HETATM   29  C1  UNL     1      15.917  15.175 -16.208  1.00  0.00     0.071 C
HETATM   30  C18 UNL     1      16.616  16.902 -17.959  1.00  0.00     0.007 A
BRANCH  30  31
HETATM   31  C19 UNL     1      16.634  15.970 -19.063  1.00  0.00    -0.020 C
HETATM   32  C20 UNL     1      18.087  15.494 -19.368  1.00  0.00     0.019 C
HETATM   33  C21 UNL     1      15.770  14.753 -18.981  1.00  0.00     0.019 C
HETATM   34  C22 UNL     1      16.280  16.621 -20.438  1.00  0.00     0.019 C
ENDBRANCH  30  31
ENDBRANCH  23  24
ENDBRANCH   1  23
TORSDOF 6
ENDMDL