MODEL 2
REMARK VINA RESULT: -7.325597041      3.276      8.042
REMARK  6 active torsions:
REMARK  status: ('A' for Active; 'I' for Inactive)
REMARK    1  A    between atoms: C6_6  and  N1_7
REMARK    2  A    between atoms: C7_10  and  O3_11
REMARK    3  A    between atoms: O3_11  and  C8_12
REMARK    4  A    between atoms: C11_16  and  C12_17
REMARK    5  A    between atoms: C12_17  and  C13_18
REMARK    6  A    between atoms: C13_18  and  N2_19
ROOT
HETATM    1  C13 UNL     1      17.944  16.257 -21.537  1.00  0.00     0.293 C
HETATM    2  C14 UNL     1      18.570  15.458 -20.455  1.00  0.00     0.092 C
HETATM    3  N3  UNL     1      19.053  14.838 -19.607  1.00  0.00    -0.195 NA
ENDROOT
BRANCH   1   4
HETATM    4  C12 UNL     1      16.807  16.994 -20.922  1.00  0.00     0.087 C
BRANCH   4   5
HETATM    5  C11 UNL     1      17.161  17.902 -19.817  1.00  0.00    -0.045 A
HETATM    6  C10 UNL     1      18.005  18.979 -20.035  1.00  0.00     0.029 A
HETATM    7  C9  UNL     1      18.350  19.853 -19.032  1.00  0.00     0.045 A
HETATM    8  C8  UNL     1      17.811  19.613 -17.763  1.00  0.00     0.101 A
HETATM    9 BR1  UNL     1      19.520  21.333 -19.370  1.00  0.00    -0.048 Br
HETATM   10  C16 UNL     1      16.977  18.561 -17.507  1.00  0.00    -0.004 A
HETATM   11  C15 UNL     1      16.646  17.692 -18.547  1.00  0.00    -0.018 A
HETATM   12  C17 UNL     1      16.391  18.170 -16.228  1.00  0.00     0.004 C
HETATM   13  C21 UNL     1      15.757  16.532 -18.333  1.00  0.00     0.207 C
HETATM   14  O4  UNL     1      15.706  16.090 -17.021  1.00  0.00    -0.386 OA
HETATM   15  C20 UNL     1      16.640  16.637 -16.175  1.00  0.00     0.181 C
HETATM   16  C18 UNL     1      14.888  18.311 -16.298  1.00  0.00     0.022 C
HETATM   17  C19 UNL     1      16.896  18.792 -14.995  1.00  0.00     0.022 C
BRANCH   8  18
HETATM   18  O3  UNL     1      18.144  20.453 -16.777  1.00  0.00    -0.306 OA
BRANCH  18  19
HETATM   19  C7  UNL     1      18.055  21.769 -16.519  1.00  0.00     0.110 A
HETATM   20  C6  UNL     1      19.036  22.559 -16.002  1.00  0.00     0.142 A
HETATM   21  C4  UNL     1      18.825  23.931 -15.771  1.00  0.00    -0.026 A
HETATM   22  C3  UNL     1      17.607  24.493 -16.072  1.00  0.00     0.016 A
HETATM   23  C5  UNL     1      19.896  24.797 -15.204  1.00  0.00     0.050 C
HETATM   24  C2  UNL     1      16.586  23.735 -16.595  1.00  0.00    -0.059 A
HETATM   25  C1  UNL     1      15.296  24.380 -16.901  1.00  0.00     0.048 C
HETATM   26  C22 UNL     1      16.819  22.418 -16.805  1.00  0.00     0.046 A
BRANCH  20  27
HETATM   27  N1  UNL     1      20.348  22.099 -15.629  1.00  0.00    -0.112 N
HETATM   28  O1  UNL     1      20.415  21.566 -14.506  1.00  0.00    -0.532 OA
HETATM   29  O2  UNL     1      21.452  22.183 -16.395  1.00  0.00    -0.532 OA
ENDBRANCH  20  27
ENDBRANCH  18  19
ENDBRANCH   8  18
ENDBRANCH   4   5
ENDBRANCH   1   4
BRANCH   1  30
HETATM   30  N2  UNL     1      17.343  15.260 -22.445  1.00  0.00    -0.062 N
ATOM     31  H23 UNL     1      16.404  14.972 -22.169  1.00  0.00     0.275 HD
ATOM     32  H22 UNL     1      17.093  15.641 -23.358  1.00  0.00     0.275 HD
ATOM     33  H21 UNL     1      18.007  14.487 -22.496  1.00  0.00     0.275 HD
ENDBRANCH   1  30
TORSDOF 6
ENDMDL