MODEL 2
REMARK VINA RESULT: -8.927966701      3.553      3.982
REMARK  9 active torsions:
REMARK  status: ('A' for Active; 'I' for Inactive)
REMARK    1  A    between atoms: C3_3  and  C4_4
REMARK    2  A    between atoms: C4_4  and  O2_6
REMARK    3  A    between atoms: O2_6  and  C5_7
REMARK    4  A    between atoms: C9_11  and  O3_12
REMARK    5  A    between atoms: O3_12  and  C10_13
REMARK    6  A    between atoms: C10_13  and  C11_15
REMARK    7  A    between atoms: C11_15  and  S1_16
REMARK    8  A    between atoms: S1_16  and  C12_17
REMARK    9  A    between atoms: C16_24  and  C17_25
ROOT
HETATM    1  C1  UNL     1      22.799  11.172 -20.197  1.00  0.00     0.112 C
HETATM    2  C2  UNL     1      21.683  11.780 -20.933  1.00  0.00    -0.100 C
HETATM    3  C3  UNL     1      20.766  12.293 -21.523  1.00  0.00     0.002 C
ENDROOT
BRANCH   3   4
HETATM    4  C4  UNL     1      19.655  12.914 -22.211  1.00  0.00     0.339 C
HETATM    5  O1  UNL     1      19.802  13.352 -23.404  1.00  0.00    -0.249 OA
BRANCH   4   6
HETATM    6  O2  UNL     1      18.411  13.079 -21.674  1.00  0.00    -0.300 OA
BRANCH   6   7
HETATM    7  C5  UNL     1      17.796  14.228 -21.221  1.00  0.00     0.068 C
HETATM    8  C6  UNL     1      17.012  14.808 -22.406  1.00  0.00     0.047 C
HETATM    9  C7  UNL     1      18.694  15.310 -20.704  1.00  0.00     0.041 C
HETATM   10  C8  UNL     1      17.915  16.594 -20.660  1.00  0.00     0.035 C
HETATM   11  C9  UNL     1      16.670  16.492 -19.862  1.00  0.00     0.132 C
HETATM   12  C23 UNL     1      16.023  15.168 -19.711  1.00  0.00     0.035 C
HETATM   13  C24 UNL     1      16.774  13.965 -20.148  1.00  0.00     0.041 C
BRANCH  11  14
HETATM   14  O3  UNL     1      16.842  17.007 -18.526  1.00  0.00    -0.315 OA
BRANCH  14  15
HETATM   15  C10 UNL     1      16.677  16.226 -17.391  1.00  0.00     0.269 C
HETATM   16  O4  UNL     1      17.382  15.201 -17.298  1.00  0.00    -0.264 OA
BRANCH  15  17
HETATM   17  C11 UNL     1      15.702  16.599 -16.339  1.00  0.00     0.193 C
BRANCH  17  18
HETATM   18  S1  UNL     1      15.149  18.299 -16.600  1.00  0.00    -0.084 SA
BRANCH  18  19
HETATM   19  C12 UNL     1      16.494  19.434 -16.318  1.00  0.00     0.145 A
HETATM   20  N1  UNL     1      17.499  19.677 -17.182  1.00  0.00    -0.335 N
HETATM   21  C13 UNL     1      18.286  20.590 -16.590  1.00  0.00     0.062 A
ATOM     22  H1  UNL     1      17.636  19.253 -18.100  1.00  0.00     0.168 HD
HETATM   23  C14 UNL     1      19.466  21.223 -16.994  1.00  0.00     0.056 A
HETATM   24  C22 UNL     1      17.782  20.927 -15.353  1.00  0.00     0.061 A
HETATM   25  C15 UNL     1      20.083  22.142 -16.176  1.00  0.00     0.043 A
HETATM   26 CL1  UNL     1      21.565  22.911 -16.728  1.00  0.00    -0.084 Cl
HETATM   27  C16 UNL     1      19.529  22.443 -14.935  1.00  0.00    -0.026 A
HETATM   28  C21 UNL     1      18.381  21.843 -14.516  1.00  0.00     0.041 A
HETATM   29  N2  UNL     1      16.651  20.177 -15.214  1.00  0.00    -0.335 N
ATOM     30  H2  UNL     1      16.028  20.181 -14.406  1.00  0.00     0.168 HD
BRANCH  27  31
HETATM   31  C17 UNL     1      20.209  23.431 -14.052  1.00  0.00    -0.022 C
HETATM   32  C18 UNL     1      20.270  24.802 -14.648  1.00  0.00     0.019 C
HETATM   33  C19 UNL     1      19.391  23.561 -12.752  1.00  0.00     0.019 C
HETATM   34  C20 UNL     1      21.548  22.877 -13.632  1.00  0.00     0.019 C
ENDBRANCH  27  31
ENDBRANCH  18  19
ENDBRANCH  17  18
ENDBRANCH  15  17
ENDBRANCH  14  15
ENDBRANCH  11  14
ENDBRANCH   6   7
ENDBRANCH   4   6
ENDBRANCH   3   4
TORSDOF 9
ENDMDL