MODEL 2
REMARK VINA RESULT: -1.836144071      2.649      7.889
REMARK  3 active torsions:
REMARK  status: ('A' for Active; 'I' for Inactive)
REMARK    1  A    between atoms: C6_7  and  N2_8
REMARK    2  A    between atoms: C18_29  and  N8_30
REMARK    3  A    between atoms: N8_30  and  C19_32
ROOT
HETATM    1  C1  UNL     1      23.438  46.628  17.561  1.00  0.00     0.052 C
HETATM    2  C2  UNL     1      23.313  45.139  17.484  1.00  0.00    -0.014 A
HETATM    3  C3  UNL     1      24.159  44.362  18.245  1.00  0.00     0.054 A
HETATM    4  C4  UNL     1      25.134  45.024  19.084  1.00  0.00     0.100 C
HETATM    5  N1  UNL     1      25.911  45.540  19.769  1.00  0.00    -0.191 NA
HETATM    6  C5  UNL     1      24.051  42.990  18.182  1.00  0.00     0.052 A
HETATM    7  C6  UNL     1      23.127  42.345  17.388  1.00  0.00     0.037 A
HETATM    8  C17 UNL     1      22.284  43.127  16.630  1.00  0.00     0.059 A
HETATM    9  C18 UNL     1      22.367  44.522  16.670  1.00  0.00     0.043 A
ENDROOT
BRANCH   9  10
HETATM   10  N8  UNL     1      21.523  45.335  15.918  1.00  0.00    -0.339 N
ATOM     11  H8  UNL     1      21.822  46.307  15.835  1.00  0.00     0.167 HD
BRANCH  10  12
HETATM   12  C19 UNL     1      20.441  45.056  15.321  1.00  0.00     0.145 A
HETATM   13  N9  UNL     1      19.322  45.062  16.112  1.00  0.00    -0.350 N
HETATM   14  C20 UNL     1      18.129  44.778  15.572  1.00  0.00     0.090 A
ATOM     15  H9  UNL     1      19.396  45.282  17.106  1.00  0.00     0.166 HD
HETATM   16  C21 UNL     1      18.016  44.478  14.220  1.00  0.00     0.020 A
HETATM   17  C22 UNL     1      19.145  44.475  13.432  1.00  0.00     0.047 A
HETATM   18  C23 UNL     1      20.382  44.768  13.989  1.00  0.00     0.160 A
HETATM   19  F1  UNL     1      21.508  44.767  13.216  1.00  0.00    -0.202 F
ENDBRANCH  10  12
ENDBRANCH   9  10
BRANCH   7  20
HETATM   20  N2  UNL     1      23.090  40.927  17.388  1.00  0.00    -0.340 N
HETATM   21  C7  UNL     1      22.500  40.199  18.223  1.00  0.00     0.136 A
HETATM   22  N3  UNL     1      21.809  40.780  19.252  1.00  0.00    -0.337 N
HETATM   23  C14 UNL     1      22.523  38.841  18.138  1.00  0.00     0.108 A
HETATM   24  C8  UNL     1      21.160  40.044  20.170  1.00  0.00     0.182 A
ATOM     25  H3  UNL     1      21.785  41.798  19.324  1.00  0.00     0.168 HD
HETATM   26  N4  UNL     1      21.156  38.701  20.127  1.00  0.00    -0.348 N
HETATM   27  C9  UNL     1      21.839  38.117  19.108  1.00  0.00     0.093 A
ATOM     28  H4  UNL     1      20.662  38.146  20.826  1.00  0.00     0.167 HD
HETATM   29  C10 UNL     1      21.822  36.752  19.083  1.00  0.00     0.092 A
HETATM   30  C11 UNL     1      22.505  36.130  18.064  1.00  0.00     0.078 A
HETATM   31  N7  UNL     1      21.246  35.833  19.888  1.00  0.00    -0.344 N
HETATM   32  C12 UNL     1      23.168  36.883  17.125  1.00  0.00     0.122 A
HETATM   33  N6  UNL     1      22.336  34.810  18.261  1.00  0.00    -0.349 N
HETATM   34  N5  UNL     1      23.203  38.245  17.124  1.00  0.00    -0.354 N
HETATM   35  C13 UNL     1      23.908  38.985  16.124  1.00  0.00     0.156 C
HETATM   36  C15 UNL     1      21.567  34.635  19.376  1.00  0.00     0.183 A
ATOM     37  H6  UNL     1      22.719  34.066  17.677  1.00  0.00     0.166 HD
HETATM   38  C16 UNL     1      20.435  36.102  21.081  1.00  0.00     0.157 C
ATOM     39  H2  UNL     1      23.592  40.453  16.638  1.00  0.00     0.167 HD
ENDBRANCH   7  20
TORSDOF 3
ENDMDL