MODEL 2
REMARK VINA RESULT: -8.172573808      1.354      1.732
REMARK  4 active torsions:
REMARK  status: ('A' for Active; 'I' for Inactive)
REMARK    1  A    between atoms: C6_7  and  S2_8
REMARK    2  A    between atoms: S2_8  and  N1_11
REMARK    3  A    between atoms: N1_11  and  C7_13
REMARK    4  A    between atoms: C15_27  and  N5_28
ROOT
HETATM    1  S2  UNL     1      23.245  43.680  17.448  1.00  0.00     0.276 S
HETATM    2  O1  UNL     1      23.249  43.448  15.955  1.00  0.00    -0.200 OA
HETATM    3  O2  UNL     1      24.533  44.422  17.778  1.00  0.00    -0.200 OA
ENDROOT
BRANCH   1   4
HETATM    4  C6  UNL     1      23.367  42.125  18.238  1.00  0.00     0.081 A
HETATM    5  C5  UNL     1      24.013  42.049  19.462  1.00  0.00     0.027 A
HETATM    6  C4  UNL     1      24.125  40.835  20.110  1.00  0.00     0.021 A
HETATM    7  C3  UNL     1      23.579  39.735  19.497  1.00  0.00     0.018 A
HETATM    8  S1  UNL     1      23.579  38.031  20.114  1.00  0.00    -0.088 SA
HETATM    9  C14 UNL     1      22.934  39.730  18.303  1.00  0.00     0.010 A
HETATM   10  C2  UNL     1      22.696  37.367  18.717  1.00  0.00     0.023 A
HETATM   11  C1  UNL     1      22.367  36.106  18.564  1.00  0.00     0.034 C
HETATM   12  C15 UNL     1      22.438  38.466  17.838  1.00  0.00     0.054 A
HETATM   13  C13 UNL     1      22.842  40.985  17.678  1.00  0.00     0.040 A
BRANCH  12  14
HETATM   14  N5  UNL     1      21.798  38.265  16.725  1.00  0.00    -0.397 N
ATOM     15  H52 UNL     1      20.819  37.992  16.642  1.00  0.00     0.156 HD
ATOM     16  H51 UNL     1      22.282  38.379  15.834  1.00  0.00     0.156 HD
ENDBRANCH  12  14
ENDBRANCH   1   4
BRANCH   1  17
HETATM   17  N1  UNL     1      21.867  44.557  17.925  1.00  0.00    -0.110 N
ATOM     18  H1  UNL     1      21.540  44.549  18.891  1.00  0.00     0.197 HD
BRANCH  17  19
HETATM   19  C7  UNL     1      21.245  45.243  16.999  1.00  0.00     0.714 A
HETATM   20  N2  UNL     1      21.425  46.521  16.638  1.00  0.00    -0.129 N
HETATM   21  N3  UNL     1      20.597  46.839  15.658  1.00  0.00    -0.270 N
ATOM     22  H2  UNL     1      22.103  47.158  17.059  1.00  0.00     0.205 HD
HETATM   23  C8  UNL     1      19.868  45.754  15.374  1.00  0.00     0.143 A
ATOM     24  H3  UNL     1      20.528  47.747  15.200  1.00  0.00     0.189 HD
HETATM   25  C9  UNL     1      18.855  45.481  14.455  1.00  0.00     0.052 A
HETATM   26  N4  UNL     1      20.263  44.767  16.197  1.00  0.00    -0.139 N
HETATM   27  C10 UNL     1      18.258  44.241  14.373  1.00  0.00     0.024 A
HETATM   28  C11 UNL     1      18.686  43.264  15.226  1.00  0.00     0.027 A
HETATM   29 BR1  UNL     1      17.891  41.528  15.151  1.00  0.00    -0.050 Br
HETATM   30  C12 UNL     1      19.680  43.547  16.120  1.00  0.00     0.136 A
ENDBRANCH  17  19
ENDBRANCH   1  17
TORSDOF 4
ENDMDL