MODEL 3
REMARK VINA RESULT: -5.986220705      3.250      8.040
REMARK  2 active torsions:
REMARK  status: ('A' for Active; 'I' for Inactive)
REMARK    1  A    between atoms: C6_12  and  N4_13
REMARK    2  A    between atoms: C9_19  and  N6_20
ROOT
HETATM    1  N1  UNL     1      21.408  47.840  18.199  1.00  0.00    -0.172 NA
HETATM    2  C1  UNL     1      20.824  47.360  17.330  1.00  0.00     0.183 C
HETATM    3  N2  UNL     1      20.129  46.825  16.300  1.00  0.00    -0.279 N
ATOM      4  H2  UNL     1      19.588  47.506  15.768  1.00  0.00     0.179 HD
HETATM    5  C2  UNL     1      20.022  45.634  15.873  1.00  0.00     0.128 A
HETATM    6  N3  UNL     1      19.193  45.323  14.725  1.00  0.00    -0.308 N
ATOM      7  H3  UNL     1      18.644  45.983  14.175  1.00  0.00     0.170 HD
HETATM    8  C3  UNL     1      19.289  43.935  14.513  1.00  0.00     0.258 A
HETATM    9  O1  UNL     1      18.702  43.275  13.594  1.00  0.00    -0.267 OA
HETATM   10  C4  UNL     1      20.176  43.392  15.527  1.00  0.00     0.048 A
HETATM   11  C5  UNL     1      20.584  42.095  15.740  1.00  0.00     0.048 A
HETATM   12  C6  UNL     1      21.441  41.771  16.769  1.00  0.00     0.045 A
HETATM   13  C14 UNL     1      21.880  42.807  17.588  1.00  0.00     0.031 A
HETATM   14  C15 UNL     1      21.482  44.106  17.389  1.00  0.00     0.018 A
HETATM   15  C16 UNL     1      20.628  44.411  16.359  1.00  0.00     0.025 A
ENDROOT
BRANCH  12  16
HETATM   16  N4  UNL     1      21.861  40.447  16.991  1.00  0.00    -0.262 N
HETATM   17  C7  UNL     1      22.664  39.656  16.281  1.00  0.00     0.332 A
HETATM   18  O2  UNL     1      23.212  40.018  15.208  1.00  0.00    -0.246 OA
HETATM   19  N5  UNL     1      22.807  38.450  16.851  1.00  0.00    -0.304 N
HETATM   20  C8  UNL     1      22.058  38.450  17.994  1.00  0.00     0.098 A
ATOM     21  H5  UNL     1      23.370  37.676  16.498  1.00  0.00     0.171 HD
HETATM   22  C9  UNL     1      21.840  37.479  18.962  1.00  0.00     0.149 A
HETATM   23  C13 UNL     1      21.477  39.697  18.068  1.00  0.00     0.073 A
HETATM   24  C10 UNL     1      21.021  37.738  20.044  1.00  0.00     0.046 A
HETATM   25 BR1  UNL     1      20.704  36.418  21.390  1.00  0.00    -0.048 Br
HETATM   26  C11 UNL     1      20.445  38.991  20.106  1.00  0.00     0.024 A
HETATM   27  C12 UNL     1      20.655  39.961  19.150  1.00  0.00     0.034 A
BRANCH  22  28
HETATM   28  N6  UNL     1      22.462  36.216  18.834  1.00  0.00    -0.112 N
HETATM   29  O3  UNL     1      23.664  36.107  19.074  1.00  0.00    -0.532 OA
HETATM   30  O4  UNL     1      21.755  35.106  18.448  1.00  0.00    -0.532 OA
ENDBRANCH  22  28
ENDBRANCH  12  16
TORSDOF 2
ENDMDL