MODEL 5
REMARK VINA RESULT: -6.753462850      2.123      2.599
REMARK  6 active torsions:
REMARK  status: ('A' for Active; 'I' for Inactive)
REMARK    1  A    between atoms: C5_9  and  C6_10
REMARK    2  A    between atoms: C7_11  and  C8_12
REMARK    3  A    between atoms: C11_15  and  N3_16
REMARK    4  A    between atoms: N3_16  and  C12_18
REMARK    5  A    between atoms: C12_18  and  C14_20
REMARK    6  A    between atoms: C20_33  and  N7_34
ROOT
HETATM    1  C8  UNL     1      21.732  41.393  15.273  1.00  0.00     0.071 C
HETATM    2  C9  UNL     1      20.876  42.428  15.654  1.00  0.00     0.004 C
HETATM    3  C10 UNL     1      19.799  42.014  16.558  1.00  0.00     0.054 C
HETATM    4  C11 UNL     1      20.916  43.774  15.276  1.00  0.00     0.110 C
HETATM    5  N5  UNL     1      21.118  44.107  13.934  1.00  0.00    -0.338 N
ATOM      6  H5  UNL     1      20.542  44.851  13.542  1.00  0.00     0.168 HD
HETATM    7  C19 UNL     1      22.014  43.521  13.122  1.00  0.00     0.183 C
HETATM    8  N6  UNL     1      22.626  42.303  13.174  1.00  0.00    -0.338 N
ATOM      9  H6  UNL     1      23.261  42.086  12.407  1.00  0.00     0.168 HD
HETATM   10  C20 UNL     1      22.488  41.341  14.131  1.00  0.00     0.119 C
ENDROOT
BRANCH   4  11
HETATM   11  N3  UNL     1      20.793  44.662  16.085  1.00  0.00    -0.366 N
ATOM     12  H3  UNL     1      20.100  45.323  15.731  1.00  0.00     0.161 HD
BRANCH  11  13
HETATM   13  C12 UNL     1      21.237  45.118  17.307  1.00  0.00     0.129 C
HETATM   14  C13 UNL     1      20.079  45.510  18.253  1.00  0.00     0.039 C
BRANCH  13  15
HETATM   15  C14 UNL     1      22.150  44.175  18.030  1.00  0.00     0.031 A
HETATM   16  C15 UNL     1      23.508  44.279  17.844  1.00  0.00     0.028 A
HETATM   17  C16 UNL     1      24.293  43.386  18.539  1.00  0.00     0.022 A
HETATM   18  C17 UNL     1      23.747  42.431  19.383  1.00  0.00     0.026 A
HETATM   19 BR1  UNL     1      24.910  41.217  20.321  1.00  0.00    -0.050 Br
HETATM   20  C18 UNL     1      22.383  42.375  19.529  1.00  0.00     0.107 A
HETATM   21  N4  UNL     1      21.626  43.251  18.847  1.00  0.00    -0.366 N
ATOM     22  H4  UNL     1      20.613  43.211  18.956  1.00  0.00     0.165 HD
ENDBRANCH  13  15
ENDBRANCH  11  13
ENDBRANCH   4  11
BRANCH   1  23
HETATM   23  C7  UNL     1      21.821  40.272  16.176  1.00  0.00    -0.057 C
HETATM   24  C6  UNL     1      21.908  39.335  16.959  1.00  0.00    -0.058 C
BRANCH  24  25
HETATM   25  C5  UNL     1      22.020  38.220  17.860  1.00  0.00     0.055 A
HETATM   26  C2  UNL     1      22.550  37.011  17.423  1.00  0.00     0.026 A
HETATM   27  C1  UNL     1      23.003  36.867  16.016  1.00  0.00     0.070 C
HETATM   28  N1  UNL     1      22.641  35.992  18.288  1.00  0.00    -0.355 N
HETATM   29  C3  UNL     1      22.247  36.068  19.568  1.00  0.00     0.180 A
ATOM     30  H1  UNL     1      23.031  35.110  17.955  1.00  0.00     0.166 HD
HETATM   31  N2  UNL     1      21.730  37.240  20.005  1.00  0.00    -0.361 N
HETATM   32  C4  UNL     1      21.621  38.282  19.171  1.00  0.00     0.111 A
ATOM     33  H2  UNL     1      21.422  37.330  20.973  1.00  0.00     0.166 HD
ENDBRANCH  24  25
ENDBRANCH   1  23
BRANCH  10  34
HETATM   34  N7  UNL     1      23.148  40.251  13.939  1.00  0.00    -0.384 N
ATOM     35  H72 UNL     1      24.148  40.291  14.131  1.00  0.00     0.157 HD
ATOM     36  H71 UNL     1      22.605  39.452  13.611  1.00  0.00     0.157 HD
ENDBRANCH  10  34
TORSDOF 6
ENDMDL