MODEL 2
REMARK VINA RESULT: -5.909865505      1.157      1.621
REMARK  4 active torsions:
REMARK  status: ('A' for Active; 'I' for Inactive)
REMARK       I    between atoms: C1_2  and  N1_3
REMARK    1  A    between atoms: C1_2  and  C9_23
REMARK    2  A    between atoms: N1_3  and  C2_5
REMARK    3  A    between atoms: C4_12  and  C5_13
REMARK    4  A    between atoms: N6_29  and  O3_30
ROOT
HETATM    1  C2  UNL     1      23.154  43.699  17.466  1.00  0.00     0.128 A
HETATM    2  N2  UNL     1      23.714  44.802  17.929  1.00  0.00    -0.286 N
ATOM      3  H2  UNL     1      24.618  44.881  18.393  1.00  0.00     0.178 HD
HETATM    4  S1  UNL     1      22.644  46.041  17.601  1.00  0.00     0.160 S
HETATM    5  O2  UNL     1      22.977  47.733  17.324  1.00  0.00    -0.229 OA
HETATM    6  C3  UNL     1      21.435  45.100  16.840  1.00  0.00     0.107 A
HETATM    7  S2  UNL     1      19.917  45.044  16.069  1.00  0.00    -0.074 SA
HETATM    8  C4  UNL     1      19.882  43.362  15.769  1.00  0.00     0.052 A
HETATM    9  C7  UNL     1      21.057  42.904  16.283  1.00  0.00     0.040 A
HETATM   10  C8  UNL     1      21.911  43.816  16.863  1.00  0.00     0.038 A
ENDROOT
BRANCH   1  11
HETATM   11  N1  UNL     1      23.837  42.564  17.618  1.00  0.00    -0.306 N
HETATM   12  C1  UNL     1      24.013  41.926  18.857  1.00  0.00     0.276 C
HETATM   13  O1  UNL     1      24.899  42.365  19.652  1.00  0.00    -0.266 OA
ATOM     14  H1  UNL     1      24.255  42.137  16.791  1.00  0.00     0.170 HD
BRANCH  12  15
HETATM   15  C9  UNL     1      23.203  40.773  19.252  1.00  0.00     0.130 A
HETATM   16  C10 UNL     1      21.833  40.808  19.110  1.00  0.00     0.039 A
HETATM   17  C11 UNL     1      21.040  39.724  19.477  1.00  0.00     0.023 A
HETATM   18  C12 UNL     1      21.663  38.605  19.992  1.00  0.00     0.029 A
HETATM   19 BR1  UNL     1      20.581  37.099  20.505  1.00  0.00    -0.050 Br
HETATM   20  C13 UNL     1      23.019  38.590  20.125  1.00  0.00     0.142 A
HETATM   21  N6  UNL     1      23.769  39.665  19.757  1.00  0.00    -0.229 N
BRANCH  21  22
HETATM   22  O3  UNL     1      25.129  39.565  19.925  1.00  0.00    -0.283 OA
ATOM     23  H3  UNL     1      25.655  38.986  19.387  1.00  0.00     0.245 HD
ENDBRANCH  21  22
ENDBRANCH  12  15
ENDBRANCH   1  11
BRANCH   8  24
HETATM   24  C5  UNL     1      18.829  42.575  15.111  1.00  0.00     0.138 A
HETATM   25  N3  UNL     1      18.297  42.903  13.929  1.00  0.00    -0.335 N
HETATM   26  C6  UNL     1      17.367  41.995  13.597  1.00  0.00     0.199 A
ATOM     27  H3  UNL     1      18.556  43.715  13.369  1.00  0.00     0.168 HD
HETATM   28  N4  UNL     1      17.320  41.089  14.582  1.00  0.00    -0.295 N
HETATM   29  N5  UNL     1      18.226  41.459  15.508  1.00  0.00    -0.283 N
ATOM     30  H4  UNL     1      16.712  40.271  14.624  1.00  0.00     0.187 HD
ATOM     31  H5  UNL     1      18.418  40.962  16.377  1.00  0.00     0.188 HD
ENDBRANCH   8  24
TORSDOF 4
ENDMDL