MODEL 2
REMARK VINA RESULT: -8.983221031      3.045      7.340
REMARK  2 active torsions:
REMARK  status: ('A' for Active; 'I' for Inactive)
REMARK    1  A    between atoms: C7_13  and  S1_14
REMARK    2  A    between atoms: S1_14  and  C8_17
ROOT
HETATM    1  O1  UNL     1      21.540  47.359  17.911  1.00  0.00    -0.260 OA
HETATM    2  C1  UNL     1      21.217  46.389  17.181  1.00  0.00     0.291 A
HETATM    3  N1  UNL     1      20.288  46.450  16.230  1.00  0.00    -0.284 N
ATOM      4  H1  UNL     1      19.820  47.348  16.102  1.00  0.00     0.172 HD
HETATM    5  C2  UNL     1      19.909  45.460  15.431  1.00  0.00     0.260 A
HETATM    6  O2  UNL     1      18.992  45.730  14.578  1.00  0.00    -0.267 OA
HETATM    7  C3  UNL     1      20.387  44.179  15.416  1.00  0.00     0.052 A
HETATM    8  C4  UNL     1      19.870  43.254  14.500  1.00  0.00     0.021 A
HETATM    9  C5  UNL     1      20.315  41.951  14.441  1.00  0.00     0.033 A
HETATM   10  C6  UNL     1      21.301  41.511  15.299  1.00  0.00     0.062 A
HETATM   11  N2  UNL     1      21.958  40.365  15.526  1.00  0.00    -0.331 N
ATOM     12  H2  UNL     1      21.797  39.500  15.008  1.00  0.00     0.168 HD
HETATM   13  C7  UNL     1      22.851  40.496  16.516  1.00  0.00     0.209 A
HETATM   14  N3  UNL     1      22.781  41.781  16.962  1.00  0.00    -0.330 N
ATOM     15  H3  UNL     1      23.338  42.192  17.712  1.00  0.00     0.168 HD
HETATM   16  C14 UNL     1      21.843  42.408  16.230  1.00  0.00     0.079 A
HETATM   17  C15 UNL     1      21.369  43.686  16.249  1.00  0.00     0.054 A
HETATM   18  S2  UNL     1      21.968  44.867  17.354  1.00  0.00    -0.026 SA
ENDROOT
BRANCH  13  19
HETATM   19  S1  UNL     1      23.891  39.223  17.093  1.00  0.00     0.238 S
HETATM   20  O3  UNL     1      24.507  38.495  15.925  1.00  0.00    -0.214 OA
HETATM   21  O4  UNL     1      24.962  39.747  18.017  1.00  0.00    -0.214 OA
BRANCH  19  22
HETATM   22  C8  UNL     1      22.912  38.116  18.049  1.00  0.00     0.068 A
HETATM   23  C9  UNL     1      22.902  36.768  17.784  1.00  0.00     0.024 A
HETATM   24  C10 UNL     1      22.122  35.949  18.557  1.00  0.00     0.003 A
HETATM   25  C11 UNL     1      21.345  36.422  19.596  1.00  0.00     0.019 A
HETATM   26  C12 UNL     1      21.361  37.778  19.855  1.00  0.00     0.012 A
HETATM   27 BR1  UNL     1      20.312  38.523  21.278  1.00  0.00    -0.051 Br
HETATM   28  C13 UNL     1      22.141  38.599  19.082  1.00  0.00     0.043 A
ENDBRANCH  19  22
ENDBRANCH  13  19
TORSDOF 2
ENDMDL