MODEL 1
REMARK VINA RESULT: -6.398280405      0.000      0.000
REMARK  4 active torsions:
REMARK  status: ('A' for Active; 'I' for Inactive)
REMARK    1  A    between atoms: N1_2  and  C2_4
REMARK    2  A    between atoms: C5_9  and  N3_10
REMARK    3  A    between atoms: N3_10  and  C6_12
REMARK    4  A    between atoms: C17_28  and  O1_29
ROOT
HETATM    1  O1  UNL     1      18.250  42.615  15.108  1.00  0.00    -0.221 OA
HETATM    2  C18 UNL     1      17.673  41.629  15.045  1.00  0.00     0.235 C
HETATM    3  N6  UNL     1      17.112  40.637  14.978  1.00  0.00    -0.164 NA
ENDROOT
BRANCH   1   4
HETATM    4  C17 UNL     1      18.934  43.783  15.267  1.00  0.00     0.169 A
HETATM    5  C13 UNL     1      20.099  43.827  16.064  1.00  0.00     0.025 A
HETATM    6  C12 UNL     1      20.477  42.530  16.673  1.00  0.00     0.092 A
HETATM    7  C14 UNL     1      20.815  44.982  16.249  1.00  0.00     0.047 A
HETATM    8  C4  UNL     1      21.724  42.574  17.470  1.00  0.00     0.036 A
HETATM    9  C3  UNL     1      22.442  43.735  17.653  1.00  0.00     0.133 A
HETATM   10  C5  UNL     1      22.207  41.392  18.063  1.00  0.00     0.132 A
HETATM   11  N2  UNL     1      23.574  43.694  18.388  1.00  0.00    -0.176 N
HETATM   12  N7  UNL     1      22.008  44.952  17.055  1.00  0.00    -0.336 N
HETATM   13  C2  UNL     1      24.043  42.548  18.963  1.00  0.00     0.680 A
ATOM     14  H2  UNL     1      24.102  44.557  18.519  1.00  0.00     0.186 HD
HETATM   15  N4  UNL     1      23.339  41.417  18.782  1.00  0.00    -0.176 N
ATOM     16  H4  UNL     1      23.676  40.551  19.204  1.00  0.00     0.186 HD
HETATM   17  C19 UNL     1      22.690  46.193  17.212  1.00  0.00     0.158 C
HETATM   18  C15 UNL     1      20.369  46.121  15.634  1.00  0.00     0.047 A
HETATM   19  C16 UNL     1      19.226  46.086  14.850  1.00  0.00     0.092 A
HETATM   20  N5  UNL     1      18.555  44.937  14.694  1.00  0.00    -0.345 N
ATOM     21  H5  UNL     1      17.718  44.939  14.111  1.00  0.00     0.167 HD
BRANCH  13  22
HETATM   22  N1  UNL     1      25.118  42.527  19.651  1.00  0.00    -0.230 N
HETATM   23  C1  UNL     1      25.340  41.675  20.787  1.00  0.00     0.165 C
ATOM     24  H1  UNL     1      25.871  43.159  19.376  1.00  0.00     0.177 HD
ENDBRANCH  13  22
BRANCH  10  25
HETATM   25  N3  UNL     1      21.538  40.308  17.901  1.00  0.00    -0.341 N
ATOM     26  H3  UNL     1      21.039  40.215  17.016  1.00  0.00     0.167 HD
BRANCH  25  27
HETATM   27  C6  UNL     1      21.413  39.241  18.796  1.00  0.00     0.034 A
HETATM   28  C7  UNL     1      20.726  39.365  19.989  1.00  0.00     0.029 A
HETATM   29  C8  UNL     1      20.618  38.281  20.854  1.00  0.00     0.004 A
HETATM   30  C9  UNL     1      21.185  37.073  20.549  1.00  0.00     0.019 A
HETATM   31  C10 UNL     1      21.869  36.931  19.372  1.00  0.00     0.013 A
HETATM   32 BR1  UNL     1      22.637  35.243  18.968  1.00  0.00    -0.051 Br
HETATM   33  C11 UNL     1      21.967  38.009  18.529  1.00  0.00     0.048 A
ENDBRANCH  25  27
ENDBRANCH  10  25
ENDBRANCH   1   4
TORSDOF 4
ENDMDL