MODEL 5
REMARK VINA RESULT: -5.809468814      0.760      2.259
REMARK  3 active torsions:
REMARK  status: ('A' for Active; 'I' for Inactive)
REMARK    1  A    between atoms: C4_6  and  N2_7
REMARK    2  A    between atoms: C9_14  and  S1_15
REMARK    3  A    between atoms: S1_15  and  N4_16
ROOT
HETATM    1  C1  UNL     1      22.880  46.515  17.543  1.00  0.00     0.104 C
HETATM    2  C2  UNL     1      22.321  45.567  17.004  1.00  0.00    -0.130 C
HETATM    3  C3  UNL     1      21.685  44.438  16.377  1.00  0.00     0.105 A
HETATM    4  N1  UNL     1      22.212  43.200  16.421  1.00  0.00    -0.183 N
ATOM      5  H1  UNL     1      23.093  43.072  16.919  1.00  0.00     0.185 HD
HETATM    6  C4  UNL     1      21.648  42.121  15.848  1.00  0.00     0.693 A
HETATM    7  N5  UNL     1      20.483  42.293  15.192  1.00  0.00    -0.175 N
ATOM      8  H5  UNL     1      20.040  41.486  14.752  1.00  0.00     0.186 HD
HETATM    9  C13 UNL     1      19.884  43.502  15.100  1.00  0.00     0.135 A
HETATM   10  N6  UNL     1      18.754  43.951  14.525  1.00  0.00    -0.350 N
ATOM     11  H6  UNL     1      18.100  43.365  14.005  1.00  0.00     0.166 HD
HETATM   12  C14 UNL     1      18.600  45.256  14.720  1.00  0.00     0.110 A
HETATM   13  C15 UNL     1      19.698  45.670  15.464  1.00  0.00     0.043 A
HETATM   14 BR1  UNL     1      19.958  47.465  16.011  1.00  0.00    -0.049 Br
HETATM   15  C16 UNL     1      20.499  44.593  15.705  1.00  0.00     0.062 A
ENDROOT
BRANCH   6  16
HETATM   16  N2  UNL     1      22.229  40.830  15.912  1.00  0.00    -0.134 N
HETATM   17  C5  UNL     1      23.119  40.291  15.063  1.00  0.00     0.102 A
HETATM   18  C6  UNL     1      23.656  41.001  13.868  1.00  0.00     0.090 C
HETATM   19  N3  UNL     1      23.437  39.044  15.454  1.00  0.00    -0.343 N
HETATM   20  C7  UNL     1      22.743  38.765  16.580  1.00  0.00     0.063 A
ATOM     21  H3  UNL     1      24.089  38.418  14.983  1.00  0.00     0.167 HD
HETATM   22  C8  UNL     1      22.674  37.663  17.401  1.00  0.00     0.057 A
HETATM   23  C12 UNL     1      22.001  39.898  16.836  1.00  0.00     0.085 A
HETATM   24  C9  UNL     1      21.841  37.712  18.497  1.00  0.00     0.081 A
HETATM   25  C10 UNL     1      21.078  38.823  18.797  1.00  0.00     0.028 A
HETATM   26  C11 UNL     1      21.179  39.907  17.944  1.00  0.00     0.034 A
BRANCH  24  27
HETATM   27  S1  UNL     1      21.772  36.291  19.529  1.00  0.00     0.256 S
HETATM   28  O1  UNL     1      21.511  36.667  20.949  1.00  0.00    -0.201 OA
HETATM   29  O2  UNL     1      20.680  35.374  19.057  1.00  0.00    -0.201 OA
BRANCH  27  30
HETATM   30  N4  UNL     1      23.255  35.429  19.456  1.00  0.00    -0.324 N
ATOM     31  H42 UNL     1      24.004  35.634  18.793  1.00  0.00     0.169 HD
ATOM     32  H41 UNL     1      23.272  34.693  20.162  1.00  0.00     0.169 HD
ENDBRANCH  27  30
ENDBRANCH  24  27
ENDBRANCH   6  16
TORSDOF 3
ENDMDL