MODEL 3
REMARK VINA RESULT: -1.016664868      1.588      7.049
REMARK  4 active torsions:
REMARK  status: ('A' for Active; 'I' for Inactive)
REMARK    1  A    between atoms: C5_7  and  C6_8
REMARK    2  A    between atoms: C8_10  and  C9_11
REMARK    3  A    between atoms: C10_12  and  C11_13
REMARK    4  A    between atoms: C18_23  and  C19_24
ROOT
HETATM    1  C6  UNL     1      20.599  42.484  16.245  1.00  0.00     0.062 A
HETATM    2  C7  UNL     1      20.721  41.168  16.640  1.00  0.00     0.053 A
HETATM    3  C8  UNL     1      21.713  40.733  17.510  1.00  0.00     0.033 A
HETATM    4  C15 UNL     1      22.577  41.728  17.953  1.00  0.00     0.011 A
HETATM    5  C16 UNL     1      23.591  41.383  18.820  1.00  0.00     0.016 A
HETATM    6  C17 UNL     1      24.484  42.312  19.301  1.00  0.00     0.017 A
HETATM    7  C18 UNL     1      24.346  43.626  18.893  1.00  0.00     0.024 A
HETATM    8  C20 UNL     1      23.318  43.983  18.012  1.00  0.00     0.052 A
HETATM    9 BR1  UNL     1      23.071  45.768  17.411  1.00  0.00    -0.048 Br
HETATM   10  C21 UNL     1      22.437  43.038  17.544  1.00  0.00     0.063 A
HETATM   11  N6  UNL     1      21.466  43.407  16.705  1.00  0.00    -0.352 N
ATOM     12  H6  UNL     1      21.381  44.381  16.414  1.00  0.00     0.166 HD
ENDROOT
BRANCH   1  13
HETATM   13  C5  UNL     1      19.554  42.908  15.335  1.00  0.00     0.075 A
HETATM   14  C4  UNL     1      18.792  42.015  14.644  1.00  0.00     0.119 A
HETATM   15  N1  UNL     1      17.823  42.446  13.802  1.00  0.00    -0.371 N
HETATM   16  C3  UNL     1      17.589  43.759  13.625  1.00  0.00     0.112 A
ATOM     17  H1  UNL     1      17.261  41.763  13.293  1.00  0.00     0.164 HD
HETATM   18  C2  UNL     1      18.377  44.645  14.339  1.00  0.00     0.021 A
HETATM   19  C1  UNL     1      18.131  46.114  14.156  1.00  0.00     0.069 C
HETATM   20  N7  UNL     1      19.337  44.209  15.174  1.00  0.00    -0.356 N
ATOM     21  H7  UNL     1      19.903  44.883  15.689  1.00  0.00     0.166 HD
ENDBRANCH   1  13
BRANCH   3  22
HETATM   22  C9  UNL     1      21.837  39.361  17.921  1.00  0.00    -0.059 C
HETATM   23  C10 UNL     1      21.948  38.214  18.284  1.00  0.00    -0.042 C
BRANCH  23  24
HETATM   24  C11 UNL     1      22.104  36.858  18.725  1.00  0.00     0.105 A
HETATM   25  C12 UNL     1      22.908  35.865  18.210  1.00  0.00     0.128 A
HETATM   26  N2  UNL     1      22.756  34.735  18.923  1.00  0.00    -0.359 N
HETATM   27  C13 UNL     1      21.865  35.009  19.881  1.00  0.00     0.183 A
ATOM     28  H2  UNL     1      23.227  33.844  18.764  1.00  0.00     0.166 HD
HETATM   29  N3  UNL     1      21.473  36.281  19.764  1.00  0.00    -0.339 N
HETATM   30  C14 UNL     1      20.523  36.960  20.606  1.00  0.00     0.158 C
ENDBRANCH  23  24
ENDBRANCH   3  22
BRANCH   7  31
HETATM   31  C19 UNL     1      25.271  44.602  19.388  1.00  0.00     0.121 C
HETATM   32  N4  UNL     1      25.261  45.003  20.617  1.00  0.00    -0.387 N
ATOM     33  H42 UNL     1      24.563  44.599  21.241  1.00  0.00     0.157 HD
ATOM     34  H41 UNL     1      25.920  45.698  20.969  1.00  0.00     0.157 HD
HETATM   35  N5  UNL     1      26.253  45.170  18.509  1.00  0.00    -0.082 NA
ENDBRANCH   7  31
TORSDOF 4
ENDMDL