MODEL 2
REMARK VINA RESULT: 3.165878438      2.110      2.633
REMARK  5 active torsions:
REMARK  status: ('A' for Active; 'I' for Inactive)
REMARK    1  A    between atoms: S1_3  and  C3_5
REMARK    2  A    between atoms: S1_3  and  C15_24
REMARK    3  A    between atoms: C6_8  and  C7_9
REMARK    4  A    between atoms: C8_10  and  C9_11
REMARK    5  A    between atoms: C12_14  and  N1_15
ROOT
HETATM    1  C1  UNL     1      23.658  41.886  20.095  1.00  0.00     0.027 C
HETATM    2  C2  UNL     1      22.720  41.250  19.679  1.00  0.00    -0.014 C
HETATM    3  S1  UNL     1      21.095  40.131  18.997  1.00  0.00     0.093 S
HETATM    4  O1  UNL     1      20.034  39.571  18.657  1.00  0.00    -0.246 OA
ENDROOT
BRANCH   3   5
HETATM    5  C3  UNL     1      22.083  38.475  19.397  1.00  0.00     0.105 A
HETATM    6  C4  UNL     1      23.086  38.464  20.353  1.00  0.00     0.041 A
HETATM    7  C5  UNL     1      23.790  37.321  20.665  1.00  0.00     0.025 A
HETATM    8  C6  UNL     1      23.515  36.149  20.030  1.00  0.00     0.033 A
HETATM    9  C14 UNL     1      22.512  36.168  19.077  1.00  0.00     0.109 A
HETATM   10  N3  UNL     1      21.847  37.302  18.800  1.00  0.00    -0.357 N
ATOM     11  H3  UNL     1      21.116  37.267  18.090  1.00  0.00     0.166 HD
BRANCH   8  12
HETATM   12  C7  UNL     1      24.240  34.952  20.347  1.00  0.00    -0.060 C
HETATM   13  C8  UNL     1      24.840  33.948  20.634  1.00  0.00    -0.060 C
BRANCH  13  14
HETATM   14  C9  UNL     1      25.562  32.757  20.990  1.00  0.00     0.033 A
HETATM   15  C10 UNL     1      24.927  31.687  21.627  1.00  0.00     0.026 A
HETATM   16  C11 UNL     1      25.598  30.549  21.971  1.00  0.00     0.049 A
HETATM   17  C12 UNL     1      26.939  30.450  21.684  1.00  0.00     0.098 A
HETATM   18  N2  UNL     1      27.581  31.470  21.068  1.00  0.00    -0.351 N
HETATM   19  C13 UNL     1      26.905  32.598  20.729  1.00  0.00     0.110 A
ATOM     20  H2  UNL     1      28.576  31.390  20.857  1.00  0.00     0.166 HD
BRANCH  17  21
HETATM   21  N1  UNL     1      27.554  29.374  22.014  1.00  0.00    -0.385 N
ATOM     22  H12 UNL     1      27.776  29.165  22.988  1.00  0.00     0.157 HD
ATOM     23  H11 UNL     1      27.821  28.723  21.276  1.00  0.00     0.157 HD
ENDBRANCH  17  21
ENDBRANCH  13  14
ENDBRANCH   8  12
ENDBRANCH   3   5
BRANCH   3  24
HETATM   24  C15 UNL     1      21.595  40.748  17.120  1.00  0.00     0.082 A
HETATM   25  C16 UNL     1      22.551  40.242  16.332  1.00  0.00     0.114 A
HETATM   26  N4  UNL     1      22.553  40.933  15.160  1.00  0.00    -0.358 N
HETATM   27  C17 UNL     1      23.441  40.688  14.047  1.00  0.00     0.156 C
HETATM   28  C18 UNL     1      21.610  41.882  15.177  1.00  0.00     0.064 A
HETATM   29  C19 UNL     1      21.139  42.861  14.330  1.00  0.00     0.057 A
HETATM   30  C22 UNL     1      20.999  41.757  16.438  1.00  0.00     0.080 A
HETATM   31  C20 UNL     1      20.120  43.689  14.683  1.00  0.00     0.051 A
HETATM   32 CL1  UNL     1      19.500  44.947  13.623  1.00  0.00    -0.083 Cl
HETATM   33  C21 UNL     1      19.539  43.540  15.935  1.00  0.00     0.112 A
HETATM   34  N5  UNL     1      19.992  42.586  16.768  1.00  0.00    -0.361 N
ATOM     35  H5  UNL     1      19.556  42.488  17.685  1.00  0.00     0.165 HD
ENDBRANCH   3  24
TORSDOF 5
ENDMDL