MODEL 5
REMARK VINA RESULT: -8.091707467      1.456      1.846
REMARK  9 active torsions:
REMARK  status: ('A' for Active; 'I' for Inactive)
REMARK    1  A    between atoms: C4_5  and  C5_6
REMARK    2  A    between atoms: C6_7  and  C7_8
REMARK    3  A    between atoms: C7_8  and  N1_9
REMARK    4  A    between atoms: N1_9  and  C8_11
REMARK    5  A    between atoms: C9_14  and  N3_15
REMARK    6  A    between atoms: N3_15  and  C10_17
REMARK    7  A    between atoms: C10_17  and  C11_18
REMARK    8  A    between atoms: C11_18  and  C12_19
REMARK    9  A    between atoms: C12_19  and  N4_20
ROOT
HETATM    1  C8  UNL     1     -23.057 -39.261   8.460  1.00  0.00     0.680 A
HETATM    2  N2  UNL     1     -23.843 -39.519   9.528  1.00  0.00    -0.175 N
ATOM      3  H2  UNL     1     -24.709 -40.039   9.383  1.00  0.00     0.186 HD
HETATM    4  C9  UNL     1     -23.532 -39.122  10.768  1.00  0.00     0.139 A
HETATM    5  C17 UNL     1     -22.363 -38.421  10.958  1.00  0.00     0.104 A
HETATM    6  C18 UNL     1     -21.974 -37.964  12.280  1.00  0.00     0.104 C
HETATM    7  N5  UNL     1     -21.681 -37.589  13.335  1.00  0.00    -0.191 NA
HETATM    8  C19 UNL     1     -21.557 -38.156   9.864  1.00  0.00     0.132 A
HETATM    9  N6  UNL     1     -21.913 -38.578   8.634  1.00  0.00    -0.200 N
ATOM     10  H6  UNL     1     -21.313 -38.378   7.834  1.00  0.00     0.183 HD
ENDROOT
BRANCH   4  11
HETATM   11  N3  UNL     1     -24.269 -39.371  11.754  1.00  0.00    -0.374 N
ATOM     12  H3  UNL     1     -24.741 -38.553  12.141  1.00  0.00     0.161 HD
BRANCH  11  13
HETATM   13  C10 UNL     1     -24.561 -40.583  12.423  1.00  0.00     0.123 C
BRANCH  13  14
HETATM   14  C11 UNL     1     -25.506 -40.459  13.575  1.00  0.00     0.050 C
BRANCH  14  15
HETATM   15  C12 UNL     1     -25.937 -38.988  13.659  1.00  0.00     0.274 C
BRANCH  15  16
HETATM   16  N4  UNL     1     -26.173 -38.604  15.032  1.00  0.00     0.092 N
HETATM   17  C13 UNL     1     -27.391 -39.185  15.486  1.00  0.00     0.298 C
HETATM   18  C14 UNL     1     -27.285 -39.599  16.911  1.00  0.00     0.198 C
HETATM   19  O1  UNL     1     -26.601 -38.638  17.644  1.00  0.00    -0.388 OA
HETATM   20  C15 UNL     1     -25.255 -38.579  17.305  1.00  0.00     0.198 C
HETATM   21  C16 UNL     1     -25.020 -38.831  15.839  1.00  0.00     0.298 C
ENDBRANCH  15  16
ENDBRANCH  14  15
ENDBRANCH  13  14
ENDBRANCH  11  13
ENDBRANCH   4  11
BRANCH   1  22
HETATM   22  N1  UNL     1     -23.401 -39.694   7.149  1.00  0.00    -0.216 N
ATOM     23  H1  UNL     1     -22.959 -40.522   6.751  1.00  0.00     0.178 HD
BRANCH  22  24
HETATM   24  C7  UNL     1     -24.368 -38.963   6.393  1.00  0.00     0.232 C
BRANCH  24  25
HETATM   25  C6  UNL     1     -25.706 -39.397   6.790  1.00  0.00    -0.086 C
HETATM   26  C5  UNL     1     -26.795 -39.756   7.138  1.00  0.00    -0.097 C
BRANCH  26  27
HETATM   27  C4  UNL     1     -28.130 -40.208   7.594  1.00  0.00     0.107 A
HETATM   28  C2  UNL     1     -28.456 -39.953   9.027  1.00  0.00     0.115 A
HETATM   29  C1  UNL     1     -27.385 -39.302   9.888  1.00  0.00     0.053 C
HETATM   30  F1  UNL     1     -29.308 -40.783   9.724  1.00  0.00    -0.242 F
HETATM   31  C3  UNL     1     -29.072 -39.111   7.921  1.00  0.00     0.065 A
ENDBRANCH  26  27
ENDBRANCH  24  25
ENDBRANCH  22  24
ENDBRANCH   1  22
TORSDOF 9
ENDMDL