MODEL 3
REMARK VINA RESULT: -7.797227540      3.197      7.426
REMARK  6 active torsions:
REMARK  status: ('A' for Active; 'I' for Inactive)
REMARK    1  A    between atoms: C2_2  and  C4_4
REMARK    2  A    between atoms: C11_13  and  N1_14
REMARK    3  A    between atoms: N1_14  and  C12_16
REMARK    4  A    between atoms: C12_16  and  C13_17
REMARK    5  A    between atoms: C13_17  and  N2_18
REMARK       I    between atoms: N2_18  and  C14_20
REMARK    6  A    between atoms: C14_20  and  C15_22
ROOT
HETATM    1  C15 UNL     1     -28.916 -42.249  15.646  1.00  0.00     0.226 C
HETATM    2  C16 UNL     1     -27.901 -42.604  14.664  1.00  0.00     0.068 C
HETATM    3  N3  UNL     1     -27.084 -42.891  13.897  1.00  0.00    -0.197 NA
ENDROOT
BRANCH   1   4
HETATM    4  C14 UNL     1     -28.374 -41.282  16.658  1.00  0.00     0.230 C
HETATM    5  N2  UNL     1     -27.660 -40.149  16.213  1.00  0.00    -0.359 N
ATOM      6  H2  UNL     1     -27.533 -40.019  15.209  1.00  0.00     0.162 HD
HETATM    7  O2  UNL     1     -28.557 -41.487  17.883  1.00  0.00    -0.273 OA
BRANCH   5   8
HETATM    8  C13 UNL     1     -27.097 -39.162  17.109  1.00  0.00     0.142 C
BRANCH   8   9
HETATM    9  C12 UNL     1     -25.880 -38.541  16.477  1.00  0.00     0.140 C
BRANCH   9  10
HETATM   10  N1  UNL     1     -26.155 -38.035  15.154  1.00  0.00    -0.377 N
ATOM     11  H1  UNL     1     -26.914 -37.364  15.037  1.00  0.00     0.160 HD
BRANCH  10  12
HETATM   12  C11 UNL     1     -25.416 -38.429  14.009  1.00  0.00     0.100 C
HETATM   13  C10 UNL     1     -25.560 -39.661  13.172  1.00  0.00     0.119 C
HETATM   14  C7  UNL     1     -24.875 -39.185  11.888  1.00  0.00     0.102 C
HETATM   15  C6  UNL     1     -25.865 -38.511  11.003  1.00  0.00     0.044 C
HETATM   16  C8  UNL     1     -24.193 -40.370  11.253  1.00  0.00     0.121 C
HETATM   17  O3  UNL     1     -23.905 -38.318  12.412  1.00  0.00    -0.267 OA
HETATM   18  C5  UNL     1     -25.752 -38.905   9.550  1.00  0.00     0.037 C
HETATM   19  C4  UNL     1     -24.307 -38.985   9.105  1.00  0.00     0.100 C
HETATM   20 CL1  UNL     1     -23.553 -37.388   9.300  1.00  0.00    -0.110 Cl
HETATM   21  C9  UNL     1     -23.649 -40.028   9.926  1.00  0.00     0.153 C
HETATM   22  O1  UNL     1     -22.675 -40.584   9.493  1.00  0.00    -0.296 OA
HETATM   23  N4  UNL     1     -24.459 -37.721  13.515  1.00  0.00    -0.254 N
ATOM     24  H4  UNL     1     -24.152 -36.826  13.896  1.00  0.00     0.195 HD
BRANCH  19  25
HETATM   25  C2  UNL     1     -24.283 -39.327   7.634  1.00  0.00     0.008 C
HETATM   26  C1  UNL     1     -23.679 -38.210   6.814  1.00  0.00     0.012 C
HETATM   27  C3  UNL     1     -25.635 -39.645   7.085  1.00  0.00     0.012 C
ENDBRANCH  19  25
ENDBRANCH  10  12
ENDBRANCH   9  10
ENDBRANCH   8   9
ENDBRANCH   5   8
ENDBRANCH   1   4
TORSDOF 6
ENDMDL