MODEL 2
REMARK VINA RESULT: -8.383037051      2.310      3.170
REMARK  8 active torsions:
REMARK  status: ('A' for Active; 'I' for Inactive)
REMARK    1  A    between atoms: C6_7  and  C7_8
REMARK    2  A    between atoms: C8_9  and  C9_10
REMARK    3  A    between atoms: N2_11  and  O1_13
REMARK    4  A    between atoms: N3_15  and  C10_16
REMARK    5  A    between atoms: C10_16  and  C11_17
REMARK    6  A    between atoms: N4_20  and  C13_21
REMARK    7  A    between atoms: C13_21  and  C14_22
REMARK    8  A    between atoms: C14_22  and  O2_23
ROOT
HETATM    1  N1  UNL     1     -24.388 -39.190   4.683  1.00  0.00    -0.191 NA
HETATM    2  C1  UNL     1     -25.031 -39.285   5.640  1.00  0.00     0.099 C
HETATM    3  C2  UNL     1     -25.822 -39.394   6.831  1.00  0.00     0.045 A
HETATM    4  C3  UNL     1     -27.162 -39.661   6.686  1.00  0.00     0.023 A
HETATM    5  C4  UNL     1     -27.945 -39.772   7.814  1.00  0.00     0.002 A
HETATM    6  C5  UNL     1     -27.373 -39.616   9.061  1.00  0.00     0.014 A
HETATM    7  C6  UNL     1     -26.057 -39.354   9.248  1.00  0.00    -0.005 A
HETATM    8  C15 UNL     1     -25.282 -39.243   8.109  1.00  0.00     0.036 A
ENDROOT
BRANCH   7   9
HETATM    9  C7  UNL     1     -25.434 -39.053  10.524  1.00  0.00     0.074 A
HETATM   10  C8  UNL     1     -25.839 -39.507  11.802  1.00  0.00     0.081 A
HETATM   11  N3  UNL     1     -24.907 -39.201  12.714  1.00  0.00    -0.339 N
HETATM   12  C12 UNL     1     -23.930 -38.552  12.023  1.00  0.00     0.186 A
HETATM   13  N4  UNL     1     -24.239 -38.460  10.714  1.00  0.00    -0.338 N
BRANCH  10  14
HETATM   14  C9  UNL     1     -27.141 -40.044  12.116  1.00  0.00     0.145 C
HETATM   15  N2  UNL     1     -28.067 -39.386  12.659  1.00  0.00    -0.278 N
ATOM     16  H2  UNL     1     -27.902 -38.409  12.898  1.00  0.00     0.193 HD
BRANCH  15  17
HETATM   17  O1  UNL     1     -29.281 -39.935  12.936  1.00  0.00    -0.290 OA
ATOM     18  H1  UNL     1     -29.873 -39.558  13.575  1.00  0.00     0.244 HD
ENDBRANCH  15  17
ENDBRANCH  10  14
BRANCH  11  19
HETATM   19  C10 UNL     1     -24.735 -39.492  14.119  1.00  0.00     0.141 C
BRANCH  19  20
HETATM   20  C11 UNL     1     -25.318 -38.430  14.991  1.00  0.00     0.105 C
HETATM   21 BR1  UNL     1     -26.741 -38.993  16.120  1.00  0.00    -0.095 Br
ENDBRANCH  19  20
ENDBRANCH  11  19
BRANCH  13  22
HETATM   22  C13 UNL     1     -23.352 -37.774   9.797  1.00  0.00     0.156 C
BRANCH  22  23
HETATM   23  C14 UNL     1     -21.965 -38.364   9.740  1.00  0.00     0.184 C
BRANCH  23  24
HETATM   24  O2  UNL     1     -21.050 -37.358  10.042  1.00  0.00    -0.399 OA
ATOM     25  H2  UNL     1     -20.205 -37.762  10.202  1.00  0.00     0.209 HD
ENDBRANCH  23  24
ENDBRANCH  22  23
ENDBRANCH  13  22
ENDBRANCH   7   9
TORSDOF 8
ENDMDL