MODEL 2
REMARK VINA RESULT: -7.830683989      3.758      7.982
REMARK  8 active torsions:
REMARK  status: ('A' for Active; 'I' for Inactive)
REMARK    1  A    between atoms: C2_2  and  N1_4
REMARK    2  A    between atoms: N1_4  and  C4_6
REMARK    3  A    between atoms: C8_13  and  O1_14
REMARK    4  A    between atoms: C8_13  and  N3_16
REMARK    5  A    between atoms: N3_16  and  C9_18
REMARK    6  A    between atoms: C9_18  and  C10_19
REMARK    7  A    between atoms: C10_19  and  C11_20
REMARK    8  A    between atoms: C11_20  and  N4_21
ROOT
HETATM    1  C4  UNL     1     -25.655 -38.905   9.615  1.00  0.00     0.075 A
HETATM    2  C5  UNL     1     -25.785 -38.564  10.976  1.00  0.00     0.077 A
HETATM    3 CL1  UNL     1     -27.384 -38.633  11.743  1.00  0.00    -0.080 Cl
HETATM    4  C6  UNL     1     -24.679 -38.189  11.663  1.00  0.00     0.114 A
HETATM    5  N2  UNL     1     -23.474 -38.134  11.104  1.00  0.00    -0.359 N
ATOM      6  H2  UNL     1     -22.681 -37.846  11.677  1.00  0.00     0.165 HD
HETATM    7  C7  UNL     1     -23.254 -38.449   9.782  1.00  0.00     0.106 A
HETATM    8  C8  UNL     1     -21.900 -38.322   9.289  1.00  0.00     0.165 C
HETATM    9  C16 UNL     1     -24.368 -38.823   9.090  1.00  0.00     0.103 A
HETATM   10  C17 UNL     1     -24.239 -39.097   7.678  1.00  0.00     0.104 C
HETATM   11  N5  UNL     1     -24.159 -39.289   6.534  1.00  0.00    -0.191 NA
ENDROOT
BRANCH   1  12
HETATM   12  N1  UNL     1     -26.698 -39.237   9.056  1.00  0.00    -0.383 N
ATOM     13  H1  UNL     1     -27.256 -38.386   8.986  1.00  0.00     0.160 HD
BRANCH  12  14
HETATM   14  C2  UNL     1     -27.454 -40.219   8.486  1.00  0.00     0.073 C
HETATM   15  C1  UNL     1     -28.859 -40.363   9.131  1.00  0.00     0.031 C
HETATM   16  C3  UNL     1     -27.799 -39.806   7.042  1.00  0.00     0.031 C
ENDBRANCH  12  14
ENDBRANCH   1  12
BRANCH   8  17
HETATM   17  O1  UNL     1     -21.143 -37.462   9.913  1.00  0.00    -0.345 OA
ATOM     18  H1  UNL     1     -20.613 -36.896   9.363  1.00  0.00     0.219 HD
ENDBRANCH   8  17
BRANCH   8  19
HETATM   19  N3  UNL     1     -21.263 -38.983   8.247  1.00  0.00    -0.369 N
ATOM     20  H3  UNL     1     -21.706 -39.771   7.774  1.00  0.00     0.161 HD
BRANCH  19  21
HETATM   21  C9  UNL     1     -19.920 -38.506   7.844  1.00  0.00     0.123 C
BRANCH  21  22
HETATM   22  C10 UNL     1     -19.630 -38.856   6.404  1.00  0.00     0.050 C
BRANCH  22  23
HETATM   23  C11 UNL     1     -18.337 -39.633   6.275  1.00  0.00     0.274 C
BRANCH  23  24
HETATM   24  N4  UNL     1     -17.419 -38.938   5.421  1.00  0.00     0.092 N
HETATM   25  C12 UNL     1     -16.061 -38.997   5.860  1.00  0.00     0.298 C
HETATM   26  C13 UNL     1     -15.792 -37.768   6.729  1.00  0.00     0.198 C
HETATM   27  O2  UNL     1     -15.813 -36.599   5.983  1.00  0.00    -0.388 OA
HETATM   28  C14 UNL     1     -16.543 -36.731   4.819  1.00  0.00     0.198 C
HETATM   29  C15 UNL     1     -17.780 -37.597   5.089  1.00  0.00     0.298 C
ENDBRANCH  23  24
ENDBRANCH  22  23
ENDBRANCH  21  22
ENDBRANCH  19  21
ENDBRANCH   8  19
TORSDOF 8
ENDMDL