MODEL 4
REMARK VINA RESULT: -7.894253956      2.187      4.570
REMARK  8 active torsions:
REMARK  status: ('A' for Active; 'I' for Inactive)
REMARK    1  A    between atoms: C2_2  and  N1_3
REMARK    2  A    between atoms: N1_3  and  C3_5
REMARK    3  A    between atoms: C4_8  and  N3_9
REMARK    4  A    between atoms: N5_18  and  C11_20
REMARK    5  A    between atoms: C11_20  and  C12_21
REMARK    6  A    between atoms: C12_21  and  C13_22
REMARK    7  A    between atoms: C13_22  and  N6_23
REMARK    8  A    between atoms: N6_23  and  C15_25
ROOT
HETATM    1  C3  UNL     1     -27.469 -38.822  13.928  1.00  0.00     0.707 A
HETATM    2  N2  UNL     1     -28.338 -39.291  12.992  1.00  0.00    -0.021 N
ATOM      3  H2  UNL     1     -29.280 -39.581  13.257  1.00  0.00     0.203 HD
HETATM    4  C4  UNL     1     -27.939 -39.367  11.725  1.00  0.00     0.709 A
HETATM    5  N4  UNL     1     -26.687 -38.981  11.381  1.00  0.00    -0.021 N
ATOM      6  H4  UNL     1     -26.411 -39.051  10.402  1.00  0.00     0.203 HD
HETATM    7  C10 UNL     1     -25.795 -38.513  12.258  1.00  0.00     0.710 A
HETATM    8  N5  UNL     1     -24.613 -38.129  12.024  1.00  0.00    -0.204 N
ATOM      9  H5  UNL     1     -24.090 -37.802  12.837  1.00  0.00     0.183 HD
HETATM   10  N7  UNL     1     -26.241 -38.448  13.554  1.00  0.00    -0.021 N
ATOM     11  H7  UNL     1     -25.603 -38.097  14.269  1.00  0.00     0.203 HD
ENDROOT
BRANCH   8  12
HETATM   12  C11 UNL     1     -23.924 -38.087  10.811  1.00  0.00     0.080 C
BRANCH  12  13
HETATM   13  C12 UNL     1     -22.814 -39.060  10.573  1.00  0.00     0.065 C
BRANCH  13  14
HETATM   14  C13 UNL     1     -23.232 -39.887   9.337  1.00  0.00     0.127 C
BRANCH  14  15
HETATM   15  N6  UNL     1     -22.790 -39.225   8.108  1.00  0.00    -0.386 N
HETATM   16  C14 UNL     1     -21.429 -38.756   8.065  1.00  0.00     0.149 C
BRANCH  15  17
HETATM   17  C15 UNL     1     -23.676 -39.068   7.028  1.00  0.00     0.037 C
HETATM   18  C16 UNL     1     -23.092 -38.931   5.655  1.00  0.00     0.071 C
HETATM   19  C17 UNL     1     -24.990 -39.035   7.130  1.00  0.00     0.112 C
HETATM   20  C18 UNL     1     -25.866 -38.864   5.925  1.00  0.00     0.084 C
HETATM   21  F1  UNL     1     -25.573 -39.156   8.337  1.00  0.00    -0.209 F
ENDBRANCH  15  17
ENDBRANCH  14  15
ENDBRANCH  13  14
ENDBRANCH  12  13
ENDBRANCH   8  12
BRANCH   4  22
HETATM   22  N3  UNL     1     -28.772 -39.826  10.672  1.00  0.00    -0.217 N
HETATM   23  C5  UNL     1     -30.156 -39.398  10.656  1.00  0.00     0.141 C
HETATM   24  C6  UNL     1     -30.451 -38.782   9.303  1.00  0.00     0.020 C
HETATM   25  C7  UNL     1     -29.285 -38.816   8.365  1.00  0.00     0.003 C
HETATM   26  C8  UNL     1     -28.594 -40.151   8.266  1.00  0.00     0.020 C
HETATM   27  C9  UNL     1     -28.247 -40.702   9.636  1.00  0.00     0.141 C
ENDBRANCH   4  22
BRANCH   1  28
HETATM   28  N1  UNL     1     -27.920 -38.789  15.138  1.00  0.00    -0.225 N
ATOM     29  H1  UNL     1     -28.924 -38.736  15.308  1.00  0.00     0.177 HD
BRANCH  28  30
HETATM   30  C2  UNL     1     -27.002 -38.825  16.244  1.00  0.00     0.133 C
HETATM   31  C1  UNL     1     -27.829 -39.260  17.460  1.00  0.00     0.027 C
ENDBRANCH  28  30
ENDBRANCH   1  28
TORSDOF 8
ENDMDL