MODEL 5
REMARK VINA RESULT: -7.359352527      4.080      6.372
REMARK  7 active torsions:
REMARK  status: ('A' for Active; 'I' for Inactive)
REMARK    1  A    between atoms: C2_2  and  C3_3
REMARK    2  A    between atoms: C3_3  and  C4_4
REMARK    3  A    between atoms: C4_4  and  S1_5
REMARK    4  A    between atoms: S1_5  and  N1_8
REMARK    5  A    between atoms: N1_8  and  O3_10
REMARK    6  A    between atoms: O3_10  and  C5_11
REMARK    7  A    between atoms: C5_11  and  C8_15
REMARK       I    between atoms: N3_19  and  C12_20
REMARK       I    between atoms: C12_20  and  N4_22
ROOT
HETATM    1  C5  UNL     1     -24.021 -38.943  11.614  1.00  0.00     0.178 C
HETATM    2  C6  UNL     1     -24.103 -37.445  11.411  1.00  0.00     0.066 C
HETATM    3  C7  UNL     1     -23.101 -39.280  12.702  1.00  0.00     0.100 C
HETATM    4  N2  UNL     1     -22.359 -39.551  13.552  1.00  0.00    -0.194 NA
ENDROOT
BRANCH   1   5
HETATM    5  O3  UNL     1     -23.516 -39.578  10.457  1.00  0.00    -0.244 OA
BRANCH   5   6
HETATM    6  N1  UNL     1     -23.269 -38.640   9.543  1.00  0.00    -0.190 N
ATOM      7  H1  UNL     1     -22.690 -37.821   9.728  1.00  0.00     0.207 HD
BRANCH   6   8
HETATM    8  S1  UNL     1     -24.012 -38.932   8.029  1.00  0.00     0.248 S
HETATM    9  O1  UNL     1     -23.965 -37.664   7.225  1.00  0.00    -0.204 OA
HETATM   10  O2  UNL     1     -23.242 -39.974   7.284  1.00  0.00    -0.204 OA
BRANCH   8  11
HETATM   11  C4  UNL     1     -25.702 -39.486   8.218  1.00  0.00     0.165 C
BRANCH  11  12
HETATM   12  C3  UNL     1     -26.308 -39.517   6.840  1.00  0.00     0.016 C
BRANCH  12  13
HETATM   13  C2  UNL     1     -27.800 -39.723   6.866  1.00  0.00    -0.004 C
HETATM   14  C1  UNL     1     -28.134 -40.281   8.255  1.00  0.00     0.005 C
ENDBRANCH  12  13
ENDBRANCH  11  12
ENDBRANCH   8  11
ENDBRANCH   6   8
ENDBRANCH   5   6
ENDBRANCH   1   5
BRANCH   1  15
HETATM   15  C8  UNL     1     -25.405 -39.431  11.938  1.00  0.00     0.055 C
HETATM   16  C9  UNL     1     -26.387 -38.442  11.390  1.00  0.00     0.012 C
HETATM   17  C10 UNL     1     -27.832 -38.802  11.733  1.00  0.00     0.020 C
HETATM   18  C11 UNL     1     -27.880 -38.819  13.268  1.00  0.00     0.127 C
HETATM   19  N3  UNL     1     -26.999 -39.892  13.666  1.00  0.00    -0.333 N
HETATM   20  C12 UNL     1     -27.549 -41.048  14.273  1.00  0.00     0.332 C
HETATM   21  C13 UNL     1     -25.596 -39.716  13.411  1.00  0.00     0.136 C
HETATM   22  O4  UNL     1     -26.732 -41.947  14.599  1.00  0.00    -0.246 OA
HETATM   23  N4  UNL     1     -28.921 -41.261  14.534  1.00  0.00    -0.250 N
HETATM   24 CL1  UNL     1     -29.415 -42.752  15.293  1.00  0.00     0.015 Cl
ATOM     25  H4  UNL     1     -29.612 -40.554  14.283  1.00  0.00     0.185 HD
ENDBRANCH   1  15
TORSDOF 7
ENDMDL