MODEL 2
REMARK VINA RESULT: -8.172756599      1.649      2.038
REMARK  7 active torsions:
REMARK  status: ('A' for Active; 'I' for Inactive)
REMARK    1  A    between atoms: C1_2  and  C2_3
REMARK       I    between atoms: C1_2  and  N3_23
REMARK    2  A    between atoms: C2_3  and  N1_4
REMARK    3  A    between atoms: N1_4  and  C3_6
REMARK    4  A    between atoms: C3_6  and  C4_7
REMARK    5  A    between atoms: C4_7  and  O2_8
REMARK    6  A    between atoms: N2_12  and  C7_13
REMARK    7  A    between atoms: C7_13  and  C8_14
ROOT
HETATM    1  C3  UNL     1     -27.501 -40.100  14.146  1.00  0.00     0.054 C
HETATM    2  C5  UNL     1     -26.537 -38.988  14.497  1.00  0.00     0.063 C
HETATM    3  C6  UNL     1     -25.667 -38.540  13.381  1.00  0.00     0.275 C
HETATM    4  N2  UNL     1     -24.968 -39.608  12.688  1.00  0.00     0.092 N
HETATM    5  C14 UNL     1     -25.261 -40.830  13.425  1.00  0.00     0.275 C
HETATM    6  C15 UNL     1     -26.727 -41.094  13.258  1.00  0.00     0.063 C
ENDROOT
BRANCH   1   7
HETATM    7  N1  UNL     1     -28.652 -39.635  13.478  1.00  0.00    -0.383 N
ATOM      8  H1  UNL     1     -29.587 -39.935  13.753  1.00  0.00     0.160 HD
BRANCH   7   9
HETATM    9  C2  UNL     1     -28.449 -38.742  12.420  1.00  0.00     0.158 C
BRANCH   9  10
HETATM   10  C1  UNL     1     -29.205 -39.181  11.171  1.00  0.00     0.258 C
HETATM   11  O1  UNL     1     -30.440 -39.229  11.256  1.00  0.00    -0.267 OA
HETATM   12  N3  UNL     1     -28.429 -39.490  10.043  1.00  0.00    -0.348 N
HETATM   13  C16 UNL     1     -28.972 -39.926   8.774  1.00  0.00     0.126 C
HETATM   14  C19 UNL     1     -26.997 -39.436   9.945  1.00  0.00     0.126 C
HETATM   15  C17 UNL     1     -27.779 -40.216   7.889  1.00  0.00     0.021 C
HETATM   16  C18 UNL     1     -26.655 -39.382   8.470  1.00  0.00     0.021 C
ENDBRANCH   9  10
ENDBRANCH   7   9
ENDBRANCH   1   7
BRANCH   1  17
HETATM   17  C4  UNL     1     -27.731 -40.859  15.436  1.00  0.00     0.195 C
BRANCH  17  18
HETATM   18  O2  UNL     1     -28.970 -41.424  15.548  1.00  0.00    -0.398 OA
ATOM     19  H2  UNL     1     -28.967 -42.373  15.606  1.00  0.00     0.209 HD
ENDBRANCH  17  18
ENDBRANCH   1  17
BRANCH   4  20
HETATM   20  C7  UNL     1     -23.562 -39.347  12.583  1.00  0.00     0.311 C
BRANCH  20  21
HETATM   21  C8  UNL     1     -23.028 -39.241  11.229  1.00  0.00    -0.030 A
HETATM   22  C9  UNL     1     -23.440 -40.112  10.243  1.00  0.00     0.010 A
HETATM   23  C10 UNL     1     -22.942 -40.008   8.973  1.00  0.00     0.024 A
HETATM   24  C11 UNL     1     -22.017 -39.016   8.678  1.00  0.00     0.034 A
HETATM   25 CL1  UNL     1     -21.397 -38.908   7.037  1.00  0.00    -0.084 Cl
HETATM   26  C12 UNL     1     -21.595 -38.139   9.653  1.00  0.00     0.024 A
HETATM   27  C13 UNL     1     -22.092 -38.239  10.933  1.00  0.00     0.010 A
ENDBRANCH  20  21
ENDBRANCH   4  20
TORSDOF 7
ENDMDL