MODEL 5
REMARK VINA RESULT: -7.373461083      2.550      4.056
REMARK  8 active torsions:
REMARK  status: ('A' for Active; 'I' for Inactive)
REMARK    1  A    between atoms: N1_1  and  C1_5
REMARK    2  A    between atoms: C1_5  and  C2_6
REMARK    3  A    between atoms: C2_6  and  O1_7
REMARK    4  A    between atoms: C4_11  and  O3_12
REMARK    5  A    between atoms: O3_12  and  C5_13
REMARK    6  A    between atoms: C5_13  and  C6_14
REMARK    7  A    between atoms: N2_15  and  C7_17
REMARK    8  A    between atoms: C7_17  and  C8_18
ROOT
HETATM    1  C2  UNL     1     -26.724 -39.994  13.525  1.00  0.00     0.136 C
HETATM    2  C3  UNL     1     -28.177 -40.291  13.264  1.00  0.00     0.216 C
HETATM    3  O2  UNL     1     -28.852 -39.207  12.713  1.00  0.00    -0.354 OA
HETATM    4  C4  UNL     1     -28.330 -38.991  11.431  1.00  0.00     0.285 C
HETATM    5  C14 UNL     1     -26.927 -38.523  11.550  1.00  0.00     0.051 C
HETATM    6  C15 UNL     1     -26.192 -39.010  12.544  1.00  0.00     0.027 C
HETATM    7 BR1  UNL     1     -24.390 -38.411  12.700  1.00  0.00    -0.052 Br
ENDROOT
BRANCH   4   8
HETATM    8  O3  UNL     1     -28.373 -40.166  10.747  1.00  0.00    -0.353 OA
BRANCH   8   9
HETATM    9  C5  UNL     1     -29.373 -40.298   9.824  1.00  0.00     0.215 C
BRANCH   9  10
HETATM   10  C6  UNL     1     -29.499 -39.184   8.876  1.00  0.00     0.082 C
HETATM   11  N2  UNL     1     -28.834 -39.125   7.785  1.00  0.00    -0.396 N
ATOM     12  H2  UNL     1     -28.939 -38.339   7.144  1.00  0.00     0.159 HD
BRANCH  11  13
HETATM   13  C7  UNL     1     -27.934 -40.205   7.497  1.00  0.00     0.157 C
BRANCH  13  14
HETATM   14  C8  UNL     1     -26.561 -39.595   7.403  1.00  0.00    -0.041 A
HETATM   15  C9  UNL     1     -25.744 -39.500   8.501  1.00  0.00     0.009 A
HETATM   16  C10 UNL     1     -24.486 -38.941   8.412  1.00  0.00     0.001 A
HETATM   17  C11 UNL     1     -24.023 -38.461   7.201  1.00  0.00     0.000 A
HETATM   18  C12 UNL     1     -24.864 -38.567   6.108  1.00  0.00     0.001 A
HETATM   19  C13 UNL     1     -26.115 -39.121   6.187  1.00  0.00     0.009 A
ENDBRANCH  13  14
ENDBRANCH  11  13
ENDBRANCH   9  10
ENDBRANCH   8   9
ENDBRANCH   4   8
BRANCH   1  20
HETATM   20  C1  UNL     1     -26.601 -39.419  14.919  1.00  0.00     0.275 C
BRANCH  20  21
HETATM   21  N1  UNL     1     -27.807 -38.762  15.347  1.00  0.00    -0.076 N
ATOM     22  H13 UNL     1     -28.265 -38.287  14.568  1.00  0.00     0.274 HD
ATOM     23  H12 UNL     1     -28.536 -39.439  15.575  1.00  0.00     0.274 HD
ATOM     24  H11 UNL     1     -27.644 -38.121  16.124  1.00  0.00     0.274 HD
ENDBRANCH  20  21
ENDBRANCH   1  20
BRANCH   1  25
HETATM   25  O1  UNL     1     -26.012 -41.176  13.385  1.00  0.00    -0.381 OA
ATOM     26  H1  UNL     1     -26.572 -41.902  13.134  1.00  0.00     0.211 HD
ENDBRANCH   1  25
TORSDOF 8
ENDMDL