MODEL 5
REMARK VINA RESULT: -7.737783290      4.969      7.777
REMARK  7 active torsions:
REMARK  status: ('A' for Active; 'I' for Inactive)
REMARK    1  A    between atoms: N3_8  and  C4_9
REMARK    2  A    between atoms: C4_9  and  C5_10
REMARK    3  A    between atoms: C4_9  and  C7_12
REMARK       I    between atoms: C7_12  and  N4_14
REMARK    4  A    between atoms: N4_14  and  C8_16
REMARK    5  A    between atoms: C8_16  and  C9_17
REMARK    6  A    between atoms: C9_17  and  N5_18
REMARK    7  A    between atoms: C14_24  and  C15_26
ROOT
HETATM    1  C15 UNL     1     -28.192 -40.420  17.394  1.00  0.00    -0.053 C
HETATM    2  C16 UNL     1     -28.486 -40.076  18.507  1.00  0.00    -0.105 C
HETATM    3  C17 UNL     1     -28.831 -39.676  19.869  1.00  0.00     0.112 C
ENDROOT
BRANCH   1   4
HETATM    4  C14 UNL     1     -27.833 -40.813  16.020  1.00  0.00     0.111 C
HETATM    5  C13 UNL     1     -27.059 -39.994  15.371  1.00  0.00     0.062 C
HETATM    6  N5  UNL     1     -26.641 -40.208  14.063  1.00  0.00    -0.377 N
HETATM    7  C12 UNL     1     -26.601 -38.714  16.103  1.00  0.00     0.226 C
HETATM    8  C10 UNL     1     -25.323 -39.715  13.643  1.00  0.00     0.149 C
HETATM    9  C11 UNL     1     -24.742 -38.967  14.829  1.00  0.00     0.187 C
HETATM   10  O2  UNL     1     -25.697 -38.078  15.295  1.00  0.00    -0.384 OA
HETATM   11 CL1  UNL     1     -28.541 -42.311  15.526  1.00  0.00    -0.072 Cl
BRANCH   6  12
HETATM   12  C9  UNL     1     -27.457 -40.827  13.071  1.00  0.00     0.142 C
BRANCH  12  13
HETATM   13  C8  UNL     1     -28.183 -39.977  12.111  1.00  0.00     0.142 C
BRANCH  13  14
HETATM   14  N4  UNL     1     -27.751 -40.035  10.717  1.00  0.00    -0.358 N
HETATM   15  C7  UNL     1     -26.890 -39.125  10.091  1.00  0.00     0.242 C
HETATM   16  O1  UNL     1     -26.486 -38.180  10.880  1.00  0.00    -0.271 OA
ATOM     17  H4  UNL     1     -28.107 -40.805  10.150  1.00  0.00     0.162 HD
BRANCH  15  18
HETATM   18  C4  UNL     1     -26.386 -39.064   8.736  1.00  0.00     0.201 C
BRANCH  18  19
HETATM   19  N3  UNL     1     -24.912 -39.208   8.730  1.00  0.00    -0.263 N
HETATM   20  C2  UNL     1     -24.099 -38.616   7.701  1.00  0.00     0.114 A
HETATM   21  C1  UNL     1     -24.507 -37.882   6.708  1.00  0.00     0.065 C
HETATM   22  N1  UNL     1     -22.772 -38.991   7.987  1.00  0.00    -0.337 N
HETATM   23  C3  UNL     1     -22.707 -39.712   9.030  1.00  0.00     0.199 A
ATOM     24  H1  UNL     1     -21.965 -38.718   7.427  1.00  0.00     0.168 HD
HETATM   25  N2  UNL     1     -24.042 -39.884   9.546  1.00  0.00    -0.292 N
ATOM     26  H2  UNL     1     -24.296 -40.418  10.378  1.00  0.00     0.188 HD
ENDBRANCH  18  19
BRANCH  18  27
HETATM   27  C5  UNL     1     -26.919 -40.085   7.806  1.00  0.00     0.032 C
HETATM   28  C6  UNL     1     -27.907 -39.646   6.801  1.00  0.00     0.007 C
ENDBRANCH  18  27
ENDBRANCH  15  18
ENDBRANCH  13  14
ENDBRANCH  12  13
ENDBRANCH   6  12
ENDBRANCH   1   4
TORSDOF 7
ENDMDL