MODEL 5
REMARK VINA RESULT: -8.044653946      2.025      2.849
REMARK  7 active torsions:
REMARK  status: ('A' for Active; 'I' for Inactive)
REMARK    1  A    between atoms: C2_4  and  C3_5
REMARK    2  A    between atoms: C2_4  and  N4_19
REMARK    3  A    between atoms: C3_5  and  C4_6
REMARK    4  A    between atoms: C4_6  and  N3_9
REMARK       I    between atoms: N3_9  and  C6_11
REMARK    5  A    between atoms: C6_11  and  C7_13
REMARK    6  A    between atoms: N4_19  and  C13_21
REMARK    7  A    between atoms: C13_21  and  C14_22
ROOT
HETATM    1  C4  UNL     1     -28.473 -39.751  12.874  1.00  0.00     0.218 C
HETATM    2  C5  UNL     1     -27.784 -41.123  13.295  1.00  0.00     0.088 C
HETATM    3  N2  UNL     1     -27.329 -42.137  13.613  1.00  0.00    -0.195 NA
ENDROOT
BRANCH   1   4
HETATM    4  C3  UNL     1     -27.494 -38.786  13.409  1.00  0.00     0.061 C
BRANCH   4   5
HETATM    5  C2  UNL     1     -26.986 -38.817  14.780  1.00  0.00     0.099 C
HETATM    6  N1  UNL     1     -27.785 -38.734  15.827  1.00  0.00    -0.381 N
HETATM    7  C1  UNL     1     -27.469 -38.741  17.177  1.00  0.00     0.147 C
ATOM      8  H1  UNL     1     -28.779 -38.651  15.612  1.00  0.00     0.160 HD
BRANCH   5   9
HETATM    9  N4  UNL     1     -25.619 -38.986  14.915  1.00  0.00    -0.350 N
ATOM     10  H4  UNL     1     -25.212 -38.489  15.708  1.00  0.00     0.166 HD
BRANCH   9  11
HETATM   11  C13 UNL     1     -24.699 -39.712  14.163  1.00  0.00     0.121 C
BRANCH  11  12
HETATM   12  C14 UNL     1     -23.415 -39.158  13.703  1.00  0.00     0.071 A
HETATM   13  N5  UNL     1     -22.392 -38.705  14.390  1.00  0.00    -0.350 N
HETATM   14  C15 UNL     1     -21.314 -38.028  13.917  1.00  0.00     0.180 A
ATOM     15  H5  UNL     1     -22.409 -38.882  15.395  1.00  0.00     0.166 HD
HETATM   16  N6  UNL     1     -21.328 -37.828  12.589  1.00  0.00    -0.360 N
HETATM   17  C16 UNL     1     -22.261 -38.213  11.768  1.00  0.00     0.115 A
ATOM     18  H6  UNL     1     -20.534 -37.328  12.188  1.00  0.00     0.166 HD
HETATM   19  C17 UNL     1     -23.345 -38.906  12.301  1.00  0.00     0.077 A
HETATM   20 CL1  UNL     1     -24.649 -39.573  11.333  1.00  0.00    -0.080 Cl
ENDBRANCH  11  12
ENDBRANCH   9  11
ENDBRANCH   5   9
ENDBRANCH   4   5
ENDBRANCH   1   4
BRANCH   1  21
HETATM   21  N3  UNL     1     -28.290 -40.035  11.387  1.00  0.00    -0.340 N
HETATM   22  C6  UNL     1     -29.301 -39.595  10.487  1.00  0.00     0.223 C
HETATM   23  O1  UNL     1     -30.263 -38.906  10.953  1.00  0.00    -0.273 OA
ATOM     24  H3  UNL     1     -27.464 -40.528  11.047  1.00  0.00     0.164 HD
BRANCH  22  25
HETATM   25  C7  UNL     1     -29.307 -39.917   9.076  1.00  0.00     0.078 C
HETATM   26  C8  UNL     1     -28.150 -40.839   8.707  1.00  0.00     0.014 C
HETATM   27  C9  UNL     1     -26.970 -39.929   8.449  1.00  0.00     0.001 C
HETATM   28  C10 UNL     1     -27.159 -39.266   7.089  1.00  0.00     0.000 C
HETATM   29  C11 UNL     1     -28.622 -39.120   6.819  1.00  0.00     0.001 C
HETATM   30  C12 UNL     1     -29.401 -38.813   8.089  1.00  0.00     0.014 C
ENDBRANCH  22  25
ENDBRANCH   1  21
TORSDOF 7
ENDMDL