MODEL 2
REMARK VINA RESULT: -8.134037685      0.863      1.189
REMARK  7 active torsions:
REMARK  status: ('A' for Active; 'I' for Inactive)
REMARK    1  A    between atoms: C4_4  and  C5_5
REMARK    2  A    between atoms: C5_5  and  O1_6
REMARK    3  A    between atoms: C5_5  and  N1_8
REMARK    4  A    between atoms: C11_14  and  N2_15
REMARK       I    between atoms: N2_15  and  C12_17
REMARK    5  A    between atoms: C12_17  and  C13_19
REMARK    6  A    between atoms: C13_19  and  N3_20
REMARK    7  A    between atoms: N4_23  and  C16_24
ROOT
HETATM    1  N2  UNL     1      -2.921  -8.320  20.616  1.00  0.00    -0.316 N
ATOM      2  H2  UNL     1      -3.226  -7.753  19.825  1.00  0.00     0.169 HD
HETATM    3  C12 UNL     1      -1.979  -7.723  21.452  1.00  0.00     0.261 C
HETATM    4  O2  UNL     1      -1.490  -8.377  22.440  1.00  0.00    -0.267 OA
ENDROOT
BRANCH   1   5
HETATM    5  C11 UNL     1      -3.518  -9.613  20.712  1.00  0.00     0.091 A
HETATM    6  C4  UNL     1      -3.692 -10.659  19.860  1.00  0.00     0.050 A
HETATM    7  C3  UNL     1      -4.563 -11.623  20.231  1.00  0.00     0.033 A
HETATM    8  C2  UNL     1      -5.203 -11.487  21.439  1.00  0.00    -0.018 A
HETATM    9  C1  UNL     1      -6.211 -12.441  22.048  1.00  0.00     0.056 C
HETATM   10  S1  UNL     1      -4.591 -10.032  22.035  1.00  0.00    -0.076 SA
BRANCH   6  11
HETATM   11  C5  UNL     1      -2.729 -10.896  18.748  1.00  0.00     0.151 C
BRANCH  11  12
HETATM   12  O1  UNL     1      -1.547 -10.333  18.821  1.00  0.00    -0.345 OA
ATOM     13  H1  UNL     1      -0.780 -10.876  18.682  1.00  0.00     0.219 HD
ENDBRANCH  11  12
BRANCH  11  14
HETATM   14  N1  UNL     1      -2.890 -11.647  17.590  1.00  0.00    -0.361 N
HETATM   15  C6  UNL     1      -3.974 -12.539  17.327  1.00  0.00     0.125 C
HETATM   16  C7  UNL     1      -4.178 -12.540  15.800  1.00  0.00     0.020 C
HETATM   17  C8  UNL     1      -3.954 -11.137  15.236  1.00  0.00     0.003 C
HETATM   18  C9  UNL     1      -2.480 -10.779  15.355  1.00  0.00     0.020 C
HETATM   19  C10 UNL     1      -1.887 -11.575  16.500  1.00  0.00     0.125 C
ENDBRANCH  11  14
ENDBRANCH   6  11
ENDBRANCH   1   5
BRANCH   3  20
HETATM   20  C13 UNL     1      -1.507  -6.333  21.235  1.00  0.00     0.161 C
BRANCH  20  21
HETATM   21  N3  UNL     1      -0.188  -6.259  20.768  1.00  0.00    -0.379 N
HETATM   22  C14 UNL     1       0.183  -7.024  19.636  1.00  0.00     0.142 C
HETATM   23  C15 UNL     1       0.168  -6.272  18.337  1.00  0.00     0.142 C
HETATM   24  N4  UNL     1       0.465  -4.883  18.411  1.00  0.00    -0.386 N
HETATM   25  C22 UNL     1       0.117  -4.221  19.601  1.00  0.00     0.078 C
HETATM   26  C23 UNL     1       0.438  -4.973  20.870  1.00  0.00     0.166 C
BRANCH  24  27
HETATM   27  C16 UNL     1       1.628  -4.465  17.718  1.00  0.00     0.083 C
HETATM   28  C17 UNL     1       2.334  -3.286  18.292  1.00  0.00     0.025 C
HETATM   29  C18 UNL     1       3.648  -3.634  18.956  1.00  0.00     0.002 C
HETATM   30  C19 UNL     1       4.664  -4.135  17.954  1.00  0.00     0.000 C
HETATM   31  C20 UNL     1       3.876  -4.905  16.897  1.00  0.00     0.002 C
HETATM   32  C21 UNL     1       2.654  -5.566  17.538  1.00  0.00     0.025 C
ENDBRANCH  24  27
ENDBRANCH  20  21
ENDBRANCH   3  20
TORSDOF 7
ENDMDL