MODEL 1
REMARK VINA RESULT: -7.843301826      0.000      0.000
REMARK  7 active torsions:
REMARK  status: ('A' for Active; 'I' for Inactive)
REMARK    1  A    between atoms: C3_3  and  C4_4
REMARK    2  A    between atoms: C4_4  and  C5_5
REMARK    3  A    between atoms: C18_22  and  O5_23
REMARK    4  A    between atoms: O5_23  and  C19_24
REMARK    5  A    between atoms: C19_24  and  C20_26
REMARK    6  A    between atoms: C20_26  and  C21_27
REMARK    7  A    between atoms: C24_30  and  O7_31
ROOT
HETATM    1  C1  UNL     1      -3.896  -9.252  23.492  1.00  0.00     0.015 C
HETATM    2  C2  UNL     1      -3.310  -8.338  22.754  1.00  0.00    -0.076 C
HETATM    3  C3  UNL     1      -3.180  -6.868  22.604  1.00  0.00     0.034 C
HETATM    4  C7  UNL     1      -1.904  -7.105  21.854  1.00  0.00    -0.003 C
HETATM    5  C8  UNL     1      -0.683  -7.147  22.757  1.00  0.00     0.021 C
HETATM    6  C9  UNL     1      -1.637  -6.370  20.624  1.00  0.00    -0.062 C
HETATM    7  C10 UNL     1      -2.295  -5.224  20.454  1.00  0.00     0.057 C
HETATM    8  C11 UNL     1      -2.113  -4.400  19.265  1.00  0.00     0.179 C
HETATM    9  O2  UNL     1      -2.589  -3.252  19.230  1.00  0.00    -0.290 OA
HETATM   10  C12 UNL     1      -1.375  -4.942  18.143  1.00  0.00     0.210 C
HETATM   11  O3  UNL     1      -0.604  -4.006  17.397  1.00  0.00    -0.307 OA
HETATM   12  C13 UNL     1       0.465  -4.722  16.873  1.00  0.00     0.260 C
HETATM   13  O4  UNL     1       1.248  -4.288  16.008  1.00  0.00    -0.265 OA
HETATM   14  C14 UNL     1       0.528  -6.075  17.501  1.00  0.00     0.119 C
HETATM   15  C15 UNL     1      -0.263  -5.783  18.739  1.00  0.00     0.040 C
HETATM   16  C16 UNL     1      -0.653  -6.886  19.598  1.00  0.00     0.025 C
HETATM   17  C17 UNL     1      -1.200  -8.108  18.997  1.00  0.00     0.044 C
HETATM   18  C18 UNL     1      -2.693  -8.274  19.032  1.00  0.00     0.162 C
HETATM   19  C24 UNL     1      -3.275  -8.603  20.338  1.00  0.00     0.157 C
HETATM   20  C25 UNL     1      -2.401  -8.461  21.528  1.00  0.00     0.058 C
ENDROOT
BRANCH  18  21
HETATM   21  O5  UNL     1      -2.993  -9.300  18.091  1.00  0.00    -0.313 OA
BRANCH  21  22
HETATM   22  C19 UNL     1      -2.149  -9.701  17.102  1.00  0.00     0.259 C
HETATM   23  O6  UNL     1      -1.717  -8.868  16.272  1.00  0.00    -0.265 OA
BRANCH  22  24
HETATM   24  C20 UNL     1      -1.725 -11.106  16.981  1.00  0.00     0.115 C
BRANCH  24  25
HETATM   25  C21 UNL     1      -2.251 -12.028  18.030  1.00  0.00    -0.013 C
HETATM   26  C22 UNL     1      -3.537 -12.641  17.450  1.00  0.00     0.010 C
HETATM   27  C23 UNL     1      -1.310 -13.207  18.269  1.00  0.00     0.010 C
ENDBRANCH  24  25
ENDBRANCH  22  24
ENDBRANCH  21  22
ENDBRANCH  18  21
BRANCH  19  28
HETATM   28  O7  UNL     1      -3.780  -9.925  20.392  1.00  0.00    -0.392 OA
ATOM     29  H7  UNL     1      -4.174 -10.132  21.232  1.00  0.00     0.210 HD
ENDBRANCH  19  28
BRANCH   3  30
HETATM   30  C4  UNL     1      -2.957  -6.060  23.851  1.00  0.00     0.087 C
BRANCH  30  31
HETATM   31  C5  UNL     1      -3.643  -4.752  23.821  1.00  0.00     0.123 C
HETATM   32  C6  UNL     1      -4.782  -4.579  22.892  1.00  0.00     0.091 C
HETATM   33  O1  UNL     1      -3.241  -3.858  24.568  1.00  0.00    -0.298 OA
ENDBRANCH  30  31
ENDBRANCH   3  30
TORSDOF 7
ENDMDL