MODEL 1
REMARK VINA RESULT: -6.931484953      0.000      0.000
REMARK  8 active torsions:
REMARK  status: ('A' for Active; 'I' for Inactive)
REMARK    1  A    between atoms: N1_2  and  C2_4
REMARK    2  A    between atoms: C2_4  and  O1_5
REMARK    3  A    between atoms: C2_4  and  C3_7
REMARK    4  A    between atoms: C10_16  and  C11_17
REMARK    5  A    between atoms: C14_20  and  C15_21
REMARK    6  A    between atoms: C15_21  and  N2_22
REMARK    7  A    between atoms: C16_24  and  O3_25
REMARK    8  A    between atoms: C16_24  and  N3_27
ROOT
HETATM    1  C11 UNL     1      -3.090  -6.021  23.398  1.00  0.00    -0.033 A
HETATM    2  C12 UNL     1      -1.907  -5.904  24.070  1.00  0.00     0.012 A
HETATM    3  C13 UNL     1      -1.514  -4.692  24.645  1.00  0.00     0.012 A
HETATM    4  C14 UNL     1      -2.305  -3.600  24.550  1.00  0.00    -0.007 A
HETATM    5  C19 UNL     1      -3.529  -3.679  23.867  1.00  0.00     0.076 A
HETATM    6  O4  UNL     1      -4.278  -2.650  23.774  1.00  0.00    -0.355 OA
HETATM    7  C20 UNL     1      -5.063  -1.657  23.650  1.00  0.00     0.210 C
HETATM    8  C21 UNL     1      -3.892  -4.906  23.303  1.00  0.00     0.048 A
ENDROOT
BRANCH   4   9
HETATM    9  C15 UNL     1      -1.935  -2.307  25.138  1.00  0.00     0.164 C
BRANCH   9  10
HETATM   10  N2  UNL     1      -2.637  -1.956  26.331  1.00  0.00    -0.352 N
HETATM   11  C16 UNL     1      -2.044  -1.892  27.499  1.00  0.00     0.214 C
ATOM     12  H2  UNL     1      -3.634  -1.748  26.273  1.00  0.00     0.163 HD
BRANCH  11  13
HETATM   13  O3  UNL     1      -2.777  -1.546  28.624  1.00  0.00    -0.333 OA
ATOM     14  H3  UNL     1      -2.437  -1.748  29.488  1.00  0.00     0.220 HD
ENDBRANCH  11  13
BRANCH  11  15
HETATM   15  N3  UNL     1      -0.668  -2.165  27.659  1.00  0.00    -0.356 N
HETATM   16  C17 UNL     1       0.318  -1.128  27.508  1.00  0.00     0.152 C
HETATM   17  C18 UNL     1      -0.245  -3.504  27.975  1.00  0.00     0.152 C
ENDBRANCH  11  15
ENDBRANCH   9  10
ENDBRANCH   4   9
BRANCH   1  18
HETATM   18  C10 UNL     1      -3.495  -7.266  22.789  1.00  0.00     0.024 C
HETATM   19  C9  UNL     1      -3.315  -7.652  21.546  1.00  0.00     0.011 C
HETATM   20  C8  UNL     1      -3.819  -8.994  21.147  1.00  0.00     0.193 C
HETATM   21  C22 UNL     1      -2.671  -6.832  20.498  1.00  0.00     0.165 C
HETATM   22  C5  UNL     1      -3.163  -9.723  20.033  1.00  0.00     0.056 A
HETATM   23  O2  UNL     1      -4.773  -9.425  21.784  1.00  0.00    -0.287 OA
HETATM   24  C4  UNL     1      -2.125  -9.050  19.469  1.00  0.00     0.087 A
HETATM   25  C6  UNL     1      -3.442 -10.967  19.545  1.00  0.00    -0.024 A
HETATM   26  S1  UNL     1      -1.542 -10.110  18.291  1.00  0.00    -0.067 SA
HETATM   27  N4  UNL     1      -1.707  -7.718  19.851  1.00  0.00    -0.374 N
HETATM   28  C3  UNL     1      -2.658 -11.437  18.534  1.00  0.00     0.064 A
HETATM   29  C23 UNL     1      -0.353  -7.348  19.569  1.00  0.00     0.150 C
HETATM   30  C7  UNL     1      -4.591 -11.838  20.060  1.00  0.00     0.050 C
BRANCH  28  31
HETATM   31  C2  UNL     1      -2.630 -12.678  17.763  1.00  0.00     0.153 C
BRANCH  31  32
HETATM   32  N1  UNL     1      -3.594 -13.139  16.871  1.00  0.00    -0.374 N
HETATM   33  C1  UNL     1      -4.221 -12.100  15.980  1.00  0.00     0.148 C
ATOM     34  H1  UNL     1      -3.861 -14.123  16.824  1.00  0.00     0.161 HD
ENDBRANCH  31  32
BRANCH  31  35
HETATM   35  O1  UNL     1      -1.563 -13.407  17.965  1.00  0.00    -0.345 OA
ATOM     36  H1  UNL     1      -1.671 -14.336  18.132  1.00  0.00     0.219 HD
ENDBRANCH  31  35
ENDBRANCH  28  31
ENDBRANCH   1  18
TORSDOF 8
ENDMDL