MODEL 4
REMARK VINA RESULT: -7.878945754      2.085      3.250
REMARK  6 active torsions:
REMARK  status: ('A' for Active; 'I' for Inactive)
REMARK    1  A    between atoms: C4_4  and  C5_5
REMARK    2  A    between atoms: C5_5  and  C6_6
REMARK    3  A    between atoms: C8_10  and  O3_11
REMARK    4  A    between atoms: O3_11  and  C9_12
REMARK    5  A    between atoms: C9_12  and  C10_14
REMARK    6  A    between atoms: C10_14  and  C11_15
ROOT
HETATM    1  C1  UNL     1      -2.750  -6.080  24.288  1.00  0.00     0.018 C
HETATM    2  C2  UNL     1      -2.744  -6.681  23.238  1.00  0.00    -0.074 C
HETATM    3  C3  UNL     1      -2.734  -7.372  21.982  1.00  0.00     0.058 A
HETATM    4  C4  UNL     1      -3.573  -8.471  21.804  1.00  0.00    -0.024 A
HETATM    5  C7  UNL     1      -3.569  -9.148  20.590  1.00  0.00     0.047 A
HETATM    6  C8  UNL     1      -2.739  -8.734  19.563  1.00  0.00     0.096 A
HETATM    7  C14 UNL     1      -1.905  -7.648  19.727  1.00  0.00     0.079 A
HETATM    8  C15 UNL     1      -1.931  -7.006  20.929  1.00  0.00     0.105 A
HETATM    9  O5  UNL     1      -1.163  -5.899  21.275  1.00  0.00    -0.338 OA
HETATM   10  C16 UNL     1      -0.156  -5.205  20.586  1.00  0.00     0.069 C
HETATM   11  C17 UNL     1       0.772  -4.682  21.690  1.00  0.00     0.047 C
HETATM   12  C18 UNL     1      -0.794  -3.967  19.991  1.00  0.00     0.047 C
HETATM   13  C19 UNL     1       0.677  -5.964  19.651  1.00  0.00     0.062 C
HETATM   14  C20 UNL     1       1.650  -5.004  19.048  1.00  0.00    -0.008 C
HETATM   15  C21 UNL     1       1.330  -4.767  17.772  1.00  0.00    -0.019 C
HETATM   16  C22 UNL     1       2.071  -3.857  16.838  1.00  0.00     0.052 C
HETATM   17  C23 UNL     1       0.142  -5.542  17.439  1.00  0.00     0.167 C
HETATM   18  O6  UNL     1      -0.673  -5.371  16.520  1.00  0.00    -0.292 OA
HETATM   19  C24 UNL     1       0.125  -6.608  18.471  1.00  0.00     0.145 C
HETATM   20  C25 UNL     1      -1.117  -7.340  18.562  1.00  0.00     0.177 C
HETATM   21  O7  UNL     1      -1.578  -7.771  17.464  1.00  0.00    -0.291 OA
ENDROOT
BRANCH   4  22
HETATM   22  C5  UNL     1      -4.442  -8.890  22.903  1.00  0.00     0.153 C
BRANCH  22  23
HETATM   23  C6  UNL     1      -4.411 -10.341  23.178  1.00  0.00     0.176 C
HETATM   24  O1  UNL     1      -3.593 -10.893  23.964  1.00  0.00    -0.648 OA
HETATM   25  O2  UNL     1      -5.337 -11.143  22.532  1.00  0.00    -0.648 OA
ENDBRANCH  22  23
ENDBRANCH   4  22
BRANCH   6  26
HETATM   26  O3  UNL     1      -2.761  -9.438  18.354  1.00  0.00    -0.278 OA
BRANCH  26  27
HETATM   27  C9  UNL     1      -2.354 -10.759  18.317  1.00  0.00     0.264 C
HETATM   28  O4  UNL     1      -1.214 -11.054  18.717  1.00  0.00    -0.265 OA
BRANCH  27  29
HETATM   29  C10 UNL     1      -3.284 -11.782  17.808  1.00  0.00     0.115 C
BRANCH  29  30
HETATM   30  C11 UNL     1      -3.593 -11.465  16.354  1.00  0.00    -0.013 C
HETATM   31  C12 UNL     1      -4.473 -12.582  15.827  1.00  0.00     0.010 C
HETATM   32  C13 UNL     1      -2.289 -11.392  15.550  1.00  0.00     0.010 C
ENDBRANCH  29  30
ENDBRANCH  27  29
ENDBRANCH  26  27
ENDBRANCH   6  26
TORSDOF 6
ENDMDL