MODEL 4
REMARK VINA RESULT: -6.362940423      2.400      5.318
REMARK  5 active torsions:
REMARK  status: ('A' for Active; 'I' for Inactive)
REMARK    1  A    between atoms: O1_2  and  C2_3
REMARK    2  A    between atoms: C5_6  and  O2_7
REMARK    3  A    between atoms: C9_11  and  O3_12
REMARK    4  A    between atoms: C11_16  and  C12_17
REMARK    5  A    between atoms: C12_17  and  C14_19
ROOT
HETATM    1  C2  UNL     1      -3.068 -10.246  19.279  1.00  0.00     0.112 A
HETATM    2  C3  UNL     1      -3.901 -10.506  20.350  1.00  0.00     0.009 A
HETATM    3  C4  UNL     1      -4.615 -11.792  20.412  1.00  0.00     0.054 C
HETATM    4  C5  UNL     1      -4.077  -9.587  21.359  1.00  0.00     0.093 A
HETATM    5  C7  UNL     1      -3.398  -8.380  21.291  1.00  0.00     0.078 A
HETATM    6  C8  UNL     1      -2.548  -8.133  20.190  1.00  0.00     0.088 A
HETATM    7  C9  UNL     1      -2.385  -9.036  19.204  1.00  0.00     0.128 A
HETATM    8  N1  UNL     1      -1.721  -6.947  19.976  1.00  0.00    -0.342 N
HETATM    9  C10 UNL     1      -0.598  -7.240  19.071  1.00  0.00     0.149 C
HETATM   10  C11 UNL     1       0.596  -6.230  19.490  1.00  0.00     0.037 C
HETATM   11  C15 UNL     1      -0.101  -4.896  19.468  1.00  0.00    -0.051 C
HETATM   12  C16 UNL     1       0.286  -4.336  18.404  1.00  0.00     0.086 C
HETATM   13  C17 UNL     1       0.834  -3.936  17.233  1.00  0.00     0.017 C
HETATM   14  C18 UNL     1       1.235  -5.552  16.999  1.00  0.00     0.015 C
HETATM   15  C19 UNL     1       1.592  -6.003  18.428  1.00  0.00     0.075 C
HETATM   16  C20 UNL     1       1.958  -4.647  18.884  1.00  0.00     0.140 C
HETATM   17  O5  UNL     1       2.795  -3.946  19.335  1.00  0.00    -0.297 OA
HETATM   18  C21 UNL     1      -1.232  -4.625  20.380  1.00  0.00     0.034 C
HETATM   19  C22 UNL     1      -1.997  -5.683  20.593  1.00  0.00     0.035 C
HETATM   20  C23 UNL     1      -3.050  -5.287  21.532  1.00  0.00     0.034 C
HETATM   21  C24 UNL     1      -3.801  -6.047  22.321  1.00  0.00     0.058 C
HETATM   22  C25 UNL     1      -3.726  -7.506  22.414  1.00  0.00     0.187 C
HETATM   23  O6  UNL     1      -3.952  -8.027  23.499  1.00  0.00    -0.287 OA
ENDROOT
BRANCH  10  24
HETATM   24  C12 UNL     1       1.074  -6.577  20.806  1.00  0.00    -0.031 C
HETATM   25  C13 UNL     1       0.806  -7.875  21.465  1.00  0.00     0.048 C
BRANCH  24  26
HETATM   26  C14 UNL     1       0.922  -5.455  21.819  1.00  0.00     0.262 C
HETATM   27  O4  UNL     1       0.679  -5.763  22.946  1.00  0.00    -0.302 OA
ENDBRANCH  24  26
ENDBRANCH  10  24
BRANCH   7  28
HETATM   28  O3  UNL     1      -1.573  -8.783  18.145  1.00  0.00    -0.356 OA
ATOM     29  H3  UNL     1      -1.096  -7.962  18.100  1.00  0.00     0.218 HD
ENDBRANCH   7  28
BRANCH   4  30
HETATM   30  O2  UNL     1      -4.907  -9.819  22.444  1.00  0.00    -0.354 OA
HETATM   31  C6  UNL     1      -4.651 -10.881  23.365  1.00  0.00     0.210 C
ENDBRANCH   4  30
BRANCH   1  32
HETATM   32  O1  UNL     1      -2.873 -11.148  18.251  1.00  0.00    -0.352 OA
HETATM   33  C1  UNL     1      -1.835 -12.095  18.206  1.00  0.00     0.210 C
ENDBRANCH   1  32
TORSDOF 5
ENDMDL