MODEL 3
REMARK VINA RESULT: -7.248708925      1.459      1.823
REMARK  9 active torsions:
REMARK  status: ('A' for Active; 'I' for Inactive)
REMARK    1  A    between atoms: C2_2  and  O2_4
REMARK    2  A    between atoms: O2_4  and  C3_5
REMARK    3  A    between atoms: N1_8  and  C6_9
REMARK    4  A    between atoms: C6_9  and  C7_10
REMARK    5  A    between atoms: C7_10  and  C8_11
REMARK    6  A    between atoms: C12_15  and  O3_16
REMARK    7  A    between atoms: O3_16  and  C13_17
REMARK    8  A    between atoms: C13_17  and  C14_19
REMARK    9  A    between atoms: C14_19  and  N2_20
ROOT
HETATM    1  C8  UNL     1      -1.208  -5.933  19.141  1.00  0.00    -0.008 C
HETATM    2  C9  UNL     1      -1.572  -6.838  17.993  1.00  0.00     0.010 C
HETATM    3  C10 UNL     1      -2.529  -7.856  18.581  1.00  0.00    -0.003 C
HETATM    4  C11 UNL     1      -2.911  -8.800  17.459  1.00  0.00     0.038 C
HETATM    5  C12 UNL     1      -2.435 -10.162  17.862  1.00  0.00     0.133 C
HETATM    6  C15 UNL     1      -1.393  -9.867  18.895  1.00  0.00     0.042 C
HETATM    7  C16 UNL     1      -1.935  -8.658  19.683  1.00  0.00    -0.034 C
HETATM    8  C17 UNL     1      -3.102  -9.214  20.492  1.00  0.00     0.016 C
HETATM    9  C18 UNL     1      -0.875  -8.055  20.478  1.00  0.00     0.003 C
HETATM   10  C19 UNL     1      -1.164  -7.853  21.962  1.00  0.00    -0.009 C
HETATM   11  C20 UNL     1      -2.141  -6.766  22.222  1.00  0.00     0.005 C
HETATM   12  C21 UNL     1      -1.384  -5.446  22.002  1.00  0.00     0.005 C
HETATM   13  C22 UNL     1      -0.106  -5.944  21.388  1.00  0.00    -0.009 C
HETATM   14  C23 UNL     1       0.157  -7.137  22.329  1.00  0.00     0.010 C
HETATM   15  C24 UNL     1      -0.360  -6.719  20.094  1.00  0.00    -0.001 C
ENDROOT
BRANCH   1  16
HETATM   16  C7  UNL     1      -0.389  -4.787  18.604  1.00  0.00     0.035 C
BRANCH  16  17
HETATM   17  C6  UNL     1      -0.009  -4.911  17.167  1.00  0.00     0.273 C
BRANCH  17  18
HETATM   18  N1  UNL     1       1.395  -4.600  16.945  1.00  0.00     0.091 N
HETATM   19  C5  UNL     1       1.821  -3.446  17.709  1.00  0.00     0.275 C
HETATM   20  C4  UNL     1       3.311  -3.641  17.984  1.00  0.00     0.064 C
HETATM   21  C3  UNL     1       3.613  -5.004  17.380  1.00  0.00     0.161 C
HETATM   22  C25 UNL     1       2.226  -5.655  17.495  1.00  0.00     0.304 C
BRANCH  21  23
HETATM   23  O2  UNL     1       3.871  -4.905  15.990  1.00  0.00    -0.315 OA
BRANCH  23  24
HETATM   24  C2  UNL     1       4.202  -6.007  15.214  1.00  0.00     0.255 C
HETATM   25  C1  UNL     1       3.350  -6.349  14.030  1.00  0.00     0.126 C
HETATM   26  O1  UNL     1       5.209  -6.661  15.549  1.00  0.00    -0.266 OA
ENDBRANCH  23  24
ENDBRANCH  21  23
ENDBRANCH  17  18
ENDBRANCH  16  17
ENDBRANCH   1  16
BRANCH   5  27
HETATM   27  O3  UNL     1      -1.880 -10.904  16.784  1.00  0.00    -0.315 OA
BRANCH  27  28
HETATM   28  C13 UNL     1      -2.582 -11.143  15.614  1.00  0.00     0.284 C
HETATM   29  O4  UNL     1      -2.043 -10.794  14.532  1.00  0.00    -0.263 OA
BRANCH  28  30
HETATM   30  C14 UNL     1      -3.921 -11.780  15.548  1.00  0.00     0.340 C
BRANCH  30  31
HETATM   31  N2  UNL     1      -3.993 -13.026  16.246  1.00  0.00    -0.070 N
ATOM     32  H23 UNL     1      -4.773 -13.588  15.903  1.00  0.00     0.274 HD
ATOM     33  H22 UNL     1      -3.218 -13.634  15.981  1.00  0.00     0.274 HD
ATOM     34  H21 UNL     1      -4.042 -12.922  17.259  1.00  0.00     0.274 HD
ENDBRANCH  30  31
ENDBRANCH  28  30
ENDBRANCH  27  28
ENDBRANCH   5  27
TORSDOF 9
ENDMDL