MODEL 1
REMARK VINA RESULT: -7.675414762      0.000      0.000
REMARK  7 active torsions:
REMARK  status: ('A' for Active; 'I' for Inactive)
REMARK    1  A    between atoms: C2_2  and  O1_3
REMARK    2  A    between atoms: O1_3  and  N1_4
REMARK    3  A    between atoms: C3_6  and  C5_8
REMARK       I    between atoms: N2_11  and  C8_12
REMARK    4  A    between atoms: C8_12  and  O3_14
REMARK    5  A    between atoms: O3_14  and  C9_15
REMARK    6  A    between atoms: C15_21  and  N3_22
REMARK       I    between atoms: N3_22  and  C16_24
REMARK    7  A    between atoms: C16_24  and  O5_26
ROOT
HETATM    1  C9  UNL     1      -2.834  -7.805  24.014  1.00  0.00     0.135 C
HETATM    2  C10 UNL     1      -1.762  -8.737  23.419  1.00  0.00     0.051 C
HETATM    3  C11 UNL     1      -0.390  -8.336  23.850  1.00  0.00    -0.008 C
HETATM    4  C12 UNL     1      -0.290  -8.435  25.337  1.00  0.00     0.017 C
HETATM    5  C13 UNL     1      -1.279  -7.484  25.970  1.00  0.00     0.061 C
HETATM    6  C14 UNL     1      -1.016  -6.069  25.483  1.00  0.00     0.043 C
HETATM    7  C15 UNL     1      -1.133  -6.022  23.997  1.00  0.00     0.039 C
HETATM    8  C18 UNL     1      -0.149  -6.930  23.342  1.00  0.00     0.036 C
HETATM    9  C19 UNL     1      -2.541  -6.429  23.535  1.00  0.00     0.078 C
HETATM   10  C20 UNL     1      -2.629  -7.860  25.469  1.00  0.00     0.166 C
HETATM   11  O6  UNL     1      -3.448  -8.181  26.307  1.00  0.00    -0.294 OA
ENDROOT
BRANCH   1  12
HETATM   12  O3  UNL     1      -4.044  -8.336  23.577  1.00  0.00    -0.285 OA
BRANCH  12  13
HETATM   13  C8  UNL     1      -4.246  -9.650  23.203  1.00  0.00     0.363 C
HETATM   14  N2  UNL     1      -4.192 -10.023  21.846  1.00  0.00    -0.328 N
HETATM   15  C7  UNL     1      -3.925  -9.032  20.848  1.00  0.00     0.129 C
HETATM   16  C21 UNL     1      -4.408 -11.394  21.492  1.00  0.00     0.129 C
HETATM   17  C6  UNL     1      -2.933  -9.477  19.804  1.00  0.00     0.030 C
HETATM   18  C5  UNL     1      -2.857 -10.970  19.635  1.00  0.00     0.036 C
HETATM   19  C22 UNL     1      -4.105 -11.682  20.039  1.00  0.00     0.030 C
HETATM   20  O2  UNL     1      -4.475 -10.454  24.143  1.00  0.00    -0.238 OA
BRANCH  18  21
HETATM   21  C3  UNL     1      -2.571 -11.257  18.213  1.00  0.00     0.010 C
HETATM   22  N1  UNL     1      -3.112 -10.544  17.303  1.00  0.00    -0.275 N
ATOM     23  H1  UNL     1      -3.734  -9.788  17.593  1.00  0.00     0.193 HD
HETATM   24  C4  UNL     1      -1.665 -12.357  17.785  1.00  0.00     0.066 C
BRANCH  22  25
HETATM   25  O1  UNL     1      -2.909 -10.732  15.962  1.00  0.00    -0.281 OA
BRANCH  25  26
HETATM   26  C2  UNL     1      -3.936 -11.106  15.059  1.00  0.00     0.196 C
HETATM   27  C1  UNL     1      -4.679 -12.272  15.664  1.00  0.00     0.036 C
ENDBRANCH  25  26
ENDBRANCH  22  25
ENDBRANCH  18  21
ENDBRANCH  12  13
ENDBRANCH   1  12
BRANCH   7  28
HETATM   28  N3  UNL     1      -0.867  -4.662  23.550  1.00  0.00    -0.328 N
HETATM   29  C16 UNL     1      -0.858  -4.252  22.198  1.00  0.00     0.360 C
HETATM   30  O4  UNL     1      -1.079  -4.994  21.206  1.00  0.00    -0.239 OA
ATOM     31  H3  UNL     1      -0.674  -3.957  24.262  1.00  0.00     0.165 HD
BRANCH  29  32
HETATM   32  O5  UNL     1      -0.587  -2.910  21.851  1.00  0.00    -0.309 OA
HETATM   33  C17 UNL     1      -0.366  -2.515  20.515  1.00  0.00     0.215 C
ENDBRANCH  29  32
ENDBRANCH   7  28
TORSDOF 7
ENDMDL