MODEL 5
REMARK VINA RESULT: -7.312772391      1.661      3.756
REMARK  7 active torsions:
REMARK  status: ('A' for Active; 'I' for Inactive)
REMARK    1  A    between atoms: C2_2  and  O2_4
REMARK    2  A    between atoms: O2_4  and  C3_5
REMARK    3  A    between atoms: C5_7  and  C6_8
REMARK    4  A    between atoms: C6_8  and  C7_9
REMARK    5  A    between atoms: C7_9  and  C8_10
REMARK    6  A    between atoms: C8_10  and  N1_11
REMARK    7  A    between atoms: C16_20  and  O4_21
ROOT
HETATM    1  C3  UNL     1      -2.235  -5.858  21.425  1.00  0.00     0.177 C
HETATM    2  C4  UNL     1      -2.084  -5.452  20.010  1.00  0.00    -0.040 C
HETATM    3  C5  UNL     1      -1.522  -6.100  18.991  1.00  0.00    -0.072 C
HETATM    4  C15 UNL     1      -1.634  -5.257  17.729  1.00  0.00     0.067 C
HETATM    5  C16 UNL     1      -1.622  -3.856  18.387  1.00  0.00     0.131 C
HETATM    6  C17 UNL     1      -2.574  -4.166  19.458  1.00  0.00     0.057 C
HETATM    7  C18 UNL     1      -2.975  -3.122  20.401  1.00  0.00     0.067 C
HETATM    8  C19 UNL     1      -1.926  -2.260  21.005  1.00  0.00     0.013 C
HETATM    9  C20 UNL     1      -1.876  -2.394  22.528  1.00  0.00     0.006 C
HETATM   10  C21 UNL     1      -1.695  -3.867  22.886  1.00  0.00    -0.000 C
HETATM   11  C22 UNL     1      -0.297  -4.266  22.543  1.00  0.00     0.011 C
HETATM   12  C23 UNL     1      -2.765  -4.723  22.285  1.00  0.00     0.051 C
HETATM   13  C24 UNL     1      -3.588  -5.308  23.441  1.00  0.00     0.027 C
HETATM   14  C25 UNL     1      -3.654  -3.829  21.514  1.00  0.00     0.143 C
HETATM   15  O5  UNL     1      -4.807  -3.695  21.770  1.00  0.00    -0.297 OA
ENDROOT
BRANCH   3  16
HETATM   16  C6  UNL     1      -0.860  -7.438  18.945  1.00  0.00     0.036 C
BRANCH  16  17
HETATM   17  C7  UNL     1      -1.461  -8.248  17.800  1.00  0.00     0.034 C
BRANCH  17  18
HETATM   18  C8  UNL     1      -2.856  -8.708  18.136  1.00  0.00     0.273 C
BRANCH  18  19
HETATM   19  N1  UNL     1      -3.036 -10.119  17.981  1.00  0.00     0.093 N
HETATM   20  C9  UNL     1      -2.092 -10.899  18.748  1.00  0.00     0.303 C
HETATM   21  C10 UNL     1      -2.390 -12.354  18.584  1.00  0.00     0.146 C
HETATM   22  C11 UNL     1      -1.125 -13.157  18.281  1.00  0.00     0.041 C
HETATM   23  O3  UNL     1      -3.397 -12.638  17.688  1.00  0.00    -0.378 OA
HETATM   24  C12 UNL     1      -3.284 -12.005  16.476  1.00  0.00     0.146 C
HETATM   25  C13 UNL     1      -4.583 -12.247  15.705  1.00  0.00     0.041 C
HETATM   26  C14 UNL     1      -3.124 -10.519  16.609  1.00  0.00     0.303 C
ENDBRANCH  18  19
ENDBRANCH  17  18
ENDBRANCH  16  17
ENDBRANCH   3  16
BRANCH   1  27
HETATM   27  O2  UNL     1      -3.246  -6.859  21.482  1.00  0.00    -0.310 OA
BRANCH  27  28
HETATM   28  C2  UNL     1      -3.035  -8.183  21.762  1.00  0.00     0.255 C
HETATM   29  C1  UNL     1      -4.043  -9.258  21.620  1.00  0.00     0.126 C
HETATM   30  O1  UNL     1      -1.892  -8.543  22.177  1.00  0.00    -0.266 OA
ENDBRANCH  27  28
ENDBRANCH   1  27
BRANCH   5  31
HETATM   31  O4  UNL     1      -0.303  -3.671  18.712  1.00  0.00    -0.395 OA
ATOM     32  H4  UNL     1      -0.231  -4.076  19.568  1.00  0.00     0.210 HD
ENDBRANCH   5  31
TORSDOF 7
ENDMDL