MODEL 4
REMARK VINA RESULT: -7.256536171      0.842      1.121
REMARK  8 active torsions:
REMARK  status: ('A' for Active; 'I' for Inactive)
REMARK    1  A    between atoms: C2_2  and  C3_3
REMARK    2  A    between atoms: C3_3  and  C4_4
REMARK    3  A    between atoms: C4_4  and  O1_5
REMARK    4  A    between atoms: O1_5  and  C5_6
REMARK    5  A    between atoms: C5_6  and  C6_8
REMARK    6  A    between atoms: C6_8  and  C8_10
REMARK    7  A    between atoms: N1_13  and  C11_14
REMARK    8  A    between atoms: C18_24  and  N2_25
REMARK       I    between atoms: N2_25  and  C19_27
ROOT
HETATM    1  C4  UNL     1      -2.075  -8.275  19.770  1.00  0.00     0.135 C
HETATM    2  C10 UNL     1      -0.867  -7.467  20.017  1.00  0.00     0.121 C
HETATM    3  N1  UNL     1      -0.866  -6.538  21.067  1.00  0.00    -0.274 N
HETATM    4  S1  UNL     1      -1.720  -6.786  22.437  1.00  0.00     0.265 S
HETATM    5  O3  UNL     1      -2.599  -5.592  22.764  1.00  0.00    -0.200 OA
HETATM    6  O4  UNL     1      -0.954  -7.118  23.680  1.00  0.00    -0.200 OA
HETATM    7  C15 UNL     1      -2.828  -8.143  22.188  1.00  0.00     0.089 A
HETATM    8  C16 UNL     1      -3.608  -8.608  23.198  1.00  0.00     0.028 A
HETATM    9  C17 UNL     1      -4.463  -9.676  22.936  1.00  0.00     0.031 A
HETATM   10  C18 UNL     1      -4.563 -10.285  21.706  1.00  0.00     0.035 A
HETATM   11  C21 UNL     1      -3.724  -9.741  20.730  1.00  0.00     0.041 A
HETATM   12  C22 UNL     1      -2.867  -8.686  20.958  1.00  0.00     0.008 A
ENDROOT
BRANCH   1  13
HETATM   13  C3  UNL     1      -3.057  -7.631  18.821  1.00  0.00     0.076 C
BRANCH  13  14
HETATM   14  C2  UNL     1      -2.580  -6.319  18.318  1.00  0.00    -0.033 C
HETATM   15  C1  UNL     1      -3.072  -5.170  18.763  1.00  0.00     0.007 C
ENDBRANCH  13  14
ENDBRANCH   1  13
BRANCH   1  16
HETATM   16  O1  UNL     1      -1.656  -9.494  19.188  1.00  0.00    -0.299 OA
BRANCH  16  17
HETATM   17  C5  UNL     1      -1.846  -9.900  17.900  1.00  0.00     0.264 C
HETATM   18  O2  UNL     1      -1.407  -9.199  16.966  1.00  0.00    -0.265 OA
BRANCH  17  19
HETATM   19  C6  UNL     1      -2.567 -11.163  17.566  1.00  0.00     0.081 C
HETATM   20  C7  UNL     1      -2.180 -11.704  16.227  1.00  0.00     0.020 C
BRANCH  19  21
HETATM   21  C8  UNL     1      -2.259 -12.168  18.673  1.00  0.00     0.010 C
HETATM   22  C9  UNL     1      -1.242 -13.179  18.222  1.00  0.00     0.006 C
ENDBRANCH  19  21
ENDBRANCH  17  19
ENDBRANCH  16  17
ENDBRANCH   1  16
BRANCH   3  23
HETATM   23  C11 UNL     1       0.356  -5.801  21.124  1.00  0.00     0.036 C
HETATM   24  C12 UNL     1       1.036  -5.911  19.775  1.00  0.00     0.039 C
HETATM   25  C13 UNL     1       0.181  -4.341  21.417  1.00  0.00     0.039 C
HETATM   26  C14 UNL     1       1.327  -6.357  22.156  1.00  0.00     0.039 C
ENDBRANCH   3  23
BRANCH  10  27
HETATM   27  N2  UNL     1      -5.415 -11.361  21.411  1.00  0.00    -0.327 N
HETATM   28  C19 UNL     1      -5.963 -12.262  22.295  1.00  0.00     0.218 C
HETATM   29  C20 UNL     1      -6.868 -13.362  21.767  1.00  0.00     0.117 C
HETATM   30  O5  UNL     1      -5.806 -12.297  23.531  1.00  0.00    -0.274 OA
ATOM     31  H2  UNL     1      -5.656 -11.490  20.429  1.00  0.00     0.169 HD
ENDBRANCH  10  27
TORSDOF 8
ENDMDL