MODEL 1
REMARK VINA RESULT: -6.233932579      0.000      0.000
REMARK  5 active torsions:
REMARK  status: ('A' for Active; 'I' for Inactive)
REMARK    1  A    between atoms: O1_2  and  C2_3
REMARK    2  A    between atoms: C2_3  and  C3_4
REMARK    3  A    between atoms: C3_4  and  N1_5
REMARK    4  A    between atoms: N3_19  and  C15_20
REMARK    5  A    between atoms: C15_20  and  C16_21
ROOT
HETATM    1  N1  UNL     1       4.052  -5.636  16.447  1.00  0.00     0.093 N
HETATM    2  C4  UNL     1       2.920  -5.898  15.623  1.00  0.00     0.275 C
HETATM    3  C5  UNL     1       1.957  -4.821  15.943  1.00  0.00     0.062 C
HETATM    4  C6  UNL     1       2.120  -4.616  17.421  1.00  0.00     0.054 C
HETATM    5  C7  UNL     1       3.660  -4.764  17.505  1.00  0.00     0.302 C
HETATM    6  C8  UNL     1       1.588  -5.622  18.321  1.00  0.00     0.042 C
HETATM    7  C9  UNL     1       0.215  -5.473  18.920  1.00  0.00    -0.029 C
HETATM    8  C10 UNL     1       0.064  -4.031  19.363  1.00  0.00     0.011 C
HETATM    9  C11 UNL     1       1.260  -3.410  19.962  1.00  0.00     0.020 C
HETATM   10  C12 UNL     1       2.197  -2.766  18.973  1.00  0.00     0.114 C
HETATM   11  N2  UNL     1       1.872  -3.245  17.685  1.00  0.00    -0.411 N
ATOM     12  H2  UNL     1       1.475  -2.631  16.974  1.00  0.00     0.154 HD
HETATM   13  C13 UNL     1      -0.787  -5.783  17.867  1.00  0.00     0.054 C
HETATM   14  C14 UNL     1      -1.941  -6.687  18.276  1.00  0.00     0.067 C
HETATM   15  N3  UNL     1      -1.567  -7.644  19.239  1.00  0.00    -0.341 N
HETATM   16  C20 UNL     1      -1.056  -7.083  20.449  1.00  0.00     0.141 C
HETATM   17  C21 UNL     1      -2.093  -6.200  21.107  1.00  0.00     0.072 C
HETATM   18  C22 UNL     1      -3.211  -6.973  21.769  1.00  0.00     0.081 C
HETATM   19  S1  UNL     1      -2.408  -7.842  23.179  1.00  0.00    -0.143 SA
HETATM   20  C23 UNL     1      -0.649  -7.865  22.619  1.00  0.00     0.244 C
HETATM   21  O2  UNL     1      -0.718  -8.140  21.283  1.00  0.00    -0.351 OA
HETATM   22  C24 UNL     1       0.201  -6.337  20.137  1.00  0.00     0.071 C
ENDROOT
BRANCH  15  23
HETATM   23  C15 UNL     1      -1.252  -8.951  18.902  1.00  0.00     0.074 C
BRANCH  23  24
HETATM   24  C16 UNL     1      -2.274  -9.953  18.553  1.00  0.00    -0.019 C
HETATM   25  C17 UNL     1      -2.854  -9.847  17.186  1.00  0.00     0.020 C
HETATM   26  C18 UNL     1      -1.494 -11.322  18.604  1.00  0.00     0.020 C
HETATM   27  C19 UNL     1      -3.352 -10.156  19.603  1.00  0.00     0.020 C
ENDBRANCH  23  24
ENDBRANCH  15  23
BRANCH   1  28
HETATM   28  C3  UNL     1       5.260  -5.263  15.757  1.00  0.00     0.298 C
BRANCH  28  29
HETATM   29  C2  UNL     1       5.229  -5.378  14.280  1.00  0.00     0.197 C
BRANCH  29  30
HETATM   30  O1  UNL     1       6.109  -6.367  13.868  1.00  0.00    -0.394 OA
HETATM   31  C1  UNL     1       6.970  -5.994  12.859  1.00  0.00     0.201 C
ENDBRANCH  29  30
ENDBRANCH  28  29
ENDBRANCH   1  28
TORSDOF 5
ENDMDL