MODEL 1
REMARK VINA RESULT: -8.960621749      0.000      0.000
REMARK  10 active torsions:
REMARK  status: ('A' for Active; 'I' for Inactive)
REMARK    1  A    between atoms: C2_2  and  C4_4
REMARK    2  A    between atoms: C4_4  and  O1_5
REMARK    3  A    between atoms: O1_5  and  C5_6
REMARK    4  A    between atoms: C10_12  and  C11_13
REMARK       I    between atoms: C11_13  and  N1_15
REMARK    5  A    between atoms: N1_15  and  C12_17
REMARK    6  A    between atoms: C12_17  and  C13_18
REMARK    7  A    between atoms: C12_17  and  C20_33
REMARK       I    between atoms: C13_18  and  N2_20
REMARK    8  A    between atoms: N2_20  and  C14_22
REMARK    9  A    between atoms: C14_22  and  C16_24
REMARK   10  A    between atoms: C16_24  and  C17_26
ROOT
HETATM    1  C12 UNL     1      14.562  -0.298  50.067  1.00  0.00     0.180 C
ENDROOT
BRANCH   1   2
HETATM    2  N1  UNL     1      13.953  -1.563  50.324  1.00  0.00    -0.343 N
HETATM    3  C11 UNL     1      12.636  -1.925  50.560  1.00  0.00     0.255 C
HETATM    4  O2  UNL     1      11.738  -1.014  50.589  1.00  0.00    -0.268 OA
ATOM      5  H1  UNL     1      14.608  -2.345  50.335  1.00  0.00     0.163 HD
BRANCH   3   6
HETATM    6  C10 UNL     1      12.164  -3.282  50.780  1.00  0.00     0.067 A
HETATM    7  C5  UNL     1      11.294  -3.984  49.975  1.00  0.00     0.084 A
HETATM    8  C6  UNL     1      10.950  -5.283  50.325  1.00  0.00     0.039 A
HETATM    9  C7  UNL     1      11.426  -5.925  51.441  1.00  0.00     0.026 A
HETATM   10  C8  UNL     1      12.294  -5.242  52.255  1.00  0.00     0.035 A
HETATM   11 CL1  UNL     1      12.896  -6.069  53.680  1.00  0.00    -0.084 Cl
HETATM   12  C9  UNL     1      12.638  -3.970  51.922  1.00  0.00     0.043 A
BRANCH   7  13
HETATM   13  O1  UNL     1      10.753  -3.474  48.862  1.00  0.00    -0.350 OA
BRANCH  13  14
HETATM   14  C4  UNL     1       9.550  -2.933  48.502  1.00  0.00     0.179 C
BRANCH  14  15
HETATM   15  C2  UNL     1       9.543  -1.787  47.554  1.00  0.00     0.002 C
HETATM   16  C1  UNL     1       8.751  -2.092  46.290  1.00  0.00     0.011 C
HETATM   17  C3  UNL     1      10.989  -1.585  47.096  1.00  0.00     0.011 C
ENDBRANCH  14  15
ENDBRANCH  13  14
ENDBRANCH   7  13
ENDBRANCH   3   6
ENDBRANCH   1   2
BRANCH   1  18
HETATM   18  C13 UNL     1      15.280   0.384  51.123  1.00  0.00     0.241 C
HETATM   19  O3  UNL     1      16.503   0.561  51.152  1.00  0.00    -0.271 OA
HETATM   20  N2  UNL     1      14.577   0.926  52.279  1.00  0.00    -0.348 N
ATOM     21  H2  UNL     1      13.565   0.817  52.339  1.00  0.00     0.163 HD
BRANCH  20  22
HETATM   22  C14 UNL     1      15.274   1.614  53.347  1.00  0.00     0.157 C
HETATM   23  C15 UNL     1      15.201   0.751  54.610  1.00  0.00     0.041 C
BRANCH  22  24
HETATM   24  C16 UNL     1      14.649   2.930  53.580  1.00  0.00     0.198 C
HETATM   25  O4  UNL     1      13.384   2.978  53.730  1.00  0.00    -0.288 OA
BRANCH  24  26
HETATM   26  C17 UNL     1      15.450   4.187  53.643  1.00  0.00     0.090 A
HETATM   27  C18 UNL     1      16.818   4.122  53.652  1.00  0.00     0.088 A
HETATM   28  S1  UNL     1      17.252   5.773  53.688  1.00  0.00    -0.039 SA
HETATM   29  C19 UNL     1      15.685   6.439  53.691  1.00  0.00     0.288 A
HETATM   30  O5  UNL     1      15.306   7.667  53.713  1.00  0.00    -0.260 OA
HETATM   31  N3  UNL     1      14.897   5.366  53.663  1.00  0.00    -0.314 N
ATOM     32  H3  UNL     1      13.883   5.466  53.657  1.00  0.00     0.170 HD
ENDBRANCH  24  26
ENDBRANCH  22  24
ENDBRANCH  20  22
ENDBRANCH   1  18
BRANCH   1  33
HETATM   33  C20 UNL     1      15.249  -0.386  48.735  1.00  0.00     0.009 C
HETATM   34  C21 UNL     1      14.719  -1.411  47.795  1.00  0.00     0.012 C
HETATM   35  C22 UNL     1      15.314   0.941  48.003  1.00  0.00     0.012 C
ENDBRANCH   1  33
TORSDOF 10
ENDMDL