MODEL 3
REMARK VINA RESULT: -7.774717939      1.947      3.168
REMARK  14 active torsions:
REMARK  status: ('A' for Active; 'I' for Inactive)
REMARK    1  A    between atoms: O1_2  and  C2_3
REMARK    2  A    between atoms: C2_3  and  O2_4
REMARK    3  A    between atoms: C4_7  and  C5_8
REMARK    4  A    between atoms: C12_16  and  C13_17
REMARK    5  A    between atoms: C13_17  and  C14_18
REMARK    6  A    between atoms: C13_17  and  N4_26
REMARK    7  A    between atoms: C14_18  and  C15_19
REMARK    8  A    between atoms: C15_19  and  C16_20
REMARK    9  A    between atoms: C16_20  and  N1_21
REMARK   10  A    between atoms: N4_26  and  C18_27
REMARK   11  A    between atoms: C18_27  and  O3_28
REMARK   12  A    between atoms: C18_27  and  O4_30
REMARK   13  A    between atoms: O4_30  and  C19_31
REMARK   14  A    between atoms: C19_31  and  C20_32
ROOT
HETATM    1  C13 UNL     1      13.724  -0.545  50.773  1.00  0.00     0.117 C
ENDROOT
BRANCH   1   2
HETATM    2  C12 UNL     1      13.491  -1.960  50.503  1.00  0.00     0.013 C
HETATM    3  C3  UNL     1      13.267  -2.983  51.555  1.00  0.00     0.025 C
HETATM    4  C2  UNL     1      14.072  -3.114  52.723  1.00  0.00     0.186 C
HETATM    5  C4  UNL     1      11.932  -3.590  51.554  1.00  0.00     0.094 C
HETATM    6  S1  UNL     1      11.990  -4.051  49.719  1.00  0.00    -0.144 SA
HETATM    7  C9  UNL     1      12.581  -2.284  49.359  1.00  0.00     0.032 C
HETATM    8  C10 UNL     1      11.278  -1.627  49.211  1.00  0.00     0.032 C
HETATM    9  C11 UNL     1      13.265  -2.493  48.024  1.00  0.00     0.032 C
BRANCH   4  10
HETATM   10  O1  UNL     1      13.712  -3.191  54.054  1.00  0.00    -0.335 OA
HETATM   11  C1  UNL     1      14.258  -4.089  55.002  1.00  0.00     0.212 C
ENDBRANCH   4  10
BRANCH   4  12
HETATM   12  O2  UNL     1      15.374  -3.183  52.617  1.00  0.00    -0.341 OA
ATOM     13  H2  UNL     1      15.771  -2.484  53.123  1.00  0.00     0.220 HD
ENDBRANCH   4  12
BRANCH   5  14
HETATM   14  C5  UNL     1      11.614  -4.882  52.142  1.00  0.00    -0.035 C
HETATM   15  C6  UNL     1      12.674  -5.953  51.969  1.00  0.00     0.016 C
HETATM   16  C7  UNL     1      10.956  -4.997  53.469  1.00  0.00     0.016 C
HETATM   17  C8  UNL     1      10.476  -5.477  51.200  1.00  0.00     0.016 C
ENDBRANCH   5  14
ENDBRANCH   1   2
BRANCH   1  18
HETATM   18  C14 UNL     1      14.876   0.192  50.168  1.00  0.00     0.024 C
BRANCH  18  19
HETATM   19  C15 UNL     1      16.255   0.260  50.509  1.00  0.00     0.075 C
BRANCH  19  20
HETATM   20  C16 UNL     1      16.596   0.853  51.869  1.00  0.00     0.067 C
BRANCH  20  21
HETATM   21  N1  UNL     1      16.761  -0.127  52.828  1.00  0.00    -0.346 N
HETATM   22  C17 UNL     1      16.434  -0.517  53.945  1.00  0.00     0.200 C
HETATM   23  N2  UNL     1      16.991  -1.744  54.481  1.00  0.00    -0.067 NA
HETATM   24  N3  UNL     1      15.519   0.086  54.886  1.00  0.00    -0.067 NA
ATOM     25  H1  UNL     1      17.427  -0.804  52.457  1.00  0.00     0.167 HD
ENDBRANCH  20  21
ENDBRANCH  19  20
ENDBRANCH  18  19
ENDBRANCH   1  18
BRANCH   1  26
HETATM   26  N4  UNL     1      13.178   0.174  51.850  1.00  0.00    -0.359 NA
BRANCH  26  27
HETATM   27  C18 UNL     1      12.654   0.862  52.882  1.00  0.00     0.341 C
BRANCH  27  28
HETATM   28  O3  UNL     1      12.390   0.394  54.079  1.00  0.00    -0.315 OA
ATOM     29  H3  UNL     1      11.993   0.872  54.797  1.00  0.00     0.222 HD
ENDBRANCH  27  28
BRANCH  27  30
HETATM   30  O4  UNL     1      12.305   2.225  52.865  1.00  0.00    -0.301 OA
BRANCH  30  31
HETATM   31  C19 UNL     1      12.887   3.235  52.134  1.00  0.00     0.219 C
BRANCH  31  32
HETATM   32  C20 UNL     1      13.970   3.974  52.802  1.00  0.00    -0.028 A
HETATM   33  C21 UNL     1      14.950   3.663  53.610  1.00  0.00     0.051 A
HETATM   34  C22 UNL     1      15.373   5.048  53.643  1.00  0.00     0.117 A
HETATM   35  F1  UNL     1      16.342   5.811  54.222  1.00  0.00    -0.206 F
HETATM   36  C23 UNL     1      14.389   5.351  52.833  1.00  0.00     0.051 A
ENDBRANCH  31  32
ENDBRANCH  30  31
ENDBRANCH  27  30
ENDBRANCH  26  27
ENDBRANCH   1  26
TORSDOF 14
ENDMDL