MODEL 4
REMARK VINA RESULT: -8.840846055      1.822      2.700
REMARK  9 active torsions:
REMARK  status: ('A' for Active; 'I' for Inactive)
REMARK    1  A    between atoms: C2_2  and  C3_3
REMARK    2  A    between atoms: C3_3  and  C4_4
REMARK    3  A    between atoms: C4_4  and  N1_5
REMARK    4  A    between atoms: C6_8  and  C7_9
REMARK    5  A    between atoms: C7_9  and  C8_10
REMARK    6  A    between atoms: C13_16  and  S1_17
REMARK    7  A    between atoms: S1_17  and  N3_20
REMARK    8  A    between atoms: N3_20  and  C14_22
REMARK    9  A    between atoms: C14_22  and  C17_25
ROOT
HETATM    1  C8  UNL     1      14.091  -1.013  51.412  1.00  0.00    -0.046 A
HETATM    2  C9  UNL     1      14.039  -1.218  52.770  1.00  0.00     0.016 A
HETATM    3  C10 UNL     1      13.884  -2.480  53.296  1.00  0.00    -0.038 A
HETATM    4  C11 UNL     1      13.823  -2.720  54.758  1.00  0.00     0.050 C
HETATM    5  C12 UNL     1      13.782  -3.544  52.438  1.00  0.00     0.063 A
HETATM    6 CL1  UNL     1      13.583  -5.158  53.100  1.00  0.00    -0.082 Cl
HETATM    7  C13 UNL     1      13.835  -3.350  51.047  1.00  0.00     0.108 A
HETATM    8  C19 UNL     1      13.988  -2.089  50.521  1.00  0.00    -0.030 A
HETATM    9  C20 UNL     1      14.010  -1.850  49.051  1.00  0.00     0.050 C
ENDROOT
BRANCH   1  10
HETATM   10  C7  UNL     1      14.256   0.336  50.799  1.00  0.00     0.087 C
BRANCH  10  11
HETATM   11  C6  UNL     1      14.812   1.326  51.752  1.00  0.00     0.056 A
HETATM   12  C5  UNL     1      14.053   2.314  52.317  1.00  0.00     0.134 A
HETATM   13  N1  UNL     1      14.564   3.224  53.194  1.00  0.00    -0.287 N
HETATM   14  N2  UNL     1      12.686   2.431  52.008  1.00  0.00    -0.082 NA
HETATM   15  C22 UNL     1      15.869   3.111  53.489  1.00  0.00     0.330 A
HETATM   16  N4  UNL     1      16.653   2.153  52.955  1.00  0.00    -0.275 N
HETATM   17  O4  UNL     1      16.421   3.911  54.288  1.00  0.00    -0.246 OA
HETATM   18  C21 UNL     1      16.145   1.259  52.090  1.00  0.00     0.259 A
ATOM     19  H4  UNL     1      17.640   2.108  53.210  1.00  0.00     0.173 HD
HETATM   20  O3  UNL     1      16.905   0.362  51.599  1.00  0.00    -0.267 OA
BRANCH  13  21
HETATM   21  C4  UNL     1      13.747   4.262  53.769  1.00  0.00     0.135 C
BRANCH  21  22
HETATM   22  C3  UNL     1      13.769   5.564  53.056  1.00  0.00     0.020 C
BRANCH  22  23
HETATM   23  C2  UNL     1      14.143   6.757  53.896  1.00  0.00    -0.003 C
HETATM   24  C1  UNL     1      15.507   7.269  53.459  1.00  0.00     0.005 C
ENDBRANCH  22  23
ENDBRANCH  21  22
ENDBRANCH  13  21
ENDBRANCH  10  11
ENDBRANCH   1  10
BRANCH   7  25
HETATM   25  S1  UNL     1      13.652  -4.785  50.057  1.00  0.00     0.261 S
HETATM   26  O1  UNL     1      13.964  -4.290  48.636  1.00  0.00    -0.200 OA
HETATM   27  O2  UNL     1      14.818  -5.679  50.382  1.00  0.00    -0.200 OA
BRANCH  25  28
HETATM   28  N3  UNL     1      12.160  -5.476  50.200  1.00  0.00    -0.306 N
ATOM     29  H3  UNL     1      12.035  -6.145  50.959  1.00  0.00     0.173 HD
BRANCH  28  30
HETATM   30  C14 UNL     1      11.064  -5.239  49.393  1.00  0.00     0.033 C
HETATM   31  C15 UNL     1      10.993  -5.792  48.017  1.00  0.00     0.038 C
HETATM   32  C16 UNL     1       9.854  -5.867  50.134  1.00  0.00     0.038 C
BRANCH  30  33
HETATM   33  C17 UNL     1      10.670  -3.765  49.280  1.00  0.00     0.026 C
HETATM   34  C18 UNL     1      10.562  -3.298  47.869  1.00  0.00     0.007 C
ENDBRANCH  30  33
ENDBRANCH  28  30
ENDBRANCH  25  28
ENDBRANCH   7  25
TORSDOF 9
ENDMDL