MODEL 3
REMARK VINA RESULT: -7.836810763      4.236      8.629
REMARK  11 active torsions:
REMARK  status: ('A' for Active; 'I' for Inactive)
REMARK    1  A    between atoms: N1_2  and  C2_5
REMARK    2  A    between atoms: C11_14  and  O1_15
REMARK    3  A    between atoms: O1_15  and  C12_16
REMARK    4  A    between atoms: C12_16  and  C13_18
REMARK    5  A    between atoms: C13_18  and  C14_20
REMARK    6  A    between atoms: C14_20  and  C15_21
REMARK    7  A    between atoms: C15_21  and  C16_22
REMARK    8  A    between atoms: C16_22  and  C17_23
REMARK    9  A    between atoms: C17_23  and  C19_25
REMARK   10  A    between atoms: C19_25  and  O3_26
REMARK   11  A    between atoms: C21_30  and  O5_31
ROOT
HETATM    1  C2  UNL     1      10.932  -6.257  49.346  1.00  0.00     0.194 C
HETATM    2  C3  UNL     1      11.388  -5.649  48.052  1.00  0.00     0.034 C
HETATM    3  C4  UNL     1      12.862  -5.491  48.230  1.00  0.00     0.008 C
HETATM    4  C5  UNL     1      13.123  -5.467  49.701  1.00  0.00     0.000 C
HETATM    5  C6  UNL     1      13.878  -4.245  50.133  1.00  0.00    -0.005 C
HETATM    6  C7  UNL     1      14.532  -4.393  51.468  1.00  0.00     0.009 C
HETATM    7  C8  UNL     1      14.635  -3.141  52.265  1.00  0.00     0.035 C
HETATM    8  C9  UNL     1      14.656  -1.912  51.441  1.00  0.00    -0.073 C
HETATM    9  C10 UNL     1      15.548  -0.973  51.666  1.00  0.00     0.016 C
HETATM   10  C11 UNL     1      15.621   0.305  50.856  1.00  0.00     0.227 C
HETATM   11  C20 UNL     1      15.106   0.059  49.483  1.00  0.00     0.189 C
HETATM   12  O4  UNL     1      15.247   0.886  48.613  1.00  0.00    -0.292 OA
HETATM   13  C21 UNL     1      14.408  -1.208  49.144  1.00  0.00     0.199 C
HETATM   14  C22 UNL     1      13.673  -1.754  50.372  1.00  0.00     0.055 C
HETATM   15  C23 UNL     1      13.008  -3.049  49.970  1.00  0.00     0.001 C
HETATM   16  C24 UNL     1      11.650  -3.174  50.600  1.00  0.00     0.006 C
HETATM   17  C25 UNL     1      11.280  -4.501  51.112  1.00  0.00     0.012 C
HETATM   18  C26 UNL     1      11.845  -5.692  50.421  1.00  0.00    -0.012 C
HETATM   19  C27 UNL     1      11.964  -6.805  51.475  1.00  0.00     0.018 C
ENDROOT
BRANCH  10  20
HETATM   20  O1  UNL     1      14.874   1.323  51.459  1.00  0.00    -0.302 OA
BRANCH  20  21
HETATM   21  C12 UNL     1      15.142   1.623  52.813  1.00  0.00     0.294 C
HETATM   22  O2  UNL     1      14.201   1.546  53.609  1.00  0.00    -0.262 OA
BRANCH  21  23
HETATM   23  C13 UNL     1      16.508   2.014  53.230  1.00  0.00     0.269 C
HETATM   24  F1  UNL     1      17.034   0.893  53.869  1.00  0.00    -0.239 F
BRANCH  23  25
HETATM   25  C14 UNL     1      16.606   3.242  54.045  1.00  0.00     0.048 C
BRANCH  25  26
HETATM   26  C15 UNL     1      16.723   4.542  53.343  1.00  0.00     0.004 C
BRANCH  26  27
HETATM   27  C16 UNL     1      15.873   5.651  53.860  1.00  0.00     0.006 C
BRANCH  27  28
HETATM   28  C17 UNL     1      14.751   6.109  53.012  1.00  0.00     0.005 C
HETATM   29  C18 UNL     1      14.063   7.260  53.767  1.00  0.00     0.012 C
BRANCH  28  30
HETATM   30  C19 UNL     1      13.673   5.089  52.743  1.00  0.00     0.168 C
BRANCH  30  31
HETATM   31  O3  UNL     1      13.252   4.394  53.856  1.00  0.00    -0.400 OA
ATOM     32  H3  UNL     1      13.163   4.922  54.641  1.00  0.00     0.209 HD
ENDBRANCH  30  31
ENDBRANCH  28  30
ENDBRANCH  27  28
ENDBRANCH  26  27
ENDBRANCH  25  26
ENDBRANCH  23  25
ENDBRANCH  21  23
ENDBRANCH  20  21
ENDBRANCH  10  20
BRANCH  13  33
HETATM   33  O5  UNL     1      13.545  -1.065  48.073  1.00  0.00    -0.387 OA
ATOM     34  H5  UNL     1      12.781  -1.626  48.144  1.00  0.00     0.210 HD
ENDBRANCH  13  33
BRANCH   1  35
HETATM   35  N1  UNL     1      11.189  -7.684  49.272  1.00  0.00    -0.074 N
HETATM   36  C1  UNL     1      10.478  -8.345  48.221  1.00  0.00     0.267 C
ATOM     37  H12 UNL     1      11.001  -8.130  50.169  1.00  0.00     0.277 HD
ATOM     38  H11 UNL     1      12.190  -7.864  49.197  1.00  0.00     0.277 HD
ENDBRANCH   1  35
TORSDOF 11
ENDMDL