MODEL 3
REMARK VINA RESULT: -8.414245771      1.009      2.294
REMARK  11 active torsions:
REMARK  status: ('A' for Active; 'I' for Inactive)
REMARK    1  A    between atoms: C2_2  and  N1_4
REMARK    2  A    between atoms: N1_4  and  C4_7
REMARK    3  A    between atoms: C4_7  and  C5_8
REMARK    4  A    between atoms: C4_7  and  C20_35
REMARK       I    between atoms: C5_8  and  N2_10
REMARK    5  A    between atoms: C8_14  and  C9_15
REMARK       I    between atoms: C9_15  and  N3_17
REMARK    6  A    between atoms: N3_17  and  C10_19
REMARK    7  A    between atoms: C10_19  and  C12_21
REMARK    8  A    between atoms: C12_21  and  N4_22
REMARK    9  A    between atoms: C12_21  and  C13_26
REMARK   10  A    between atoms: C13_26  and  S2_27
REMARK   11  A    between atoms: S2_27  and  C14_28
ROOT
HETATM    1  C9  UNL     1      13.418  -2.487  53.785  1.00  0.00     0.241 C
HETATM    2  O2  UNL     1      13.520  -3.256  54.782  1.00  0.00    -0.271 OA
HETATM    3  N3  UNL     1      14.395  -1.465  53.657  1.00  0.00    -0.353 N
ATOM      4  H3  UNL     1      14.341  -0.824  52.866  1.00  0.00     0.163 HD
ENDROOT
BRANCH   1   5
HETATM    5  C8  UNL     1      12.301  -2.683  52.812  1.00  0.00     0.189 C
HETATM    6  N2  UNL     1      12.714  -2.578  51.441  1.00  0.00    -0.327 N
HETATM    7  C5  UNL     1      12.393  -1.504  50.571  1.00  0.00     0.252 C
HETATM    8  C6  UNL     1      13.503  -3.725  51.066  1.00  0.00     0.200 C
HETATM    9  O1  UNL     1      11.711  -0.502  50.999  1.00  0.00    -0.271 OA
HETATM   10  S1  UNL     1      12.385  -5.029  51.744  1.00  0.00    -0.147 SA
HETATM   11  C7  UNL     1      11.674  -4.023  53.075  1.00  0.00     0.110 C
BRANCH   7  12
HETATM   12  C4  UNL     1      12.787  -1.416  49.143  1.00  0.00     0.280 C
BRANCH  12  13
HETATM   13  N1  UNL     1      12.472  -2.711  48.560  1.00  0.00    -0.059 N
ATOM     14  H12 UNL     1      12.825  -3.473  49.137  1.00  0.00     0.278 HD
ATOM     15  H11 UNL     1      13.020  -2.881  47.716  1.00  0.00     0.278 HD
BRANCH  13  16
HETATM   16  C2  UNL     1      11.055  -2.858  48.305  1.00  0.00     0.178 C
HETATM   17  C1  UNL     1      10.586  -2.041  47.129  1.00  0.00     0.039 C
HETATM   18  C3  UNL     1      10.804  -4.311  47.966  1.00  0.00     0.039 C
ENDBRANCH  13  16
ENDBRANCH  12  13
BRANCH  12  19
HETATM   19  C20 UNL     1      14.286  -1.269  49.082  1.00  0.00     0.017 C
HETATM   20  C21 UNL     1      14.813   0.013  49.656  1.00  0.00     0.012 C
HETATM   21  C22 UNL     1      14.859  -1.382  47.689  1.00  0.00     0.012 C
ENDBRANCH  12  19
ENDBRANCH   7  12
ENDBRANCH   1   5
BRANCH   3  22
HETATM   22  C10 UNL     1      15.467  -1.309  54.621  1.00  0.00     0.111 C
HETATM   23  C11 UNL     1      16.814  -1.659  54.017  1.00  0.00     0.034 C
BRANCH  22  24
HETATM   24  C12 UNL     1      15.461   0.100  55.168  1.00  0.00     0.215 C
BRANCH  24  25
HETATM   25  N4  UNL     1      14.159   0.542  55.558  1.00  0.00    -0.072 N
ATOM     26  H43 UNL     1      14.027   1.529  55.335  1.00  0.00     0.274 HD
ATOM     27  H42 UNL     1      13.442   0.138  54.956  1.00  0.00     0.274 HD
ATOM     28  H41 UNL     1      13.955   0.360  56.541  1.00  0.00     0.274 HD
ENDBRANCH  24  25
BRANCH  24  29
HETATM   29  C13 UNL     1      16.118   1.029  54.147  1.00  0.00     0.114 C
BRANCH  29  30
HETATM   30  S2  UNL     1      14.874   2.080  53.354  1.00  0.00    -0.128 SA
BRANCH  30  31
HETATM   31  C14 UNL     1      15.414   3.777  53.500  1.00  0.00     0.002 A
HETATM   32  C15 UNL     1      16.761   4.048  53.585  1.00  0.00     0.018 A
HETATM   33  C16 UNL     1      17.237   5.356  53.701  1.00  0.00     0.003 A
HETATM   34  C17 UNL     1      16.332   6.390  53.730  1.00  0.00     0.024 A
HETATM   35  C18 UNL     1      14.974   6.131  53.646  1.00  0.00     0.035 A
HETATM   36 CL1  UNL     1      13.892   7.499  53.690  1.00  0.00    -0.084 Cl
HETATM   37  C19 UNL     1      14.509   4.823  53.530  1.00  0.00     0.042 A
ENDBRANCH  30  31
ENDBRANCH  29  30
ENDBRANCH  24  29
ENDBRANCH  22  24
ENDBRANCH   3  22
TORSDOF 11
ENDMDL