MODEL 4
REMARK VINA RESULT: -8.990307725      1.592      2.269
REMARK  12 active torsions:
REMARK  status: ('A' for Active; 'I' for Inactive)
REMARK    1  A    between atoms: C2_2  and  C3_3
REMARK    2  A    between atoms: C2_2  and  N2_12
REMARK    3  A    between atoms: C3_3  and  C4_4
REMARK    4  A    between atoms: C4_4  and  N1_5
REMARK    5  A    between atoms: C7_8  and  O1_9
REMARK    6  A    between atoms: N2_12  and  C9_14
REMARK    7  A    between atoms: C10_17  and  N4_18
REMARK    8  A    between atoms: C16_26  and  N6_27
REMARK    9  A    between atoms: N6_27  and  C17_29
REMARK   10  A    between atoms: C17_29  and  C18_30
REMARK   11  A    between atoms: C18_30  and  C19_31
REMARK   12  A    between atoms: C19_31  and  C20_32
ROOT
HETATM    1  C9  UNL     1      15.391  -0.779  51.045  1.00  0.00     0.707 A
HETATM    2  N3  UNL     1      14.552  -1.570  51.710  1.00  0.00    -0.021 N
ATOM      3  H3  UNL     1      13.984  -2.232  51.181  1.00  0.00     0.203 HD
HETATM    4  C10 UNL     1      14.418  -1.535  53.056  1.00  0.00     0.709 A
HETATM    5  N5  UNL     1      15.153  -0.674  53.747  1.00  0.00    -0.021 N
ATOM      6  H5  UNL     1      15.067  -0.631  54.762  1.00  0.00     0.203 HD
HETATM    7  C16 UNL     1      16.045   0.174  53.087  1.00  0.00     0.707 A
HETATM    8  N7  UNL     1      16.146   0.105  51.764  1.00  0.00    -0.022 N
ATOM      9  H7  UNL     1      16.797   0.721  51.277  1.00  0.00     0.203 HD
ENDROOT
BRANCH   1  10
HETATM   10  N2  UNL     1      15.468  -0.833  49.775  1.00  0.00    -0.221 N
ATOM     11  H2  UNL     1      16.238  -1.339  49.339  1.00  0.00     0.178 HD
BRANCH  10  12
HETATM   12  C2  UNL     1      14.491  -0.194  48.954  1.00  0.00     0.097 C
HETATM   13  C1  UNL     1      15.195   0.811  48.048  1.00  0.00     0.032 C
BRANCH  12  14
HETATM   14  C3  UNL     1      13.739  -1.202  48.061  1.00  0.00     0.055 C
BRANCH  14  15
HETATM   15  C4  UNL     1      12.491  -1.602  48.788  1.00  0.00     0.274 C
BRANCH  15  16
HETATM   16  N1  UNL     1      11.486  -2.242  48.004  1.00  0.00     0.091 N
HETATM   17  C5  UNL     1      10.511  -2.766  48.984  1.00  0.00     0.275 C
HETATM   18  C6  UNL     1       9.231  -2.911  48.225  1.00  0.00     0.064 C
HETATM   19  C7  UNL     1       9.442  -2.165  46.941  1.00  0.00     0.148 C
HETATM   20  C8  UNL     1      10.642  -1.294  47.294  1.00  0.00     0.303 C
BRANCH  19  21
HETATM   21  O1  UNL     1       8.328  -1.396  46.599  1.00  0.00    -0.394 OA
ATOM     22  H1  UNL     1       8.570  -0.634  46.088  1.00  0.00     0.210 HD
ENDBRANCH  19  21
ENDBRANCH  15  16
ENDBRANCH  14  15
ENDBRANCH  12  14
ENDBRANCH  10  12
ENDBRANCH   1  10
BRANCH   4  23
HETATM   23  N4  UNL     1      13.488  -2.432  53.700  1.00  0.00    -0.217 N
HETATM   24  C11 UNL     1      12.248  -2.766  53.037  1.00  0.00     0.141 C
HETATM   25  C12 UNL     1      11.733  -4.072  53.567  1.00  0.00     0.020 C
HETATM   26  C13 UNL     1      12.885  -4.982  53.868  1.00  0.00     0.003 C
HETATM   27  C14 UNL     1      13.709  -4.470  55.041  1.00  0.00     0.020 C
HETATM   28  C15 UNL     1      13.843  -2.964  54.985  1.00  0.00     0.141 C
ENDBRANCH   4  23
BRANCH   7  29
HETATM   29  N6  UNL     1      16.701   0.970  53.786  1.00  0.00    -0.225 N
ATOM     30  H6  UNL     1      17.690   0.723  53.796  1.00  0.00     0.177 HD
BRANCH  29  31
HETATM   31  C17 UNL     1      16.466   2.076  54.539  1.00  0.00     0.138 C
BRANCH  31  32
HETATM   32  C18 UNL     1      16.164   3.343  53.722  1.00  0.00     0.020 C
BRANCH  32  33
HETATM   33  C19 UNL     1      14.674   3.456  53.680  1.00  0.00     0.006 C
BRANCH  33  34
HETATM   34  C20 UNL     1      14.199   4.871  53.871  1.00  0.00    -0.014 C
HETATM   35  C21 UNL     1      13.179   5.197  52.857  1.00  0.00     0.004 C
HETATM   36  C22 UNL     1      13.697   6.240  51.845  1.00  0.00     0.000 C
HETATM   37  C23 UNL     1      13.952   7.468  52.697  1.00  0.00     0.000 C
HETATM   38  C24 UNL     1      15.165   7.192  53.542  1.00  0.00     0.000 C
HETATM   39  C25 UNL     1      15.355   5.796  53.990  1.00  0.00     0.004 C
ENDBRANCH  33  34
ENDBRANCH  32  33
ENDBRANCH  31  32
ENDBRANCH  29  31
ENDBRANCH   7  29
TORSDOF 12
ENDMDL