MODEL 3
REMARK VINA RESULT: -7.810117186      2.225      3.101
REMARK  12 active torsions:
REMARK  status: ('A' for Active; 'I' for Inactive)
REMARK    1  A    between atoms: C2_2  and  N1_3
REMARK    2  A    between atoms: N1_3  and  C3_5
REMARK    3  A    between atoms: C3_5  and  C5_7
REMARK       I    between atoms: C5_7  and  N2_9
REMARK    4  A    between atoms: N2_9  and  C6_11
REMARK    5  A    between atoms: C6_11  and  C7_12
REMARK    6  A    between atoms: C6_11  and  C17_29
REMARK    7  A    between atoms: C7_12  and  O3_14
REMARK    8  A    between atoms: O3_14  and  C8_15
REMARK    9  A    between atoms: C8_15  and  C9_16
REMARK   10  A    between atoms: C9_16  and  N3_18
REMARK   11  A    between atoms: N3_18  and  C10_20
REMARK   12  A    between atoms: C15_26  and  O4_27
ROOT
HETATM    1  C7  UNL     1      13.547   0.354  54.654  1.00  0.00     0.282 C
HETATM    2  O2  UNL     1      12.671   0.748  55.465  1.00  0.00    -0.263 OA
ENDROOT
BRANCH   1   3
HETATM    3  C6  UNL     1      14.317   1.222  53.770  1.00  0.00     0.191 C
BRANCH   3   4
HETATM    4  N2  UNL     1      13.658   2.528  53.601  1.00  0.00    -0.345 N
HETATM    5  C5  UNL     1      13.042   2.935  52.400  1.00  0.00     0.240 C
HETATM    6  O1  UNL     1      13.040   2.169  51.406  1.00  0.00    -0.271 OA
ATOM      7  H2  UNL     1      13.647   3.170  54.393  1.00  0.00     0.163 HD
BRANCH   5   8
HETATM    8  C3  UNL     1      12.395   4.251  52.287  1.00  0.00     0.165 C
HETATM    9  C4  UNL     1      10.936   4.171  51.952  1.00  0.00     0.042 C
BRANCH   8  10
HETATM   10  N1  UNL     1      12.717   5.147  53.349  1.00  0.00    -0.410 N
ATOM     11  H1  UNL     1      12.306   5.058  54.278  1.00  0.00     0.154 HD
BRANCH  10  12
HETATM   12  C2  UNL     1      13.649   6.176  53.028  1.00  0.00     0.110 C
HETATM   13  C1  UNL     1      14.699   6.359  54.121  1.00  0.00     0.026 C
ENDBRANCH  10  12
ENDBRANCH   8  10
ENDBRANCH   5   8
ENDBRANCH   3   4
BRANCH   3  14
HETATM   14  C17 UNL     1      15.733   1.462  54.222  1.00  0.00    -0.022 C
HETATM   15  C18 UNL     1      16.173   2.894  54.089  1.00  0.00     0.017 C
HETATM   16  C19 UNL     1      16.606   0.691  53.208  1.00  0.00     0.017 C
HETATM   17  C20 UNL     1      16.001   0.859  55.555  1.00  0.00     0.017 C
ENDBRANCH   3  14
ENDBRANCH   1   3
BRANCH   1  18
HETATM   18  O3  UNL     1      13.775  -1.021  54.624  1.00  0.00    -0.313 OA
BRANCH  18  19
HETATM   19  C8  UNL     1      13.062  -1.818  53.628  1.00  0.00     0.248 C
BRANCH  19  20
HETATM   20  C9  UNL     1      13.744  -1.738  52.332  1.00  0.00     0.102 C
HETATM   21  S1  UNL     1      15.095  -2.746  52.116  1.00  0.00    -0.063 SA
BRANCH  20  22
HETATM   22  N3  UNL     1      13.466  -0.949  51.219  1.00  0.00    -0.347 N
ATOM     23  H3  UNL     1      13.721   0.037  51.298  1.00  0.00     0.167 HD
BRANCH  22  24
HETATM   24  C10 UNL     1      12.881  -1.334  49.999  1.00  0.00     0.068 A
HETATM   25  C11 UNL     1      11.608  -1.781  49.789  1.00  0.00     0.051 A
HETATM   26  C12 UNL     1      11.113  -2.115  48.517  1.00  0.00     0.013 A
HETATM   27 BR1  UNL     1       9.319  -2.728  48.336  1.00  0.00    -0.051 Br
HETATM   28  C13 UNL     1      11.937  -1.988  47.449  1.00  0.00     0.022 A
HETATM   29  C14 UNL     1      13.210  -1.545  47.619  1.00  0.00     0.040 A
HETATM   30  C15 UNL     1      13.706  -1.216  48.852  1.00  0.00     0.095 A
BRANCH  30  31
HETATM   31  O4  UNL     1      14.996  -0.768  49.021  1.00  0.00    -0.354 OA
HETATM   32  C16 UNL     1      15.394   0.464  48.470  1.00  0.00     0.210 C
ENDBRANCH  30  31
ENDBRANCH  22  24
ENDBRANCH  20  22
ENDBRANCH  19  20
ENDBRANCH  18  19
ENDBRANCH   1  18
TORSDOF 12
ENDMDL