MODEL 2
REMARK VINA RESULT: -8.171280438      2.556      3.248
REMARK  14 active torsions:
REMARK  status: ('A' for Active; 'I' for Inactive)
REMARK    1  A    between atoms: C2_2  and  C3_3
REMARK    2  A    between atoms: C2_2  and  C15_27
REMARK    3  A    between atoms: C3_3  and  C4_4
REMARK    4  A    between atoms: C4_4  and  C5_5
REMARK    5  A    between atoms: N2_10  and  C8_11
REMARK    6  A    between atoms: C8_11  and  C9_12
REMARK    7  A    between atoms: C9_12  and  C10_13
REMARK    8  A    between atoms: C10_13  and  C11_14
REMARK    9  A    between atoms: C11_14  and  C12_15
REMARK   10  A    between atoms: C12_15  and  C13_16
REMARK   11  A    between atoms: C13_16  and  C14_17
REMARK   12  A    between atoms: C14_17  and  O1_18
REMARK   13  A    between atoms: N3_20  and  O2_22
REMARK   14  A    between atoms: C15_27  and  C16_28
ROOT
HETATM    1  C5  UNL     1      13.309  -0.655  53.037  1.00  0.00     0.145 C
HETATM    2  N1  UNL     1      12.810  -1.592  53.786  1.00  0.00    -0.378 N
ATOM      3  H1  UNL     1      12.359  -1.370  54.674  1.00  0.00     0.160 HD
HETATM    4  C6  UNL     1      12.917  -2.978  53.316  1.00  0.00     0.141 C
HETATM    5  C7  UNL     1      12.290  -3.047  51.950  1.00  0.00     0.155 C
HETATM    6  N2  UNL     1      13.152  -2.513  50.960  1.00  0.00    -0.304 N
HETATM    7  S1  UNL     1      14.053  -1.186  51.530  1.00  0.00     0.276 S
HETATM    8  O3  UNL     1      14.068  -0.028  50.583  1.00  0.00    -0.199 OA
HETATM    9  O4  UNL     1      15.499  -1.567  51.787  1.00  0.00    -0.199 OA
ENDROOT
BRANCH   1  10
HETATM   10  C4  UNL     1      13.285   0.760  53.360  1.00  0.00     0.044 C
BRANCH  10  11
HETATM   11  C3  UNL     1      14.037   1.286  54.300  1.00  0.00     0.010 C
BRANCH  11  12
HETATM   12  C2  UNL     1      15.484   1.257  54.195  1.00  0.00    -0.060 C
HETATM   13  C1  UNL     1      16.260   0.304  55.029  1.00  0.00     0.048 C
BRANCH  12  14
HETATM   14  C15 UNL     1      16.056   2.086  53.352  1.00  0.00     0.037 C
BRANCH  14  15
HETATM   15  C16 UNL     1      16.321   3.498  53.567  1.00  0.00     0.051 A
HETATM   16  C17 UNL     1      15.392   4.529  53.382  1.00  0.00     0.069 A
HETATM   17  C18 UNL     1      16.015   5.702  53.658  1.00  0.00     0.096 A
HETATM   18 BR1  UNL     1      15.190   7.429  53.561  1.00  0.00    -0.030 Br
HETATM   19  N4  UNL     1      17.281   5.419  54.002  1.00  0.00    -0.293 N
HETATM   20  N5  UNL     1      17.455   4.115  53.945  1.00  0.00    -0.300 N
ATOM     21  H4  UNL     1      17.992   6.102  54.264  1.00  0.00     0.187 HD
ATOM     22  H5  UNL     1      18.331   3.637  54.159  1.00  0.00     0.187 HD
ENDBRANCH  14  15
ENDBRANCH  12  14
ENDBRANCH  11  12
ENDBRANCH  10  11
ENDBRANCH   1  10
BRANCH   6  23
HETATM   23  C8  UNL     1      13.857  -3.439  50.141  1.00  0.00     0.135 C
BRANCH  23  24
HETATM   24  C9  UNL     1      13.500  -3.318  48.673  1.00  0.00     0.021 C
BRANCH  24  25
HETATM   25  C10 UNL     1      12.709  -4.566  48.292  1.00  0.00     0.002 C
BRANCH  25  26
HETATM   26  C11 UNL     1      11.283  -4.204  48.070  1.00  0.00     0.000 C
BRANCH  26  27
HETATM   27  C12 UNL     1      10.984  -2.749  47.971  1.00  0.00     0.008 C
BRANCH  27  28
HETATM   28  C13 UNL     1       9.840  -2.388  47.069  1.00  0.00     0.086 C
BRANCH  28  29
HETATM   29  C14 UNL     1       8.567  -2.230  47.808  1.00  0.00     0.135 C
HETATM   30  N3  UNL     1       7.587  -1.574  47.279  1.00  0.00    -0.251 N
ATOM     31  H3  UNL     1       6.722  -1.481  47.813  1.00  0.00     0.196 HD
BRANCH  29  32
HETATM   32  O1  UNL     1       8.393  -2.780  49.090  1.00  0.00    -0.348 OA
ATOM     33  H1  UNL     1       7.667  -2.519  49.645  1.00  0.00     0.219 HD
ENDBRANCH  29  32
BRANCH  30  34
HETATM   34  O2  UNL     1       7.652  -0.996  46.037  1.00  0.00    -0.288 OA
ATOM     35  H2  UNL     1       7.484  -0.074  45.882  1.00  0.00     0.244 HD
ENDBRANCH  30  34
ENDBRANCH  28  29
ENDBRANCH  27  28
ENDBRANCH  26  27
ENDBRANCH  25  26
ENDBRANCH  24  25
ENDBRANCH  23  24
ENDBRANCH   6  23
TORSDOF 14
ENDMDL