MODEL 3
REMARK VINA RESULT: -7.955895712      1.380      1.441
REMARK  12 active torsions:
REMARK  status: ('A' for Active; 'I' for Inactive)
REMARK    1  A    between atoms: C4_4  and  S1_5
REMARK    2  A    between atoms: S1_5  and  C5_8
REMARK    3  A    between atoms: C7_10  and  O3_11
REMARK    4  A    between atoms: O3_11  and  C8_12
REMARK    5  A    between atoms: C8_12  and  C9_13
REMARK    6  A    between atoms: C9_13  and  C10_14
REMARK    7  A    between atoms: C10_14  and  O4_15
REMARK    8  A    between atoms: O4_15  and  N1_16
REMARK    9  A    between atoms: C12_21  and  C13_22
REMARK   10  A    between atoms: C13_22  and  O5_23
REMARK   11  A    between atoms: C13_22  and  N4_25
REMARK   12  A    between atoms: N4_25  and  C14_27
ROOT
HETATM    1  C5  UNL     1      14.061  -2.336  50.061  1.00  0.00     0.088 A
HETATM    2  C6  UNL     1      14.211  -2.378  51.426  1.00  0.00     0.063 A
HETATM    3  C7  UNL     1      14.970  -1.446  52.082  1.00  0.00     0.085 A
HETATM    4  C12 UNL     1      15.615  -0.420  51.359  1.00  0.00     0.055 A
HETATM    5  C18 UNL     1      15.486  -0.350  50.012  1.00  0.00    -0.021 A
HETATM    6  C19 UNL     1      16.096   0.722  49.190  1.00  0.00     0.051 C
HETATM    7  C20 UNL     1      14.698  -1.329  49.387  1.00  0.00     0.062 A
HETATM    8 CL1  UNL     1      14.562  -1.202  47.629  1.00  0.00    -0.082 Cl
ENDROOT
BRANCH   3   9
HETATM    9  O3  UNL     1      15.096  -1.523  53.461  1.00  0.00    -0.350 OA
BRANCH   9  10
HETATM   10  C8  UNL     1      14.030  -2.072  54.193  1.00  0.00     0.178 C
BRANCH  10  11
HETATM   11  C9  UNL     1      14.412  -3.198  55.091  1.00  0.00     0.055 C
BRANCH  11  12
HETATM   12  C10 UNL     1      13.272  -4.189  55.142  1.00  0.00     0.203 C
BRANCH  12  13
HETATM   13  O4  UNL     1      12.940  -4.530  53.816  1.00  0.00    -0.278 OA
BRANCH  13  14
HETATM   14  N1  UNL     1      13.564  -5.475  53.070  1.00  0.00    -0.241 N
HETATM   15  C11 UNL     1      13.130  -6.688  52.998  1.00  0.00     0.221 C
HETATM   16  N2  UNL     1      13.872  -7.589  52.182  1.00  0.00    -0.065 NA
HETATM   17  N3  UNL     1      11.980  -7.144  53.678  1.00  0.00    -0.065 NA
ATOM     18  H1  UNL     1      14.403  -5.219  52.550  1.00  0.00     0.196 HD
ENDBRANCH  13  14
ENDBRANCH  12  13
ENDBRANCH  11  12
ENDBRANCH  10  11
ENDBRANCH   9  10
ENDBRANCH   3   9
BRANCH   4  19
HETATM   19  C13 UNL     1      16.359   0.508  52.151  1.00  0.00     0.150 C
BRANCH  19  20
HETATM   20  O5  UNL     1      17.419   0.062  52.780  1.00  0.00    -0.346 OA
ATOM     21  H5  UNL     1      17.354  -0.070  53.719  1.00  0.00     0.219 HD
ENDBRANCH  19  20
BRANCH  19  22
HETATM   22  N4  UNL     1      16.163   1.872  52.391  1.00  0.00    -0.362 N
ATOM     23  H4  UNL     1      16.905   2.524  52.137  1.00  0.00     0.162 HD
BRANCH  22  24
HETATM   24  C14 UNL     1      14.931   2.405  52.995  1.00  0.00     0.021 C
HETATM   25  C15 UNL     1      14.539   1.622  54.227  1.00  0.00     0.037 C
HETATM   26  C16 UNL     1      15.154   3.848  53.443  1.00  0.00     0.037 C
HETATM   27  C17 UNL     1      13.809   2.434  51.992  1.00  0.00     0.037 C
ENDBRANCH  22  24
ENDBRANCH  19  22
ENDBRANCH   4  19
BRANCH   1  28
HETATM   28  S1  UNL     1      13.105  -3.505  49.208  1.00  0.00     0.198 S
HETATM   29  O1  UNL     1      12.617  -4.542  50.188  1.00  0.00    -0.218 OA
HETATM   30  O2  UNL     1      13.868  -4.212  48.145  1.00  0.00    -0.218 OA
BRANCH  28  31
HETATM   31  C4  UNL     1      11.688  -2.782  48.473  1.00  0.00     0.116 C
HETATM   32  C2  UNL     1      10.709  -3.477  47.955  1.00  0.00    -0.076 C
HETATM   33  C1  UNL     1       9.548  -2.773  47.353  1.00  0.00     0.043 C
HETATM   34  C3  UNL     1      10.674  -4.967  47.925  1.00  0.00     0.043 C
ENDBRANCH  28  31
ENDBRANCH   1  28
TORSDOF 12
ENDMDL