MODEL 4
REMARK VINA RESULT: -8.696839013      2.111      2.802
REMARK  11 active torsions:
REMARK  status: ('A' for Active; 'I' for Inactive)
REMARK    1  A    between atoms: C2_2  and  C3_3
REMARK    2  A    between atoms: C3_3  and  N1_4
REMARK    3  A    between atoms: C3_3  and  C14_20
REMARK    4  A    between atoms: C3_3  and  C17_24
REMARK    5  A    between atoms: N1_4  and  S1_6
REMARK    6  A    between atoms: S1_6  and  C4_9
REMARK    7  A    between atoms: C6_11  and  C7_12
REMARK    8  A    between atoms: C17_24  and  O3_25
REMARK    9  A    between atoms: C17_24  and  C18_27
REMARK   10  A    between atoms: C18_27  and  N3_28
REMARK   11  A    between atoms: N3_28  and  C19_31
ROOT
HETATM    1  C14 UNL     1      14.495  -2.450  52.288  1.00  0.00     0.120 C
HETATM    2  C15 UNL     1      15.786  -2.296  53.067  1.00  0.00     0.028 C
HETATM    3  C16 UNL     1      14.623  -3.681  51.501  1.00  0.00     0.066 C
HETATM    4  N2  UNL     1      14.761  -4.664  50.916  1.00  0.00    -0.197 NA
ENDROOT
BRANCH   1   5
HETATM    5  C3  UNL     1      14.177  -1.207  51.543  1.00  0.00     0.083 C
BRANCH   5   6
HETATM    6  C2  UNL     1      14.743  -1.222  50.163  1.00  0.00     0.031 C
HETATM    7  C1  UNL     1      15.572  -0.012  49.797  1.00  0.00     0.007 C
ENDBRANCH   5   6
BRANCH   5   8
HETATM    8  N1  UNL     1      14.449  -0.100  52.345  1.00  0.00    -0.301 N
ATOM      9  H1  UNL     1      15.335  -0.206  52.840  1.00  0.00     0.173 HD
BRANCH   8  10
HETATM   10  S1  UNL     1      13.741   1.294  52.697  1.00  0.00     0.261 S
HETATM   11  O1  UNL     1      12.853   1.915  51.632  1.00  0.00    -0.200 OA
HETATM   12  O2  UNL     1      12.871   1.260  53.988  1.00  0.00    -0.200 OA
BRANCH  10  13
HETATM   13  C4  UNL     1      14.888   2.565  53.055  1.00  0.00     0.101 A
HETATM   14  C5  UNL     1      14.343   3.868  53.083  1.00  0.00     0.035 A
HETATM   15  C6  UNL     1      15.095   4.944  53.405  1.00  0.00    -0.049 A
HETATM   16  C11 UNL     1      16.435   4.761  53.718  1.00  0.00     0.010 A
HETATM   17  C12 UNL     1      17.000   3.503  53.699  1.00  0.00     0.026 A
HETATM   18  C13 UNL     1      16.198   2.418  53.359  1.00  0.00     0.057 A
HETATM   19 CL1  UNL     1      16.980   0.871  53.207  1.00  0.00    -0.083 Cl
BRANCH  15  20
HETATM   20  C7  UNL     1      14.473   6.302  53.371  1.00  0.00    -0.024 C
HETATM   21  C8  UNL     1      13.584   6.507  54.561  1.00  0.00     0.019 C
HETATM   22  C9  UNL     1      13.722   6.590  52.111  1.00  0.00     0.019 C
HETATM   23  C10 UNL     1      15.644   7.302  53.471  1.00  0.00     0.019 C
ENDBRANCH  15  20
ENDBRANCH  10  13
ENDBRANCH   8  10
ENDBRANCH   5   8
BRANCH   5  24
HETATM   24  C17 UNL     1      12.633  -1.151  51.452  1.00  0.00     0.173 C
BRANCH  24  25
HETATM   25  O3  UNL     1      12.089  -1.541  52.647  1.00  0.00    -0.391 OA
ATOM     26  H3  UNL     1      11.539  -2.305  52.513  1.00  0.00     0.210 HD
ENDBRANCH  24  25
BRANCH  24  27
HETATM   27  C18 UNL     1      11.944  -1.633  50.281  1.00  0.00     0.266 C
BRANCH  27  28
HETATM   28  N3  UNL     1      11.371  -2.964  50.696  1.00  0.00    -0.068 N
ATOM     29  H32 UNL     1      12.014  -3.485  51.292  1.00  0.00     0.277 HD
ATOM     30  H31 UNL     1      10.603  -2.858  51.359  1.00  0.00     0.277 HD
BRANCH  28  31
HETATM   31  C19 UNL     1      10.976  -3.728  49.529  1.00  0.00     0.190 C
HETATM   32  C20 UNL     1      12.200  -3.842  48.650  1.00  0.00     0.059 C
HETATM   33  C21 UNL     1      12.464  -5.249  48.164  1.00  0.00     0.169 C
HETATM   34  O4  UNL     1      11.246  -5.878  47.822  1.00  0.00    -0.391 OA
HETATM   35  C22 UNL     1      10.645  -6.189  49.022  1.00  0.00     0.169 C
HETATM   36  C23 UNL     1      10.639  -5.112  50.049  1.00  0.00     0.059 C
ENDBRANCH  28  31
ENDBRANCH  27  28
ENDBRANCH  24  27
ENDBRANCH   5  24
ENDBRANCH   1   5
TORSDOF 11
ENDMDL