MODEL 3
REMARK VINA RESULT: -8.285648950      1.539      2.264
REMARK  12 active torsions:
REMARK  status: ('A' for Active; 'I' for Inactive)
REMARK    1  A    between atoms: C2_3  and  C3_4
REMARK    2  A    between atoms: C3_4  and  C4_5
REMARK    3  A    between atoms: C4_5  and  C5_6
REMARK    4  A    between atoms: C5_6  and  C6_7
REMARK    5  A    between atoms: C6_7  and  C7_8
REMARK    6  A    between atoms: C7_8  and  C8_9
REMARK    7  A    between atoms: C8_9  and  C9_10
REMARK    8  A    between atoms: C9_10  and  C10_11
REMARK    9  A    between atoms: C10_11  and  C11_12
REMARK   10  A    between atoms: C13_14  and  C14_15
REMARK   11  A    between atoms: C14_15  and  O1_16
REMARK   12  A    between atoms: C17_20  and  O2_21
ROOT
HETATM    1  N1  UNL     1     -46.488 111.102 -38.639  1.00  0.00    -0.197 NA
HETATM    2  C1  UNL     1     -47.319 111.403 -39.395  1.00  0.00     0.059 C
HETATM    3  C2  UNL     1     -48.361 111.772 -40.371  1.00  0.00     0.124 C
ENDROOT
BRANCH   3   4
HETATM    4  C3  UNL     1     -49.003 113.031 -39.879  1.00  0.00     0.014 C
BRANCH   4   5
HETATM    5  C4  UNL     1     -49.743 113.703 -41.001  1.00  0.00     0.001 C
BRANCH   5   6
HETATM    6  C5  UNL     1     -50.437 112.703 -41.856  1.00  0.00     0.000 C
BRANCH   6   7
HETATM    7  C6  UNL     1     -49.938 112.775 -43.264  1.00  0.00     0.000 C
BRANCH   7   8
HETATM    8  C7  UNL     1     -51.053 112.859 -44.281  1.00  0.00     0.000 C
BRANCH   8   9
HETATM    9  C8  UNL     1     -52.366 112.746 -43.585  1.00  0.00     0.000 C
BRANCH   9  10
HETATM   10  C9  UNL     1     -53.320 113.879 -43.950  1.00  0.00     0.000 C
BRANCH  10  11
HETATM   11  C10 UNL     1     -54.457 114.033 -43.000  1.00  0.00     0.005 C
BRANCH  11  12
HETATM   12  C11 UNL     1     -53.951 114.113 -41.580  1.00  0.00    -0.007 C
HETATM   13  C12 UNL     1     -54.619 113.017 -40.724  1.00  0.00     0.019 C
HETATM   14  C13 UNL     1     -55.209 113.873 -39.661  1.00  0.00     0.008 C
HETATM   15  C15 UNL     1     -55.871 114.978 -40.470  1.00  0.00     0.021 C
HETATM   16  C17 UNL     1     -54.116 114.915 -39.385  1.00  0.00     0.133 C
HETATM   17  C16 UNL     1     -54.418 115.316 -40.838  1.00  0.00     0.020 C
BRANCH  14  18
HETATM   18  C14 UNL     1     -55.914 113.310 -38.536  1.00  0.00     0.176 C
BRANCH  18  19
HETATM   19  O1  UNL     1     -55.065 113.133 -37.461  1.00  0.00    -0.400 OA
ATOM     20  H1  UNL     1     -55.303 113.708 -36.744  1.00  0.00     0.209 HD
ENDBRANCH  18  19
ENDBRANCH  14  18
BRANCH  16  21
HETATM   21  O2  UNL     1     -52.841 114.398 -39.311  1.00  0.00    -0.394 OA
ATOM     22  H2  UNL     1     -52.637 113.971 -38.487  1.00  0.00     0.210 HD
ENDBRANCH  16  21
ENDBRANCH  11  12
ENDBRANCH  10  11
ENDBRANCH   9  10
ENDBRANCH   8   9
ENDBRANCH   7   8
ENDBRANCH   6   7
ENDBRANCH   5   6
ENDBRANCH   4   5
ENDBRANCH   3   4
TORSDOF 12
ENDMDL