MODEL 4
REMARK VINA RESULT: -8.126796695      1.197      1.304
REMARK  12 active torsions:
REMARK  status: ('A' for Active; 'I' for Inactive)
REMARK    1  A    between atoms: O1_1  and  N1_3
REMARK    2  A    between atoms: C1_5  and  O2_6
REMARK    3  A    between atoms: C1_5  and  C2_8
REMARK    4  A    between atoms: C2_8  and  C3_9
REMARK    5  A    between atoms: C3_9  and  C4_10
REMARK    6  A    between atoms: C4_10  and  C5_11
REMARK    7  A    between atoms: C5_11  and  C6_12
REMARK    8  A    between atoms: C6_12  and  C7_13
REMARK    9  A    between atoms: C7_13  and  C8_14
REMARK   10  A    between atoms: C8_14  and  C9_15
REMARK   11  A    between atoms: C9_15  and  C10_16
REMARK   12  A    between atoms: C10_16  and  N2_17
ROOT
HETATM    1  C5  UNL     1     -48.700 112.997 -39.622  1.00  0.00     0.000 C
ENDROOT
BRANCH   1   2
HETATM    2  C4  UNL     1     -49.515 113.443 -40.787  1.00  0.00     0.000 C
BRANCH   2   3
HETATM    3  C3  UNL     1     -49.808 112.328 -41.758  1.00  0.00     0.008 C
BRANCH   3   4
HETATM    4  C2  UNL     1     -50.451 112.947 -43.011  1.00  0.00     0.086 C
BRANCH   4   5
HETATM    5  C1  UNL     1     -51.919 112.969 -42.886  1.00  0.00     0.135 C
HETATM    6  N1  UNL     1     -52.614 113.612 -43.757  1.00  0.00    -0.251 N
ATOM      7  H1  UNL     1     -52.108 114.083 -44.506  1.00  0.00     0.196 HD
BRANCH   6   8
HETATM    8  O1  UNL     1     -53.965 113.714 -43.760  1.00  0.00    -0.288 OA
ATOM      9  H1  UNL     1     -54.489 114.086 -43.060  1.00  0.00     0.244 HD
ENDBRANCH   6   8
BRANCH   5  10
HETATM   10  O2  UNL     1     -52.590 112.322 -41.863  1.00  0.00    -0.348 OA
ATOM     11  H2  UNL     1     -52.894 112.842 -41.128  1.00  0.00     0.219 HD
ENDBRANCH   5  10
ENDBRANCH   4   5
ENDBRANCH   3   4
ENDBRANCH   2   3
ENDBRANCH   1   2
BRANCH   1  12
HETATM   12  C6  UNL     1     -47.994 111.706 -39.940  1.00  0.00     0.000 C
BRANCH  12  13
HETATM   13  C7  UNL     1     -46.917 111.346 -38.963  1.00  0.00     0.000 C
BRANCH  13  14
HETATM   14  C8  UNL     1     -45.880 110.452 -39.596  1.00  0.00     0.002 C
BRANCH  14  15
HETATM   15  C9  UNL     1     -44.670 110.227 -38.723  1.00  0.00     0.030 C
BRANCH  15  16
HETATM   16  C10 UNL     1     -44.997 110.630 -37.325  1.00  0.00     0.272 C
BRANCH  16  17
HETATM   17  N2  UNL     1     -43.849 111.302 -36.694  1.00  0.00     0.088 N
HETATM   18  C11 UNL     1     -44.398 112.234 -35.768  1.00  0.00     0.272 C
HETATM   19  C12 UNL     1     -43.503 113.366 -35.384  1.00  0.00     0.030 C
HETATM   20  C13 UNL     1     -43.040 114.024 -36.686  1.00  0.00     0.003 C
HETATM   21  C14 UNL     1     -42.155 112.978 -37.332  1.00  0.00     0.030 C
HETATM   22  C15 UNL     1     -43.035 111.831 -37.726  1.00  0.00     0.272 C
ENDBRANCH  16  17
ENDBRANCH  15  16
ENDBRANCH  14  15
ENDBRANCH  13  14
ENDBRANCH  12  13
ENDBRANCH   1  12
TORSDOF 12
ENDMDL