MODEL 1
REMARK VINA RESULT: -8.215112193      0.000      0.000
REMARK  10 active torsions:
REMARK  status: ('A' for Active; 'I' for Inactive)
REMARK    1  A    between atoms: C1_4  and  C2_5
REMARK    2  A    between atoms: C2_5  and  C3_6
REMARK    3  A    between atoms: C3_6  and  C4_7
REMARK    4  A    between atoms: C4_7  and  C5_8
REMARK    5  A    between atoms: C5_8  and  C6_9
REMARK    6  A    between atoms: C6_9  and  C7_10
REMARK    7  A    between atoms: C7_10  and  C8_11
REMARK    8  A    between atoms: C8_11  and  C9_12
REMARK    9  A    between atoms: C9_12  and  C10_13
REMARK   10  A    between atoms: C10_13  and  N2_14
ROOT
HETATM    1  C8  UNL     1     -53.241 113.880 -43.832  1.00  0.00     0.002 C
ENDROOT
BRANCH   1   2
HETATM    2  C7  UNL     1     -52.223 112.947 -43.264  1.00  0.00     0.000 C
BRANCH   2   3
HETATM    3  C6  UNL     1     -50.914 112.907 -44.021  1.00  0.00     0.000 C
BRANCH   3   4
HETATM    4  C5  UNL     1     -49.850 112.535 -42.999  1.00  0.00     0.000 C
BRANCH   4   5
HETATM    5  C4  UNL     1     -50.314 112.762 -41.601  1.00  0.00     0.000 C
BRANCH   5   6
HETATM    6  C3  UNL     1     -49.501 113.800 -40.879  1.00  0.00     0.005 C
BRANCH   6   7
HETATM    7  C2  UNL     1     -49.049 113.148 -39.576  1.00  0.00     0.044 C
BRANCH   7   8
HETATM    8  C1  UNL     1     -48.018 112.118 -39.806  1.00  0.00     0.052 C
HETATM    9  N1  UNL     1     -47.983 110.981 -39.208  1.00  0.00    -0.411 N
ATOM     10  H12 UNL     1     -48.724 110.795 -38.532  1.00  0.00     0.155 HD
ATOM     11  H11 UNL     1     -47.270 110.269 -39.366  1.00  0.00     0.155 HD
ENDBRANCH   7   8
ENDBRANCH   6   7
ENDBRANCH   5   6
ENDBRANCH   4   5
ENDBRANCH   3   4
ENDBRANCH   2   3
ENDBRANCH   1   2
BRANCH   1  12
HETATM   12  C9  UNL     1     -54.354 114.004 -42.803  1.00  0.00     0.021 C
BRANCH  12  13
HETATM   13  C10 UNL     1     -53.972 113.524 -41.441  1.00  0.00     0.139 C
BRANCH  13  14
HETATM   14  N2  UNL     1     -55.057 113.703 -40.552  1.00  0.00    -0.319 N
HETATM   15  N3  UNL     1     -56.208 114.263 -41.018  1.00  0.00    -0.138 NA
HETATM   16  C11 UNL     1     -56.639 115.416 -40.207  1.00  0.00     0.106 C
HETATM   17  C12 UNL     1     -55.401 116.305 -40.074  1.00  0.00     0.026 C
HETATM   18  C16 UNL     1     -57.025 114.910 -38.811  1.00  0.00     0.103 C
HETATM   19  C13 UNL     1     -54.347 115.625 -39.242  1.00  0.00     0.036 C
HETATM   20  C14 UNL     1     -54.676 114.115 -39.242  1.00  0.00     0.168 C
HETATM   21  C15 UNL     1     -55.909 114.025 -38.401  1.00  0.00     0.152 C
HETATM   22  O1  UNL     1     -55.938 113.269 -37.465  1.00  0.00    -0.296 OA
ENDBRANCH  13  14
ENDBRANCH  12  13
ENDBRANCH   1  12
TORSDOF 10
ENDMDL