MODEL 3
REMARK VINA RESULT: -8.205824579      0.946      1.154
REMARK  12 active torsions:
REMARK  status: ('A' for Active; 'I' for Inactive)
REMARK    1  A    between atoms: C2_2  and  C3_3
REMARK    2  A    between atoms: C3_3  and  C4_4
REMARK    3  A    between atoms: C4_4  and  N1_5
REMARK    4  A    between atoms: N1_5  and  C5_6
REMARK    5  A    between atoms: N1_5  and  C11_18
REMARK    6  A    between atoms: C5_6  and  C6_7
REMARK    7  A    between atoms: C6_7  and  C7_8
REMARK    8  A    between atoms: C7_8  and  C8_9
REMARK    9  A    between atoms: C8_9  and  C9_10
REMARK   10  A    between atoms: C9_10  and  C10_11
REMARK   11  A    between atoms: C10_11  and  O1_12
REMARK   12  A    between atoms: N2_14  and  O2_16
ROOT
HETATM    1  C5  UNL     1     -55.309 114.129 -39.747  1.00  0.00     0.273 C
ENDROOT
BRANCH   1   2
HETATM    2  N1  UNL     1     -56.253 115.062 -40.324  1.00  0.00     0.093 N
BRANCH   2   3
HETATM    3  C4  UNL     1     -56.035 116.268 -39.495  1.00  0.00     0.276 C
BRANCH   3   4
HETATM    4  C3  UNL     1     -55.345 117.386 -40.137  1.00  0.00     0.056 C
BRANCH   4   5
HETATM    5  C2  UNL     1     -56.331 118.488 -40.338  1.00  0.00    -0.035 C
HETATM    6  C1  UNL     1     -56.372 119.527 -39.557  1.00  0.00     0.007 C
ENDBRANCH   4   5
ENDBRANCH   3   4
ENDBRANCH   2   3
BRANCH   2   7
HETATM    7  C11 UNL     1     -57.619 114.664 -40.258  1.00  0.00     0.223 C
HETATM    8  C12 UNL     1     -58.409 115.014 -39.063  1.00  0.00     0.036 C
HETATM    9  C13 UNL     1     -59.322 113.838 -38.659  1.00  0.00     0.002 C
HETATM   10  C14 UNL     1     -60.130 113.461 -39.862  1.00  0.00     0.000 C
HETATM   11  C15 UNL     1     -59.321 113.166 -41.089  1.00  0.00     0.002 C
HETATM   12  C16 UNL     1     -57.826 113.245 -40.684  1.00  0.00     0.036 C
ENDBRANCH   2   7
ENDBRANCH   1   2
BRANCH   1  13
HETATM   13  C6  UNL     1     -54.039 113.887 -40.453  1.00  0.00     0.030 C
BRANCH  13  14
HETATM   14  C7  UNL     1     -54.058 114.323 -41.903  1.00  0.00     0.002 C
BRANCH  14  15
HETATM   15  C8  UNL     1     -53.689 113.171 -42.811  1.00  0.00     0.008 C
BRANCH  15  16
HETATM   16  C9  UNL     1     -53.178 113.819 -44.100  1.00  0.00     0.086 C
BRANCH  16  17
HETATM   17  C10 UNL     1     -51.891 113.207 -44.470  1.00  0.00     0.135 C
HETATM   18  N2  UNL     1     -51.176 112.650 -43.558  1.00  0.00    -0.251 N
ATOM     19  H2  UNL     1     -51.505 112.637 -42.593  1.00  0.00     0.196 HD
BRANCH  17  20
HETATM   20  O1  UNL     1     -51.463 113.235 -45.787  1.00  0.00    -0.348 OA
ATOM     21  H1  UNL     1     -51.963 112.785 -46.459  1.00  0.00     0.219 HD
ENDBRANCH  17  20
BRANCH  18  22
HETATM   22  O2  UNL     1     -49.969 112.069 -43.876  1.00  0.00    -0.288 OA
ATOM     23  H2  UNL     1     -49.767 111.841 -44.776  1.00  0.00     0.244 HD
ENDBRANCH  18  22
ENDBRANCH  16  17
ENDBRANCH  15  16
ENDBRANCH  14  15
ENDBRANCH  13  14
ENDBRANCH   1  13
TORSDOF 12
ENDMDL