MODEL 4
REMARK VINA RESULT: -7.880087990      6.255     10.197
REMARK  11 active torsions:
REMARK  status: ('A' for Active; 'I' for Inactive)
REMARK    1  A    between atoms: S1_2  and  C2_3
REMARK       I    between atoms: C2_3  and  N1_5
REMARK    2  A    between atoms: N1_5  and  C3_7
REMARK    3  A    between atoms: C3_7  and  C4_8
REMARK    4  A    between atoms: C4_8  and  C5_9
REMARK    5  A    between atoms: C5_9  and  C6_10
REMARK    6  A    between atoms: C6_10  and  C7_11
REMARK    7  A    between atoms: C7_11  and  C8_12
REMARK    8  A    between atoms: C8_12  and  C9_13
REMARK    9  A    between atoms: C9_13  and  C10_14
REMARK   10  A    between atoms: C10_14  and  N2_15
REMARK   11  A    between atoms: N2_15  and  C11_18
ROOT
HETATM    1  C7  UNL     1     -54.084 113.954 -40.527  1.00  0.00     0.000 C
ENDROOT
BRANCH   1   2
HETATM    2  C6  UNL     1     -54.043 115.042 -39.528  1.00  0.00     0.000 C
BRANCH   2   3
HETATM    3  C5  UNL     1     -54.815 116.223 -40.110  1.00  0.00     0.002 C
BRANCH   3   4
HETATM    4  C4  UNL     1     -55.814 116.695 -39.069  1.00  0.00     0.020 C
BRANCH   4   5
HETATM    5  C3  UNL     1     -57.180 116.505 -39.638  1.00  0.00     0.123 C
BRANCH   5   6
HETATM    6  N1  UNL     1     -57.842 115.322 -39.165  1.00  0.00    -0.352 N
HETATM    7  C2  UNL     1     -58.063 114.246 -40.065  1.00  0.00     0.279 C
HETATM    8  O1  UNL     1     -57.680 114.328 -41.277  1.00  0.00    -0.260 OA
ATOM      9  H1  UNL     1     -58.150 115.255 -38.195  1.00  0.00     0.163 HD
BRANCH   7  10
HETATM   10  S1  UNL     1     -58.870 112.742 -39.609  1.00  0.00    -0.074 SA
HETATM   11  C1  UNL     1     -59.729 112.967 -38.034  1.00  0.00     0.100 C
ENDBRANCH   7  10
ENDBRANCH   5   6
ENDBRANCH   4   5
ENDBRANCH   3   4
ENDBRANCH   2   3
ENDBRANCH   1   2
BRANCH   1  12
HETATM   12  C8  UNL     1     -54.331 114.298 -41.926  1.00  0.00     0.002 C
BRANCH  12  13
HETATM   13  C9  UNL     1     -53.404 113.614 -42.930  1.00  0.00     0.027 C
BRANCH  13  14
HETATM   14  C10 UNL     1     -52.380 112.906 -42.006  1.00  0.00     0.232 C
BRANCH  14  15
HETATM   15  N2  UNL     1     -51.165 112.713 -42.720  1.00  0.00    -0.071 N
ATOM     16  H22 UNL     1     -51.120 111.765 -43.095  1.00  0.00     0.277 HD
ATOM     17  H21 UNL     1     -51.176 113.246 -43.590  1.00  0.00     0.277 HD
BRANCH  15  18
HETATM   18  C11 UNL     1     -49.996 113.003 -41.981  1.00  0.00     0.185 C
HETATM   19  C12 UNL     1     -50.436 113.436 -40.560  1.00  0.00     0.033 C
HETATM   20  C13 UNL     1     -49.141 113.320 -39.802  1.00  0.00     0.002 C
HETATM   21  C14 UNL     1     -48.605 111.989 -40.281  1.00  0.00     0.002 C
HETATM   22  C15 UNL     1     -49.027 111.917 -41.725  1.00  0.00     0.033 C
ENDBRANCH  15  18
ENDBRANCH  14  15
ENDBRANCH  13  14
ENDBRANCH  12  13
ENDBRANCH   1  12
TORSDOF 11
ENDMDL