MODEL 4
REMARK VINA RESULT: -8.755474408      4.175     10.298
REMARK  11 active torsions:
REMARK  status: ('A' for Active; 'I' for Inactive)
REMARK    1  A    between atoms: C1_4  and  O1_5
REMARK    2  A    between atoms: C1_4  and  C2_7
REMARK    3  A    between atoms: C2_7  and  C3_8
REMARK    4  A    between atoms: C3_8  and  C4_9
REMARK    5  A    between atoms: C4_9  and  C5_10
REMARK    6  A    between atoms: C5_10  and  C6_11
REMARK    7  A    between atoms: C6_11  and  C7_12
REMARK    8  A    between atoms: C7_12  and  C8_13
REMARK    9  A    between atoms: C8_13  and  C9_14
REMARK   10  A    between atoms: C9_14  and  C10_15
REMARK       I    between atoms: C10_15  and  N2_17
REMARK   11  A    between atoms: N2_17  and  C11_19
ROOT
HETATM    1  C7  UNL     1     -49.221 113.181 -40.689  1.00  0.00     0.000 C
ENDROOT
BRANCH   1   2
HETATM    2  C6  UNL     1     -48.402 112.686 -39.520  1.00  0.00     0.000 C
BRANCH   2   3
HETATM    3  C5  UNL     1     -47.694 111.411 -39.891  1.00  0.00     0.000 C
BRANCH   3   4
HETATM    4  C4  UNL     1     -46.660 111.002 -38.895  1.00  0.00     0.000 C
BRANCH   4   5
HETATM    5  C3  UNL     1     -45.456 110.345 -39.530  1.00  0.00     0.008 C
BRANCH   5   6
HETATM    6  C2  UNL     1     -44.683 109.660 -38.411  1.00  0.00     0.083 C
BRANCH   6   7
HETATM    7  C1  UNL     1     -44.189 110.624 -37.406  1.00  0.00     0.108 C
HETATM    8  N1  UNL     1     -43.331 111.508 -37.774  1.00  0.00    -0.384 N
ATOM      9  H12 UNL     1     -42.991 112.173 -37.080  1.00  0.00     0.157 HD
ATOM     10  H11 UNL     1     -43.027 111.507 -38.747  1.00  0.00     0.157 HD
BRANCH   7  11
HETATM   11  O1  UNL     1     -44.598 110.627 -36.096  1.00  0.00    -0.350 OA
ATOM     12  H1  UNL     1     -44.312 109.914 -35.537  1.00  0.00     0.219 HD
ENDBRANCH   7  11
ENDBRANCH   6   7
ENDBRANCH   5   6
ENDBRANCH   4   5
ENDBRANCH   3   4
ENDBRANCH   2   3
ENDBRANCH   1   2
BRANCH   1  13
HETATM   13  C8  UNL     1     -50.589 113.654 -40.260  1.00  0.00     0.009 C
BRANCH  13  14
HETATM   14  C9  UNL     1     -51.611 112.875 -41.031  1.00  0.00     0.103 C
BRANCH  14  15
HETATM   15  C10 UNL     1     -52.951 113.480 -40.987  1.00  0.00     0.217 C
HETATM   16  O2  UNL     1     -53.679 113.394 -42.004  1.00  0.00    -0.274 OA
HETATM   17  N2  UNL     1     -53.465 114.159 -39.857  1.00  0.00    -0.356 N
ATOM     18  H2  UNL     1     -52.865 114.226 -39.035  1.00  0.00     0.162 HD
BRANCH  17  19
HETATM   19  C11 UNL     1     -54.758 114.756 -39.781  1.00  0.00     0.084 C
HETATM   20  C12 UNL     1     -54.725 116.203 -40.258  1.00  0.00     0.025 C
HETATM   21  C13 UNL     1     -55.950 116.950 -39.765  1.00  0.00     0.002 C
HETATM   22  C14 UNL     1     -57.092 115.947 -39.712  1.00  0.00     0.000 C
HETATM   23  C15 UNL     1     -56.833 115.059 -38.507  1.00  0.00     0.002 C
HETATM   24  C16 UNL     1     -55.360 114.727 -38.405  1.00  0.00     0.025 C
ENDBRANCH  17  19
ENDBRANCH  14  15
ENDBRANCH  13  14
ENDBRANCH   1  13
TORSDOF 11
ENDMDL