MODEL 1
REMARK VINA RESULT: -9.110142382      0.000      0.000
REMARK  11 active torsions:
REMARK  status: ('A' for Active; 'I' for Inactive)
REMARK    1  A    between atoms: C1_2  and  C2_4
REMARK    2  A    between atoms: C2_4  and  C3_5
REMARK    3  A    between atoms: C3_5  and  C4_6
REMARK    4  A    between atoms: C4_6  and  C5_7
REMARK    5  A    between atoms: C5_7  and  C6_8
REMARK    6  A    between atoms: C6_8  and  C7_9
REMARK    7  A    between atoms: C7_9  and  C8_10
REMARK    8  A    between atoms: C9_11  and  C10_12
REMARK    9  A    between atoms: C10_12  and  C11_13
REMARK   10  A    between atoms: C11_13  and  C12_14
REMARK   11  A    between atoms: C17_19  and  O3_20
ROOT
HETATM    1  C8  UNL     1     -48.446 112.805 -39.370  1.00  0.00    -0.031 C
HETATM    2  C9  UNL     1     -49.291 113.551 -40.001  1.00  0.00    -0.031 C
ENDROOT
BRANCH   2   3
HETATM    3  C10 UNL     1     -49.683 113.346 -41.414  1.00  0.00     0.027 C
BRANCH   3   4
HETATM    4  C11 UNL     1     -50.963 112.551 -41.529  1.00  0.00     0.011 C
BRANCH   4   5
HETATM    5  C12 UNL     1     -52.174 113.364 -41.775  1.00  0.00     0.015 C
HETATM    6  C13 UNL     1     -53.138 113.437 -40.629  1.00  0.00     0.007 C
HETATM    7  C14 UNL     1     -54.108 114.583 -40.961  1.00  0.00     0.001 C
HETATM    8  C15 UNL     1     -54.899 114.104 -42.160  1.00  0.00     0.002 C
HETATM    9  C16 UNL     1     -54.045 113.845 -43.368  1.00  0.00     0.032 C
HETATM   10  C17 UNL     1     -52.845 112.978 -43.058  1.00  0.00     0.122 C
BRANCH  10  11
HETATM   11  O3  UNL     1     -51.925 113.178 -44.094  1.00  0.00    -0.395 OA
ATOM     12  H3  UNL     1     -51.527 114.031 -43.963  1.00  0.00     0.210 HD
ENDBRANCH  10  11
ENDBRANCH   4   5
ENDBRANCH   3   4
ENDBRANCH   2   3
BRANCH   1  13
HETATM   13  C7  UNL     1     -47.737 111.660 -39.893  1.00  0.00     0.027 C
BRANCH  13  14
HETATM   14  C6  UNL     1     -46.780 111.036 -38.885  1.00  0.00     0.004 C
BRANCH  14  15
HETATM   15  C5  UNL     1     -45.651 110.316 -39.591  1.00  0.00     0.000 C
BRANCH  15  16
HETATM   16  C4  UNL     1     -44.688 109.849 -38.491  1.00  0.00     0.001 C
BRANCH  16  17
HETATM   17  C3  UNL     1     -43.746 110.947 -38.098  1.00  0.00     0.010 C
BRANCH  17  18
HETATM   18  C2  UNL     1     -43.756 111.075 -36.592  1.00  0.00     0.113 C
BRANCH  18  19
HETATM   19  C1  UNL     1     -44.144 112.397 -36.099  1.00  0.00     0.172 C
HETATM   20  O1  UNL     1     -45.259 112.559 -35.528  1.00  0.00    -0.648 OA
HETATM   21  O2  UNL     1     -43.344 113.532 -36.217  1.00  0.00    -0.648 OA
ENDBRANCH  18  19
ENDBRANCH  17  18
ENDBRANCH  16  17
ENDBRANCH  15  16
ENDBRANCH  14  15
ENDBRANCH  13  14
ENDBRANCH   1  13
TORSDOF 11
ENDMDL