MODEL 1
REMARK VINA RESULT: -8.758239228      0.000      0.000
REMARK  11 active torsions:
REMARK  status: ('A' for Active; 'I' for Inactive)
REMARK    1  A    between atoms: C3_3  and  C4_4
REMARK    2  A    between atoms: C4_4  and  C5_5
REMARK    3  A    between atoms: C5_5  and  C6_6
REMARK    4  A    between atoms: C6_6  and  C7_7
REMARK    5  A    between atoms: C7_7  and  C8_8
REMARK    6  A    between atoms: C8_8  and  C9_9
REMARK    7  A    between atoms: C9_9  and  C10_10
REMARK    8  A    between atoms: C10_10  and  C11_11
REMARK    9  A    between atoms: C11_11  and  C12_12
REMARK   10  A    between atoms: C16_18  and  C17_19
REMARK   11  A    between atoms: N2_20  and  O1_22
ROOT
HETATM    1  C1  UNL     1     -47.500 111.759 -39.213  1.00  0.00     0.012 C
HETATM    2  C2  UNL     1     -48.379 112.533 -39.521  1.00  0.00    -0.117 C
HETATM    3  C3  UNL     1     -49.457 113.451 -39.886  1.00  0.00     0.093 C
ENDROOT
BRANCH   3   4
HETATM    4  C4  UNL     1     -49.498 113.540 -41.408  1.00  0.00     0.012 C
BRANCH   4   5
HETATM    5  C5  UNL     1     -50.713 112.830 -41.960  1.00  0.00     0.001 C
BRANCH   5   6
HETATM    6  C6  UNL     1     -50.519 112.691 -43.457  1.00  0.00     0.000 C
BRANCH   6   7
HETATM    7  C7  UNL     1     -51.716 113.153 -44.221  1.00  0.00     0.000 C
BRANCH   7   8
HETATM    8  C8  UNL     1     -53.008 112.790 -43.544  1.00  0.00     0.000 C
BRANCH   8   9
HETATM    9  C9  UNL     1     -53.907 113.973 -43.394  1.00  0.00     0.000 C
BRANCH   9  10
HETATM   10  C10 UNL     1     -54.088 114.431 -41.962  1.00  0.00     0.000 C
BRANCH  10  11
HETATM   11  C11 UNL     1     -54.485 113.270 -41.126  1.00  0.00     0.007 C
BRANCH  11  12
HETATM   12  C12 UNL     1     -55.631 113.533 -40.170  1.00  0.00     0.014 C
HETATM   13  C13 UNL     1     -56.646 114.413 -40.786  1.00  0.00     0.012 C
HETATM   14  C14 UNL     1     -57.147 115.524 -39.896  1.00  0.00     0.044 C
HETATM   15  C15 UNL     1     -55.954 116.182 -39.293  1.00  0.00     0.056 C
HETATM   16  N1  UNL     1     -55.240 115.294 -38.473  1.00  0.00    -0.393 N
HETATM   17  C16 UNL     1     -55.157 113.940 -38.814  1.00  0.00     0.125 C
ATOM     18  H1  UNL     1     -54.782 115.636 -37.628  1.00  0.00     0.159 HD
BRANCH  17  19
HETATM   19  C17 UNL     1     -55.805 113.134 -37.736  1.00  0.00     0.112 C
HETATM   20  N2  UNL     1     -56.941 112.546 -37.931  1.00  0.00    -0.282 N
ATOM     21  H2  UNL     1     -57.385 112.648 -38.844  1.00  0.00     0.192 HD
BRANCH  20  22
HETATM   22  O1  UNL     1     -57.576 111.803 -36.995  1.00  0.00    -0.290 OA
ATOM     23  H1  UNL     1     -57.190 111.561 -36.161  1.00  0.00     0.244 HD
ENDBRANCH  20  22
ENDBRANCH  17  19
ENDBRANCH  11  12
ENDBRANCH  10  11
ENDBRANCH   9  10
ENDBRANCH   8   9
ENDBRANCH   7   8
ENDBRANCH   6   7
ENDBRANCH   5   6
ENDBRANCH   4   5
ENDBRANCH   3   4
TORSDOF 11
ENDMDL