MODEL 1
REMARK VINA RESULT: -8.597460570      0.000      0.000
REMARK  12 active torsions:
REMARK  status: ('A' for Active; 'I' for Inactive)
REMARK    1  A    between atoms: C2_2  and  C3_3
REMARK    2  A    between atoms: C3_3  and  C4_4
REMARK    3  A    between atoms: C4_4  and  C5_5
REMARK    4  A    between atoms: C5_5  and  C6_6
REMARK    5  A    between atoms: C8_9  and  C9_10
REMARK    6  A    between atoms: C9_10  and  C10_11
REMARK    7  A    between atoms: C11_12  and  C12_13
REMARK    8  A    between atoms: C12_13  and  C13_14
REMARK    9  A    between atoms: C13_14  and  C14_15
REMARK   10  A    between atoms: C14_15  and  C15_16
REMARK   11  A    between atoms: C15_16  and  O2_17
REMARK   12  A    between atoms: N1_19  and  O3_21
ROOT
HETATM    1  C10 UNL     1     -52.706 113.307 -43.475  1.00  0.00    -0.028 C
HETATM    2  C11 UNL     1     -51.514 113.134 -43.950  1.00  0.00    -0.031 C
ENDROOT
BRANCH   1   3
HETATM    3  C9  UNL     1     -53.175 112.834 -42.184  1.00  0.00     0.059 C
BRANCH   3   4
HETATM    4  C8  UNL     1     -54.575 113.389 -41.853  1.00  0.00     0.125 C
HETATM    5  O1  UNL     1     -55.087 112.747 -40.761  1.00  0.00    -0.385 OA
HETATM    6  C7  UNL     1     -55.207 113.653 -39.714  1.00  0.00     0.172 C
HETATM    7  C6  UNL     1     -54.223 114.738 -40.011  1.00  0.00     0.012 C
HETATM    8  C16 UNL     1     -54.357 114.848 -41.510  1.00  0.00     0.039 C
BRANCH   7   9
HETATM    9  C5  UNL     1     -54.423 116.003 -39.277  1.00  0.00     0.007 C
BRANCH   9  10
HETATM   10  C4  UNL     1     -55.760 116.135 -38.616  1.00  0.00     0.004 C
BRANCH  10  11
HETATM   11  C3  UNL     1     -56.765 116.871 -39.474  1.00  0.00     0.026 C
BRANCH  11  12
HETATM   12  C2  UNL     1     -56.173 118.027 -40.177  1.00  0.00    -0.037 C
HETATM   13  C1  UNL     1     -56.350 119.275 -39.801  1.00  0.00     0.007 C
ENDBRANCH  11  12
ENDBRANCH  10  11
ENDBRANCH   9  10
ENDBRANCH   7   9
ENDBRANCH   3   4
ENDBRANCH   1   3
BRANCH   2  14
HETATM   14  C12 UNL     1     -50.426 112.433 -43.268  1.00  0.00     0.027 C
BRANCH  14  15
HETATM   15  C13 UNL     1     -49.848 113.312 -42.195  1.00  0.00     0.012 C
BRANCH  15  16
HETATM   16  C14 UNL     1     -49.246 112.532 -41.094  1.00  0.00     0.086 C
BRANCH  16  17
HETATM   17  C15 UNL     1     -49.432 113.148 -39.786  1.00  0.00     0.135 C
HETATM   18  N1  UNL     1     -48.573 112.953 -38.818  1.00  0.00    -0.251 N
ATOM     19  H1  UNL     1     -48.716 113.390 -37.908  1.00  0.00     0.196 HD
BRANCH  17  20
HETATM   20  O2  UNL     1     -50.497 113.955 -39.492  1.00  0.00    -0.348 OA
ATOM     21  H2  UNL     1     -50.421 114.730 -38.949  1.00  0.00     0.219 HD
ENDBRANCH  17  20
BRANCH  18  22
HETATM   22  O3  UNL     1     -47.485 112.159 -39.038  1.00  0.00    -0.288 OA
ATOM     23  H3  UNL     1     -47.402 111.340 -38.563  1.00  0.00     0.244 HD
ENDBRANCH  18  22
ENDBRANCH  16  17
ENDBRANCH  15  16
ENDBRANCH  14  15
ENDBRANCH   2  14
TORSDOF 12
ENDMDL