MODEL 4
REMARK VINA RESULT: -6.898107453      3.490      7.240
REMARK  7 active torsions:
REMARK  status: ('A' for Active; 'I' for Inactive)
REMARK    1  A    between atoms: C9_11  and  C10_12
REMARK    2  A    between atoms: C10_12  and  C11_13
REMARK    3  A    between atoms: C11_13  and  C12_14
REMARK    4  A    between atoms: C12_14  and  C13_15
REMARK    5  A    between atoms: C13_15  and  O2_18
REMARK    6  A    between atoms: C17_21  and  C18_22
REMARK    7  A    between atoms: C18_22  and  O3_23
ROOT
HETATM    1  C1  UNL     1       7.378  -9.149  -2.950  1.00  0.00     0.077 C
HETATM    2  C2  UNL     1       8.650  -8.654  -3.540  1.00  0.00     0.057 A
HETATM    3  O1  UNL     1       9.769  -8.326  -2.934  1.00  0.00    -0.312 OA
HETATM    4  C3  UNL     1      10.676  -7.931  -3.794  1.00  0.00     0.108 A
HETATM    5  C4  UNL     1      11.983  -7.500  -3.581  1.00  0.00     0.078 A
HETATM    6 CL1  UNL     1      12.623  -7.436  -1.961  1.00  0.00    -0.081 Cl
HETATM    7  C5  UNL     1      12.777  -7.128  -4.611  1.00  0.00     0.001 A
HETATM    8  C6  UNL     1      12.228  -7.194  -5.904  1.00  0.00    -0.044 A
HETATM    9  C7  UNL     1      10.942  -7.619  -6.104  1.00  0.00     0.022 A
HETATM   10  C8  UNL     1      10.139  -7.997  -5.047  1.00  0.00     0.009 A
HETATM   11  C9  UNL     1       8.850  -8.457  -4.886  1.00  0.00    -0.016 A
HETATM   12  C16 UNL     1      13.030  -6.805  -7.112  1.00  0.00     0.073 C
HETATM   13  C17 UNL     1      14.207  -5.963  -6.759  1.00  0.00     0.150 C
HETATM   14  O4  UNL     1      14.200  -5.525  -5.436  1.00  0.00    -0.374 OA
HETATM   15  C19 UNL     1      14.143  -6.659  -4.581  1.00  0.00     0.153 C
HETATM   16  C20 UNL     1      14.855  -6.444  -3.324  1.00  0.00     0.045 C
ENDROOT
BRANCH  11  17
HETATM   17  C10 UNL     1       7.875  -8.686  -6.002  1.00  0.00     0.042 C
BRANCH  17  18
HETATM   18  C11 UNL     1       7.906 -10.143  -6.324  1.00  0.00     0.008 C
BRANCH  18  19
HETATM   19  C12 UNL     1       6.593 -10.841  -6.305  1.00  0.00     0.037 C
BRANCH  19  20
HETATM   20  C13 UNL     1       6.580 -12.196  -5.688  1.00  0.00     0.051 C
HETATM   21  C14 UNL     1       7.948 -12.713  -5.341  1.00  0.00     0.045 C
HETATM   22  C15 UNL     1       5.816 -12.052  -4.361  1.00  0.00     0.045 C
BRANCH  20  23
HETATM   23  O2  UNL     1       5.885 -13.152  -6.409  1.00  0.00    -0.391 OA
ATOM     24  H2  UNL     1       6.431 -13.721  -6.941  1.00  0.00     0.210 HD
ENDBRANCH  20  23
ENDBRANCH  19  20
ENDBRANCH  18  19
ENDBRANCH  17  18
ENDBRANCH  11  17
BRANCH  13  25
HETATM   25  C18 UNL     1      14.360  -4.739  -7.634  1.00  0.00     0.196 C
BRANCH  25  26
HETATM   26  O3  UNL     1      14.932  -3.669  -6.983  1.00  0.00    -0.398 OA
ATOM     27  H3  UNL     1      15.833  -3.822  -6.724  1.00  0.00     0.209 HD
ENDBRANCH  25  26
ENDBRANCH  13  25
TORSDOF 7
ENDMDL