MODEL 2
REMARK VINA RESULT: -5.786383230      1.729      3.269
REMARK  8 active torsions:
REMARK  status: ('A' for Active; 'I' for Inactive)
REMARK    1  A    between atoms: C4_4  and  C5_5
REMARK    2  A    between atoms: C5_5  and  N2_12
REMARK    3  A    between atoms: N1_6  and  C6_8
REMARK    4  A    between atoms: N2_12  and  C11_14
REMARK    5  A    between atoms: C13_16  and  O1_17
REMARK    6  A    between atoms: C14_19  and  C15_20
REMARK    7  A    between atoms: C17_24  and  O4_25
REMARK    8  A    between atoms: O4_25  and  C18_26
ROOT
HETATM    1  C11 UNL     1      10.972  -7.973  -4.933  1.00  0.00     0.072 A
HETATM    2  C12 UNL     1      10.209  -8.601  -5.883  1.00  0.00     0.070 A
HETATM    3  C13 UNL     1       8.923  -9.069  -5.638  1.00  0.00     0.085 A
HETATM    4  C14 UNL     1       8.382  -8.904  -4.402  1.00  0.00     0.076 A
HETATM    5  C16 UNL     1       9.141  -8.271  -3.431  1.00  0.00     0.060 A
HETATM    6  C17 UNL     1      10.415  -7.803  -3.661  1.00  0.00     0.097 A
ENDROOT
BRANCH   1   7
HETATM    7  N2  UNL     1      12.260  -7.512  -5.260  1.00  0.00    -0.335 N
HETATM    8  C10 UNL     1      12.376  -6.207  -5.875  1.00  0.00     0.158 C
BRANCH   7   9
HETATM    9  C5  UNL     1      13.411  -8.248  -4.936  1.00  0.00     0.104 C
HETATM   10  N1  UNL     1      13.782  -9.066  -5.855  1.00  0.00    -0.368 N
ATOM     11  H1  UNL     1      13.174  -9.038  -6.674  1.00  0.00     0.161 HD
BRANCH   9  12
HETATM   12  C4  UNL     1      14.139  -8.149  -3.723  1.00  0.00     0.050 C
HETATM   13  C2  UNL     1      14.980  -7.295  -3.240  1.00  0.00    -0.084 C
HETATM   14  C1  UNL     1      15.498  -6.054  -3.833  1.00  0.00     0.043 C
HETATM   15  C3  UNL     1      15.536  -7.591  -1.851  1.00  0.00     0.043 C
ENDBRANCH   9  12
BRANCH  10  16
HETATM   16  C6  UNL     1      14.818  -9.976  -5.991  1.00  0.00     0.021 C
HETATM   17  C7  UNL     1      14.496 -10.881  -7.202  1.00  0.00     0.037 C
HETATM   18  C8  UNL     1      15.044 -10.923  -4.846  1.00  0.00     0.037 C
HETATM   19  C9  UNL     1      16.112  -9.273  -6.353  1.00  0.00     0.037 C
ENDBRANCH  10  16
ENDBRANCH   7   9
ENDBRANCH   1   7
BRANCH   6  20
HETATM   20  O4  UNL     1      11.114  -7.189  -2.659  1.00  0.00    -0.344 OA
BRANCH  20  21
HETATM   21  C18 UNL     1      10.904  -7.183  -1.297  1.00  0.00     0.120 C
HETATM   22  C19 UNL     1      10.563  -5.761  -0.830  1.00  0.00     0.040 C
HETATM   23  C20 UNL     1      12.179  -7.537  -0.528  1.00  0.00     0.040 C
ENDBRANCH  20  21
ENDBRANCH   6  20
BRANCH   3  24
HETATM   24  O1  UNL     1       8.174  -9.701  -6.619  1.00  0.00    -0.360 OA
ATOM     25  H1  UNL     1       8.221 -10.639  -6.758  1.00  0.00     0.217 HD
ENDBRANCH   3  24
BRANCH   4  26
HETATM   26  C15 UNL     1       7.042  -9.386  -4.134  1.00  0.00     0.212 C
HETATM   27  O2  UNL     1       6.901 -10.335  -3.328  1.00  0.00    -0.644 OA
HETATM   28  O3  UNL     1       5.930  -8.839  -4.734  1.00  0.00    -0.644 OA
ENDBRANCH   4  26
TORSDOF 8
ENDMDL