MODEL 1
REMARK VINA RESULT: -8.111687054      0.000      0.000
REMARK  5 active torsions:
REMARK  status: ('A' for Active; 'I' for Inactive)
REMARK    1  A    between atoms: C2_2  and  C3_3
REMARK    2  A    between atoms: C3_3  and  C4_4
REMARK    3  A    between atoms: C6_13  and  C7_14
REMARK    4  A    between atoms: C14_21  and  N4_22
REMARK    5  A    between atoms: C15_24  and  C16_25
ROOT
HETATM    1  C4  UNL     1       8.964  -8.060  -3.398  1.00  0.00     0.053 A
HETATM    2  N1  UNL     1       7.843  -8.217  -2.616  1.00  0.00    -0.301 N
ATOM      3  H1  UNL     1       7.878  -7.818  -1.678  1.00  0.00     0.186 HD
HETATM    4  N2  UNL     1       6.760  -8.813  -2.949  1.00  0.00    -0.277 N
ATOM      5  H2  UNL     1       5.981  -8.875  -2.294  1.00  0.00     0.189 HD
HETATM    6  C5  UNL     1       6.666  -9.354  -4.172  1.00  0.00     0.199 A
HETATM    7  O1  UNL     1       5.714 -10.022  -4.789  1.00  0.00    -0.217 OA
HETATM    8  N3  UNL     1       6.091 -10.355  -5.971  1.00  0.00    -0.262 N
ATOM      9  H3  UNL     1       5.526 -10.879  -6.639  1.00  0.00     0.194 HD
HETATM   10  C6  UNL     1       7.369  -9.902  -6.206  1.00  0.00     0.053 A
HETATM   11  C13 UNL     1       7.725  -9.261  -5.051  1.00  0.00     0.072 A
HETATM   12  C14 UNL     1       8.933  -8.586  -4.656  1.00  0.00     0.073 A
ENDROOT
BRANCH  12  13
HETATM   13  N4  UNL     1       9.814  -8.619  -5.507  1.00  0.00    -0.363 N
HETATM   14  C15 UNL     1      11.120  -8.789  -5.791  1.00  0.00     0.100 C
ATOM     15  H4  UNL     1       9.354  -8.435  -6.399  1.00  0.00     0.165 HD
BRANCH  14  16
HETATM   16  C16 UNL     1      12.041  -7.621  -5.933  1.00  0.00    -0.021 A
HETATM   17  C17 UNL     1      13.297  -7.728  -5.314  1.00  0.00     0.016 A
HETATM   18  C18 UNL     1      14.191  -6.684  -5.403  1.00  0.00     0.043 A
HETATM   19  C19 UNL     1      13.853  -5.549  -6.093  1.00  0.00     0.116 A
HETATM   20  F1  UNL     1      14.757  -4.537  -6.161  1.00  0.00    -0.206 F
HETATM   21  C20 UNL     1      12.612  -5.452  -6.701  1.00  0.00     0.043 A
HETATM   22  C21 UNL     1      11.726  -6.495  -6.608  1.00  0.00     0.016 A
ENDBRANCH  14  16
ENDBRANCH  12  13
BRANCH   1  23
HETATM   23  C3  UNL     1      10.100  -7.338  -2.840  1.00  0.00     0.061 C
BRANCH  23  24
HETATM   24  C2  UNL     1      11.129  -8.095  -2.099  1.00  0.00     0.002 C
HETATM   25  C1  UNL     1      11.601  -7.379  -0.840  1.00  0.00     0.005 C
ENDBRANCH  23  24
ENDBRANCH   1  23
BRANCH  10  26
HETATM   26  C7  UNL     1       8.117 -10.090  -7.440  1.00  0.00     0.038 C
HETATM   27  C8  UNL     1       9.029 -11.303  -7.394  1.00  0.00     0.011 C
HETATM   28  C9  UNL     1       8.364 -12.618  -7.262  1.00  0.00     0.001 C
HETATM   29  C10 UNL     1       7.085 -12.734  -8.058  1.00  0.00     0.000 C
HETATM   30  C11 UNL     1       7.109 -11.675  -9.139  1.00  0.00     0.001 C
HETATM   31  C12 UNL     1       7.165 -10.296  -8.586  1.00  0.00     0.011 C
ENDBRANCH  10  26
TORSDOF 5
ENDMDL