MODEL 1
REMARK VINA RESULT: -7.175690449      0.000      0.000
REMARK  5 active torsions:
REMARK  status: ('A' for Active; 'I' for Inactive)
REMARK    1  A    between atoms: C2_2  and  C3_3
REMARK    2  A    between atoms: C3_3  and  C4_4
REMARK    3  A    between atoms: C4_4  and  N1_5
REMARK    4  A    between atoms: C7_9  and  C8_10
REMARK    5  A    between atoms: C9_11  and  C10_12
ROOT
HETATM    1  C10 UNL     1      11.125  -7.568  -2.550  1.00  0.00    -0.008 A
HETATM    2  C11 UNL     1       9.892  -7.519  -3.191  1.00  0.00     0.100 A
HETATM    3  N2  UNL     1       9.069  -6.706  -2.513  1.00  0.00    -0.363 N
ATOM      4  H2  UNL     1       8.106  -6.500  -2.776  1.00  0.00     0.165 HD
HETATM    5  C12 UNL     1       9.694  -6.204  -1.441  1.00  0.00     0.067 A
HETATM    6  C13 UNL     1       9.249  -5.343  -0.463  1.00  0.00     0.085 A
HETATM    7 CL1  UNL     1       7.606  -4.703  -0.505  1.00  0.00    -0.080 Cl
HETATM    8  C14 UNL     1      10.061  -4.954   0.573  1.00  0.00     0.070 A
HETATM    9  N3  UNL     1       9.609  -4.062   1.590  1.00  0.00    -0.101 NA
HETATM   10  C15 UNL     1      11.328  -5.470   0.574  1.00  0.00     0.036 A
HETATM   11  C16 UNL     1      11.804  -6.345  -0.405  1.00  0.00    -0.047 A
HETATM   12  C17 UNL     1      13.181  -6.874  -0.297  1.00  0.00     0.049 C
HETATM   13  C18 UNL     1      10.991  -6.732  -1.440  1.00  0.00     0.010 A
ENDROOT
BRANCH   1  14
HETATM   14  C9  UNL     1      12.294  -8.337  -2.903  1.00  0.00     0.013 C
HETATM   15  C8  UNL     1      13.160  -8.152  -3.844  1.00  0.00     0.018 C
BRANCH  15  16
HETATM   16  C7  UNL     1      13.277  -7.136  -4.864  1.00  0.00     0.230 C
HETATM   17  S1  UNL     1      12.128  -7.437  -6.272  1.00  0.00    -0.130 SA
HETATM   18  C6  UNL     1      13.063  -8.362  -7.521  1.00  0.00     0.093 C
HETATM   19  C5  UNL     1      14.452  -7.762  -7.599  1.00  0.00     0.131 C
HETATM   20  N1  UNL     1      14.531  -6.694  -6.655  1.00  0.00    -0.195 NA
HETATM   21  O1  UNL     1      14.613  -7.199  -5.405  1.00  0.00    -0.284 OA
BRANCH  20  22
HETATM   22  C4  UNL     1      15.561  -5.736  -6.934  1.00  0.00     0.120 C
BRANCH  22  23
HETATM   23  C3  UNL     1      15.096  -4.313  -6.807  1.00  0.00     0.016 C
BRANCH  23  24
HETATM   24  C2  UNL     1      14.159  -4.001  -7.956  1.00  0.00    -0.003 C
HETATM   25  C1  UNL     1      12.727  -3.877  -7.478  1.00  0.00     0.005 C
ENDBRANCH  23  24
ENDBRANCH  22  23
ENDBRANCH  20  22
ENDBRANCH  15  16
ENDBRANCH   1  14
TORSDOF 5
ENDMDL