MODEL 1
REMARK VINA RESULT: -7.747214687      0.000      0.000
REMARK  7 active torsions:
REMARK  status: ('A' for Active; 'I' for Inactive)
REMARK    1  A    between atoms: C2_2  and  N1_5
REMARK    2  A    between atoms: C6_7  and  C7_8
REMARK    3  A    between atoms: N2_9  and  N3_11
REMARK    4  A    between atoms: N3_11  and  C8_13
REMARK    5  A    between atoms: C8_13  and  C9_14
REMARK    6  A    between atoms: C9_14  and  C10_15
REMARK    7  A    between atoms: C10_15  and  O1_16
ROOT
HETATM    1  C7  UNL     1      11.451  -8.059  -1.038  1.00  0.00     0.120 C
HETATM    2  N2  UNL     1      11.630  -7.143  -0.202  1.00  0.00    -0.315 N
ATOM      3  H2  UNL     1      11.579  -7.409   0.781  1.00  0.00     0.185 HD
ENDROOT
BRANCH   1   4
HETATM    4  C6  UNL     1      11.480  -7.898  -2.474  1.00  0.00     0.009 A
HETATM    5  C5  UNL     1      12.456  -7.493  -3.348  1.00  0.00     0.106 A
HETATM    6  N1  UNL     1      11.994  -7.505  -4.636  1.00  0.00    -0.346 N
HETATM    7  C21 UNL     1      10.718  -7.918  -4.599  1.00  0.00     0.046 A
HETATM    8  C16 UNL     1      10.360  -8.170  -3.293  1.00  0.00     0.007 A
HETATM    9  C20 UNL     1       9.785  -8.108  -5.623  1.00  0.00     0.033 A
HETATM   10  C17 UNL     1       9.088  -8.610  -2.992  1.00  0.00     0.057 A
HETATM   11  C18 UNL     1       8.174  -8.797  -3.994  1.00  0.00     0.117 A
HETATM   12  F1  UNL     1       6.912  -9.235  -3.674  1.00  0.00    -0.206 F
HETATM   13  C19 UNL     1       8.545  -8.541  -5.290  1.00  0.00     0.044 A
BRANCH   6  14
HETATM   14  C2  UNL     1      12.715  -7.148  -5.826  1.00  0.00     0.026 C
HETATM   15  C1  UNL     1      14.118  -6.657  -5.443  1.00  0.00     0.038 C
HETATM   16  C3  UNL     1      12.059  -6.015  -6.582  1.00  0.00     0.038 C
HETATM   17  C4  UNL     1      12.892  -8.314  -6.757  1.00  0.00     0.038 C
ENDBRANCH   6  14
ENDBRANCH   1   4
BRANCH   2  18
HETATM   18  N3  UNL     1      11.886  -5.832  -0.461  1.00  0.00    -0.337 N
ATOM     19  H3  UNL     1      12.396  -5.541  -1.295  1.00  0.00     0.180 HD
BRANCH  18  20
HETATM   20  C8  UNL     1      11.391  -4.852   0.519  1.00  0.00     0.142 C
BRANCH  20  21
HETATM   21  C9  UNL     1      10.347  -4.017  -0.161  1.00  0.00     0.059 C
BRANCH  21  22
HETATM   22  C10 UNL     1       8.980  -4.456   0.243  1.00  0.00     0.059 C
HETATM   23  C11 UNL     1       8.178  -4.930  -0.984  1.00  0.00     0.038 C
HETATM   24  C12 UNL     1       6.872  -5.466  -0.460  1.00  0.00     0.003 C
HETATM   25  C13 UNL     1       6.109  -4.287   0.104  1.00  0.00     0.000 C
HETATM   26  C14 UNL     1       6.878  -3.774   1.293  1.00  0.00     0.003 C
HETATM   27  C15 UNL     1       8.245  -3.284   0.850  1.00  0.00     0.038 C
BRANCH  22  28
HETATM   28  O1  UNL     1       9.050  -5.538   1.089  1.00  0.00    -0.390 OA
ATOM     29  H1  UNL     1       8.186  -5.768   1.410  1.00  0.00     0.210 HD
ENDBRANCH  22  28
ENDBRANCH  21  22
ENDBRANCH  20  21
ENDBRANCH  18  20
ENDBRANCH   2  18
TORSDOF 7
ENDMDL