MODEL 1
REMARK VINA RESULT: -6.434617113      0.000      0.000
REMARK  7 active torsions:
REMARK  status: ('A' for Active; 'I' for Inactive)
REMARK    1  A    between atoms: O1_2  and  C2_3
REMARK    2  A    between atoms: C2_3  and  C3_4
REMARK    3  A    between atoms: C3_4  and  C4_5
REMARK    4  A    between atoms: C4_5  and  N1_6
REMARK    5  A    between atoms: C5_8  and  C6_9
REMARK    6  A    between atoms: C11_15  and  O2_16
REMARK    7  A    between atoms: C12_18  and  O3_19
ROOT
HETATM    1  N1  UNL     1      10.175  -7.691  -4.487  1.00  0.00    -0.398 N
ATOM      2  H1  UNL     1      10.898  -7.028  -4.766  1.00  0.00     0.158 HD
HETATM    3  C5  UNL     1      10.028  -7.928  -3.240  1.00  0.00     0.097 C
ENDROOT
BRANCH   3   4
HETATM    4  C6  UNL     1      10.842  -7.288  -2.232  1.00  0.00     0.022 A
HETATM    5  C7  UNL     1      10.331  -6.372  -1.341  1.00  0.00    -0.030 A
HETATM    6  C8  UNL     1       8.875  -6.013  -1.306  1.00  0.00     0.050 C
HETATM    7  C9  UNL     1      11.168  -5.765  -0.411  1.00  0.00     0.020 A
HETATM    8 BR1  UNL     1      10.427  -4.499   0.804  1.00  0.00    -0.050 Br
HETATM    9  C10 UNL     1      12.507  -6.077  -0.378  1.00  0.00     0.059 A
HETATM   10  C11 UNL     1      13.011  -6.973  -1.247  1.00  0.00     0.101 A
HETATM   11  C12 UNL     1      12.203  -7.588  -2.177  1.00  0.00     0.111 A
BRANCH  10  12
HETATM   12  O2  UNL     1      14.372  -7.284  -1.204  1.00  0.00    -0.358 OA
ATOM     13  H2  UNL     1      14.713  -7.973  -1.762  1.00  0.00     0.217 HD
ENDBRANCH  10  12
BRANCH  11  14
HETATM   14  O3  UNL     1      12.799  -8.502  -3.038  1.00  0.00    -0.357 OA
ATOM     15  H3  UNL     1      12.865  -9.428  -2.833  1.00  0.00     0.217 HD
ENDBRANCH  11  14
ENDBRANCH   3   4
BRANCH   1  16
HETATM   16  C4  UNL     1       9.388  -8.299  -5.518  1.00  0.00     0.122 C
BRANCH  16  17
HETATM   17  C3  UNL     1       8.035  -8.694  -5.110  1.00  0.00     0.057 C
BRANCH  17  18
HETATM   18  C2  UNL     1       7.623 -10.105  -5.157  1.00  0.00     0.062 C
HETATM   19  C13 UNL     1       8.522 -10.989  -5.968  1.00  0.00     0.038 C
HETATM   20  C14 UNL     1       8.017 -12.366  -6.118  1.00  0.00     0.003 C
HETATM   21  C15 UNL     1       7.194 -12.923  -5.039  1.00  0.00     0.000 C
HETATM   22  C16 UNL     1       6.768 -12.032  -3.949  1.00  0.00     0.003 C
HETATM   23  C17 UNL     1       7.590 -10.768  -3.766  1.00  0.00     0.038 C
BRANCH  18  24
HETATM   24  O1  UNL     1       6.298 -10.208  -5.582  1.00  0.00    -0.385 OA
HETATM   25  C1  UNL     1       5.569  -9.072  -5.634  1.00  0.00     0.202 C
ENDBRANCH  18  24
ENDBRANCH  17  18
ENDBRANCH  16  17
ENDBRANCH   1  16
TORSDOF 7
ENDMDL