MODEL 1
REMARK VINA RESULT: -6.936299869      0.000      0.000
REMARK  8 active torsions:
REMARK  status: ('A' for Active; 'I' for Inactive)
REMARK    1  A    between atoms: C2_2  and  C4_4
REMARK    2  A    between atoms: C6_6  and  O1_7
REMARK    3  A    between atoms: C8_11  and  O2_12
REMARK    4  A    between atoms: C11_16  and  C12_17
REMARK    5  A    between atoms: C12_17  and  C14_19
REMARK    6  A    between atoms: C14_19  and  C15_20
REMARK    7  A    between atoms: C15_20  and  C16_21
REMARK    8  A    between atoms: C16_21  and  C18_23
ROOT
HETATM    1  C4  UNL     1      13.701  -6.000  -5.315  1.00  0.00     0.032 C
HETATM    2  C5  UNL     1      15.132  -5.353  -5.381  1.00  0.00     0.045 C
HETATM    3  C6  UNL     1      16.046  -6.559  -5.523  1.00  0.00     0.162 C
HETATM    4  C7  UNL     1      15.353  -7.712  -4.901  1.00  0.00     0.166 C
HETATM    5  F1  UNL     1      16.129  -8.062  -3.772  1.00  0.00    -0.236 F
HETATM    6  C8  UNL     1      15.271  -8.967  -5.668  1.00  0.00     0.162 C
HETATM    7  C9  UNL     1      14.350  -9.952  -5.043  1.00  0.00     0.039 C
HETATM    8  C10 UNL     1      13.671  -9.464  -3.765  1.00  0.00     0.038 C
HETATM    9  C11 UNL     1      13.019  -8.155  -4.106  1.00  0.00    -0.062 C
HETATM   10  C21 UNL     1      13.997  -7.127  -4.448  1.00  0.00     0.029 C
HETATM   11  C22 UNL     1      14.444  -6.443  -3.105  1.00  0.00     0.024 C
ENDROOT
BRANCH   9  12
HETATM   12  C12 UNL     1      11.886  -7.885  -3.240  1.00  0.00    -0.064 C
HETATM   13  C13 UNL     1      11.724  -8.051  -1.946  1.00  0.00     0.019 C
BRANCH  12  14
HETATM   14  C14 UNL     1      10.663  -7.263  -3.885  1.00  0.00     0.039 C
BRANCH  14  15
HETATM   15  C15 UNL     1       9.699  -8.345  -4.197  1.00  0.00     0.015 C
BRANCH  15  16
HETATM   16  C16 UNL     1       9.274  -8.362  -5.653  1.00  0.00     0.034 C
HETATM   17  C17 UNL     1      10.099  -9.441  -6.335  1.00  0.00     0.016 C
BRANCH  16  18
HETATM   18  C18 UNL     1       7.846  -8.747  -5.808  1.00  0.00     0.036 A
HETATM   19  C19 UNL     1       7.207  -9.220  -6.927  1.00  0.00     0.168 A
HETATM   20  O3  UNL     1       5.947  -9.438  -6.642  1.00  0.00    -0.316 OA
HETATM   21  C20 UNL     1       5.731  -9.133  -5.401  1.00  0.00     0.233 A
HETATM   22  N1  UNL     1       6.881  -8.700  -4.847  1.00  0.00    -0.348 N
ATOM     23  H1  UNL     1       7.006  -8.393  -3.883  1.00  0.00     0.167 HD
ENDBRANCH  16  18
ENDBRANCH  15  16
ENDBRANCH  14  15
ENDBRANCH  12  14
ENDBRANCH   9  12
BRANCH   1  24
HETATM   24  C2  UNL     1      13.113  -5.979  -6.603  1.00  0.00    -0.088 C
HETATM   25  C1  UNL     1      12.796  -6.904  -7.440  1.00  0.00     0.014 C
HETATM   26  C3  UNL     1      12.757  -4.572  -7.109  1.00  0.00     0.043 C
ENDBRANCH   1  24
BRANCH   6  27
HETATM   27  O2  UNL     1      16.552  -9.571  -5.621  1.00  0.00    -0.392 OA
ATOM     28  H2  UNL     1      16.577 -10.117  -4.844  1.00  0.00     0.210 HD
ENDBRANCH   6  27
BRANCH   3  29
HETATM   29  O1  UNL     1      16.476  -6.753  -6.824  1.00  0.00    -0.392 OA
ATOM     30  H1  UNL     1      17.286  -6.294  -7.015  1.00  0.00     0.210 HD
ENDBRANCH   3  29
TORSDOF 8
ENDMDL