MODEL 4
REMARK VINA RESULT: -6.179127731      4.688      5.776
REMARK  5 active torsions:
REMARK  status: ('A' for Active; 'I' for Inactive)
REMARK    1  A    between atoms: O1_2  and  C2_3
REMARK    2  A    between atoms: C5_6  and  C6_7
REMARK    3  A    between atoms: C6_7  and  C7_8
REMARK    4  A    between atoms: C7_8  and  C8_9
REMARK    5  A    between atoms: C8_9  and  C9_10
ROOT
HETATM    1  C7  UNL     1      11.625  -7.810  -1.573  1.00  0.00     0.011 C
ENDROOT
BRANCH   1   2
HETATM    2  C6  UNL     1      10.409  -7.178  -2.088  1.00  0.00     0.039 C
BRANCH   2   3
HETATM    3  C5  UNL     1       9.793  -7.791  -3.280  1.00  0.00    -0.057 A
HETATM    4  C4  UNL     1      10.253  -7.615  -4.534  1.00  0.00     0.010 A
HETATM    5  C3  UNL     1       9.643  -8.201  -5.659  1.00  0.00     0.039 A
HETATM    6  C2  UNL     1       8.530  -8.992  -5.511  1.00  0.00     0.085 A
HETATM    7  C13 UNL     1       8.052  -9.178  -4.236  1.00  0.00     0.044 A
HETATM    8  C12 UNL     1       8.652  -8.604  -3.144  1.00  0.00     0.029 A
HETATM    9 BR1  UNL     1       6.513 -10.266  -3.995  1.00  0.00    -0.048 Br
BRANCH   6  10
HETATM   10  O1  UNL     1       7.921  -9.572  -6.606  1.00  0.00    -0.355 OA
HETATM   11  C1  UNL     1       8.509 -10.629  -7.338  1.00  0.00     0.210 C
ENDBRANCH   6  10
ENDBRANCH   2   3
ENDBRANCH   1   2
BRANCH   1  12
HETATM   12  C8  UNL     1      12.847  -7.105  -1.236  1.00  0.00     0.058 C
BRANCH  12  13
HETATM   13  C9  UNL     1      13.979  -7.033  -2.218  1.00  0.00     0.018 C
HETATM   14  C10 UNL     1      13.808  -7.545  -3.562  1.00  0.00     0.082 C
HETATM   15  S1  UNL     1      14.735  -9.065  -3.973  1.00  0.00    -0.059 SA
HETATM   16  S2  UNL     1      16.762  -8.525  -3.458  1.00  0.00    -0.017 SA
HETATM   17  C11 UNL     1      16.493  -7.527  -1.993  1.00  0.00     0.149 C
HETATM   18  N1  UNL     1      17.519  -6.978  -1.429  1.00  0.00    -0.379 N
HETATM   19  N2  UNL     1      15.183  -7.387  -1.506  1.00  0.00    -0.340 N
ATOM     20  H12 UNL     1      18.470  -7.080  -1.781  1.00  0.00     0.158 HD
ATOM     21  H11 UNL     1      17.366  -6.411  -0.595  1.00  0.00     0.158 HD
ATOM     22  H2  UNL     1      15.066  -7.561  -0.508  1.00  0.00     0.168 HD
ENDBRANCH  12  13
ENDBRANCH   1  12
TORSDOF 5
ENDMDL