MODEL 4
REMARK VINA RESULT: -6.607535096      3.239      4.919
REMARK  8 active torsions:
REMARK  status: ('A' for Active; 'I' for Inactive)
REMARK    1  A    between atoms: C2_2  and  C4_4
REMARK    2  A    between atoms: C4_4  and  N1_5
REMARK    3  A    between atoms: C5_6  and  O1_7
REMARK    4  A    between atoms: C6_9  and  O2_10
REMARK    5  A    between atoms: C7_12  and  C8_13
REMARK    6  A    between atoms: C8_13  and  N2_14
REMARK    7  A    between atoms: C11_17  and  C12_18
REMARK    8  A    between atoms: C15_21  and  C16_22
ROOT
HETATM    1  N1  UNL     1      13.580  -7.027  -4.023  1.00  0.00    -0.324 N
HETATM    2  C5  UNL     1      14.597  -6.120  -4.145  1.00  0.00     0.177 A
HETATM    3  C6  UNL     1      14.535  -5.546  -5.383  1.00  0.00     0.127 A
HETATM    4  C7  UNL     1      13.463  -6.118  -6.031  1.00  0.00     0.035 A
HETATM    5  C11 UNL     1      12.861  -7.045  -5.162  1.00  0.00     0.057 A
ENDROOT
BRANCH   5   6
HETATM    6  C12 UNL     1      11.719  -7.886  -5.502  1.00  0.00    -0.006 A
HETATM    7  C13 UNL     1      11.879  -8.915  -6.453  1.00  0.00     0.014 A
HETATM    8  C14 UNL     1      10.873  -9.716  -6.895  1.00  0.00     0.012 A
HETATM    9  C15 UNL     1       9.591  -9.535  -6.399  1.00  0.00    -0.012 A
HETATM   10  C20 UNL     1       9.380  -8.554  -5.481  1.00  0.00     0.124 A
HETATM   11  F1  UNL     1       8.141  -8.338  -4.997  1.00  0.00    -0.205 F
HETATM   12  C21 UNL     1      10.441  -7.747  -5.045  1.00  0.00     0.056 A
BRANCH   9  13
HETATM   13  C16 UNL     1       8.505 -10.454  -6.835  1.00  0.00    -0.021 C
HETATM   14  C17 UNL     1       8.049 -11.397  -5.752  1.00  0.00     0.019 C
HETATM   15  C18 UNL     1       8.999 -11.323  -7.993  1.00  0.00     0.019 C
HETATM   16  C19 UNL     1       7.333  -9.675  -7.378  1.00  0.00     0.019 C
ENDBRANCH   9  13
ENDBRANCH   5   6
BRANCH   1  17
HETATM   17  C4  UNL     1      13.447  -7.815  -2.852  1.00  0.00     0.135 C
BRANCH  17  18
HETATM   18  C2  UNL     1      12.423  -7.232  -1.877  1.00  0.00    -0.004 C
HETATM   19  C1  UNL     1      11.314  -8.168  -1.560  1.00  0.00     0.011 C
HETATM   20  C3  UNL     1      13.125  -6.886  -0.606  1.00  0.00     0.011 C
ENDBRANCH  17  18
ENDBRANCH   1  17
BRANCH   4  21
HETATM   21  C8  UNL     1      13.012  -5.644  -7.358  1.00  0.00     0.315 C
BRANCH  21  22
HETATM   22  N2  UNL     1      13.965  -5.897  -8.391  1.00  0.00     0.084 N
HETATM   23  C9  UNL     1      14.021  -7.198  -8.923  1.00  0.00     0.309 C
HETATM   24  C10 UNL     1      13.951  -4.901  -9.425  1.00  0.00     0.309 C
ENDBRANCH  21  22
ENDBRANCH   4  21
BRANCH   2  25
HETATM   25  O1  UNL     1      15.560  -5.791  -3.208  1.00  0.00    -0.344 OA
ATOM     26  H1  UNL     1      16.467  -5.552  -3.362  1.00  0.00     0.219 HD
ENDBRANCH   2  25
BRANCH   3  27
HETATM   27  O2  UNL     1      15.421  -4.557  -5.878  1.00  0.00    -0.356 OA
ATOM     28  H2  UNL     1      15.460  -3.654  -5.586  1.00  0.00     0.218 HD
ENDBRANCH   3  27
TORSDOF 8
ENDMDL