MODEL 1
REMARK VINA RESULT: -8.144757884      0.000      0.000
REMARK  6 active torsions:
REMARK  status: ('A' for Active; 'I' for Inactive)
REMARK    1  A    between atoms: N1_1  and  C1_4
REMARK    2  A    between atoms: N2_13  and  C8_14
REMARK    3  A    between atoms: C8_14  and  C9_15
REMARK    4  A    between atoms: C9_15  and  C10_16
REMARK    5  A    between atoms: C13_19  and  C14_20
REMARK    6  A    between atoms: C14_20  and  C15_21
ROOT
HETATM    1  C10 UNL     1      13.470  -6.975  -2.064  1.00  0.00    -0.013 C
HETATM    2  C11 UNL     1      12.458  -7.830  -2.770  1.00  0.00     0.005 C
HETATM    3  C12 UNL     1      11.044  -7.437  -2.530  1.00  0.00     0.005 C
HETATM    4  C13 UNL     1      10.909  -6.385  -1.420  1.00  0.00    -0.014 C
HETATM    5  C20 UNL     1      11.722  -6.925  -0.263  1.00  0.00     0.005 C
HETATM    6  C21 UNL     1      13.184  -6.799  -0.598  1.00  0.00     0.005 C
ENDROOT
BRANCH   1   7
HETATM    7  C9  UNL     1      14.839  -7.573  -2.198  1.00  0.00     0.025 C
BRANCH   7   8
HETATM    8  C8  UNL     1      15.163  -7.985  -3.604  1.00  0.00     0.132 C
BRANCH   8   9
HETATM    9  N2  UNL     1      15.769  -6.810  -4.300  1.00  0.00    -0.326 N
HETATM   10  C1  UNL     1      17.031  -6.495  -3.999  1.00  0.00     0.145 A
HETATM   11  S1  UNL     1      17.346  -5.140  -4.977  1.00  0.00    -0.052 SA
HETATM   12  C2  UNL     1      15.816  -5.030  -5.748  1.00  0.00     0.035 A
HETATM   13  C3  UNL     1      15.254  -4.170  -6.707  1.00  0.00     0.024 A
HETATM   14  C7  UNL     1      15.142  -6.078  -5.184  1.00  0.00     0.056 A
HETATM   15  C4  UNL     1      13.958  -4.343  -7.141  1.00  0.00     0.044 A
HETATM   16  C5  UNL     1      13.279  -5.391  -6.579  1.00  0.00     0.118 A
HETATM   17  F1  UNL     1      11.998  -5.584  -6.991  1.00  0.00    -0.206 F
HETATM   18  C6  UNL     1      13.816  -6.224  -5.653  1.00  0.00     0.073 A
BRANCH  10  19
HETATM   19  N1  UNL     1      17.848  -7.066  -3.165  1.00  0.00    -0.379 N
ATOM     20  H12 UNL     1      18.377  -6.657  -2.394  1.00  0.00     0.158 HD
ATOM     21  H11 UNL     1      18.108  -8.052  -3.136  1.00  0.00     0.158 HD
ENDBRANCH  10  19
ENDBRANCH   8   9
ENDBRANCH   7   8
ENDBRANCH   1   7
BRANCH   4  22
HETATM   22  C14 UNL     1       9.457  -6.297  -1.092  1.00  0.00     0.011 C
BRANCH  22  23
HETATM   23  C15 UNL     1       8.902  -4.921  -0.964  1.00  0.00     0.011 C
HETATM   24  C16 UNL     1       7.489  -4.841  -0.522  1.00  0.00     0.008 C
HETATM   25  C17 UNL     1       7.310  -4.714   0.967  1.00  0.00     0.028 C
HETATM   26  C18 UNL     1       8.298  -3.753   1.585  1.00  0.00     0.232 C
HETATM   27  N3  UNL     1       9.633  -4.298   1.296  1.00  0.00    -0.075 N
HETATM   28  C19 UNL     1       9.852  -4.108  -0.113  1.00  0.00     0.237 C
ATOM     29  H32 UNL     1      10.369  -3.897   1.877  1.00  0.00     0.277 HD
ATOM     30  H31 UNL     1       9.750  -5.266   1.597  1.00  0.00     0.277 HD
ENDBRANCH  22  23
ENDBRANCH   4  22
TORSDOF 6
ENDMDL