MODEL 1
REMARK VINA RESULT: -7.499826821      0.000      0.000
REMARK  5 active torsions:
REMARK  status: ('A' for Active; 'I' for Inactive)
REMARK    1  A    between atoms: C4_6  and  N2_7
REMARK    2  A    between atoms: N2_7  and  C5_9
REMARK    3  A    between atoms: C5_9  and  C6_10
REMARK    4  A    between atoms: C11_16  and  N3_17
REMARK    5  A    between atoms: N3_17  and  C12_19
ROOT
HETATM    1  C12 UNL     1      -0.952   1.361  82.594  1.00  0.00     0.071 A
HETATM    2  C13 UNL     1      -0.887  -0.015  82.688  1.00  0.00     0.118 A
HETATM    3  N4  UNL     1      -1.271  -0.523  81.519  1.00  0.00    -0.371 N
ATOM      4  H4  UNL     1      -1.322  -1.518  81.302  1.00  0.00     0.164 HD
HETATM    5  C14 UNL     1      -1.582   0.471  80.667  1.00  0.00     0.112 A
HETATM    6  C15 UNL     1      -1.392   1.657  81.313  1.00  0.00     0.088 A
HETATM    7  C16 UNL     1      -1.602   2.979  80.781  1.00  0.00     0.103 C
HETATM    8  N5  UNL     1      -1.778   4.053  80.361  1.00  0.00    -0.191 NA
ENDROOT
BRANCH   1   9
HETATM    9  N3  UNL     1      -0.627   2.278  83.616  1.00  0.00    -0.337 N
ATOM     10  H3  UNL     1       0.319   2.652  83.691  1.00  0.00     0.167 HD
BRANCH   9  11
HETATM   11  C11 UNL     1      -1.550   2.641  84.463  1.00  0.00     0.150 A
HETATM   12  C4  UNL     1      -1.925   3.987  84.436  1.00  0.00     0.146 A
HETATM   13  N1  UNL     1      -2.868   4.374  85.297  1.00  0.00    -0.348 N
HETATM   14  C3  UNL     1      -3.457   3.510  86.178  1.00  0.00     0.114 A
ATOM     15  H1  UNL     1      -3.161   5.352  85.298  1.00  0.00     0.167 HD
HETATM   16  C2  UNL     1      -3.070   2.186  86.186  1.00  0.00     0.022 A
HETATM   17  C1  UNL     1      -3.726   1.266  87.153  1.00  0.00     0.069 C
HETATM   18  N6  UNL     1      -2.118   1.778  85.321  1.00  0.00    -0.342 N
ATOM     19  H6  UNL     1      -1.825   0.801  85.320  1.00  0.00     0.167 HD
BRANCH  12  20
HETATM   20  N2  UNL     1      -1.375   4.802  83.611  1.00  0.00    -0.373 N
ATOM     21  H2  UNL     1      -1.317   4.508  82.636  1.00  0.00     0.161 HD
BRANCH  20  22
HETATM   22  C5  UNL     1      -0.831   6.093  83.938  1.00  0.00     0.126 C
BRANCH  22  23
HETATM   23  C6  UNL     1       0.513   6.355  83.304  1.00  0.00     0.007 C
HETATM   24  C7  UNL     1       0.670   5.884  81.891  1.00  0.00     0.031 C
HETATM   25  C8  UNL     1       1.972   5.229  82.288  1.00  0.00     0.034 C
HETATM   26  C9  UNL     1       3.190   6.103  82.144  1.00  0.00     0.032 C
HETATM   27 CL1  UNL     1       2.135   3.602  81.604  1.00  0.00    -0.120 Cl
HETATM   28  C10 UNL     1       1.473   5.232  83.719  1.00  0.00     0.031 C
ENDBRANCH  22  23
ENDBRANCH  20  22
ENDBRANCH  12  20
ENDBRANCH   9  11
ENDBRANCH   1   9
TORSDOF 5
ENDMDL