MODEL 4
REMARK VINA RESULT: -7.223616536      2.180      3.384
REMARK  4 active torsions:
REMARK  status: ('A' for Active; 'I' for Inactive)
REMARK    1  A    between atoms: C2_2  and  C3_3
REMARK    2  A    between atoms: C3_3  and  C4_4
REMARK    3  A    between atoms: C4_4  and  N1_5
REMARK    4  A    between atoms: N1_5  and  C5_7
ROOT
HETATM    1  C5  UNL     1      -0.527   4.251  81.598  1.00  0.00     0.130 A
HETATM    2  N2  UNL     1      -1.051   5.433  81.976  1.00  0.00    -0.283 N
ATOM      3  H2  UNL     1      -0.887   6.259  81.398  1.00  0.00     0.188 HD
HETATM    4  N3  UNL     1      -1.776   5.549  83.081  1.00  0.00    -0.283 N
ATOM      5  H3  UNL     1      -2.150   6.466  83.323  1.00  0.00     0.188 HD
HETATM    6  C6  UNL     1      -2.040   4.517  83.894  1.00  0.00     0.132 A
HETATM    7  N4  UNL     1      -2.768   4.609  85.016  1.00  0.00    -0.344 N
ATOM      8  H4  UNL     1      -3.154   5.516  85.280  1.00  0.00     0.167 HD
HETATM    9  C7  UNL     1      -3.008   3.552  85.802  1.00  0.00     0.018 A
HETATM   10  C8  UNL     1      -2.512   2.296  85.498  1.00  0.00    -0.019 A
HETATM   11  C9  UNL     1      -1.759   2.191  84.344  1.00  0.00     0.055 A
HETATM   12  C10 UNL     1      -1.215   0.988  83.944  1.00  0.00     0.258 A
HETATM   13  O1  UNL     1      -1.399  -0.038  84.629  1.00  0.00    -0.267 OA
HETATM   14  N5  UNL     1      -0.480   0.862  82.826  1.00  0.00    -0.312 N
ATOM     15  H5  UNL     1      -0.103  -0.053  82.581  1.00  0.00     0.170 HD
HETATM   16  C11 UNL     1      -0.225   1.912  82.019  1.00  0.00     0.121 A
HETATM   17 CL1  UNL     1       0.737   1.733  80.561  1.00  0.00    -0.063 Cl
HETATM   18  C12 UNL     1      -0.752   3.138  82.383  1.00  0.00     0.063 A
HETATM   19  C13 UNL     1      -1.517   3.283  83.541  1.00  0.00     0.043 A
HETATM   20  C14 UNL     1      -2.917   1.310  86.520  1.00  0.00     0.042 C
HETATM   21  C15 UNL     1      -4.003   2.019  87.319  1.00  0.00     0.011 C
HETATM   22  C16 UNL     1      -3.794   3.495  87.071  1.00  0.00     0.058 C
ENDROOT
BRANCH   1  23
HETATM   23  N1  UNL     1       0.171   4.111  80.545  1.00  0.00    -0.374 N
ATOM     24  H1  UNL     1       0.768   3.287  80.492  1.00  0.00     0.161 HD
BRANCH  23  25
HETATM   25  C4  UNL     1       0.196   5.003  79.427  1.00  0.00     0.121 C
BRANCH  25  26
HETATM   26  C3  UNL     1       1.465   4.973  78.647  1.00  0.00     0.019 C
BRANCH  26  27
HETATM   27  C2  UNL     1       1.253   5.302  77.178  1.00  0.00    -0.003 C
HETATM   28  C1  UNL     1      -0.206   5.601  76.904  1.00  0.00     0.005 C
ENDBRANCH  26  27
ENDBRANCH  25  26
ENDBRANCH  23  25
ENDBRANCH   1  23
TORSDOF 4
ENDMDL