MODEL 2
REMARK VINA RESULT: -7.489155290      3.050      7.658
REMARK  3 active torsions:
REMARK  status: ('A' for Active; 'I' for Inactive)
REMARK    1  A    between atoms: C6_7  and  C7_8
REMARK       I    between atoms: C7_8  and  N1_10
REMARK    2  A    between atoms: N1_10  and  C8_12
REMARK    3  A    between atoms: C8_12  and  C9_13
ROOT
HETATM    1  C8  UNL     1      -1.415   6.385  82.956  1.00  0.00     0.068 C
ENDROOT
BRANCH   1   2
HETATM    2  N1  UNL     1      -0.907   5.099  82.746  1.00  0.00    -0.339 N
HETATM    3  C7  UNL     1      -1.465   3.863  83.002  1.00  0.00     0.243 C
HETATM    4  O1  UNL     1      -2.575   3.680  83.510  1.00  0.00    -0.271 OA
ATOM      5  H1  UNL     1       0.027   5.069  82.337  1.00  0.00     0.167 HD
BRANCH   3   6
HETATM    6  C6  UNL     1      -0.702   2.605  82.653  1.00  0.00     0.172 C
HETATM    7  C5  UNL     1      -1.622   1.593  82.015  1.00  0.00     0.071 C
HETATM    8  C4  UNL     1      -0.815   0.338  81.757  1.00  0.00     0.174 C
HETATM    9  C3  UNL     1       0.290   0.698  80.814  1.00  0.00     0.061 C
HETATM   10  F1  UNL     1      -1.593  -0.634  81.161  1.00  0.00    -0.249 F
HETATM   11  C2  UNL     1       1.169   1.802  81.359  1.00  0.00     0.076 C
HETATM   12  C1  UNL     1       2.184   2.261  80.334  1.00  0.00     0.032 C
HETATM   13  N3  UNL     1       0.458   2.890  81.900  1.00  0.00    -0.405 N
ATOM     14  H3  UNL     1       0.770   3.850  81.753  1.00  0.00     0.154 HD
ENDBRANCH   3   6
ENDBRANCH   1   2
BRANCH   1  15
HETATM   15  C9  UNL     1      -2.248   7.093  81.976  1.00  0.00     0.024 C
HETATM   16  C10 UNL     1      -3.696   7.139  82.203  1.00  0.00     0.010 C
HETATM   17  C11 UNL     1      -4.358   8.223  81.332  1.00  0.00     0.010 C
HETATM   18  C12 UNL     1      -3.797   8.225  79.943  1.00  0.00    -0.037 C
HETATM   19  C13 UNL     1      -3.112   9.538  79.642  1.00  0.00     0.037 C
HETATM   20  C16 UNL     1      -5.016   8.198  78.999  1.00  0.00     0.037 C
HETATM   21  C17 UNL     1      -2.981   7.029  79.578  1.00  0.00     0.010 C
HETATM   22  C14 UNL     1      -2.821   9.709  78.175  1.00  0.00     0.233 C
HETATM   23  N2  UNL     1      -4.002   9.655  77.350  1.00  0.00    -0.075 N
HETATM   24  C15 UNL     1      -4.602   8.334  77.566  1.00  0.00     0.233 C
ATOM     25  H22 UNL     1      -4.649  10.425  77.520  1.00  0.00     0.277 HD
ATOM     26  H21 UNL     1      -3.818   9.858  76.367  1.00  0.00     0.277 HD
HETATM   27  C18 UNL     1      -1.955   6.591  80.567  1.00  0.00     0.010 C
ENDBRANCH   1  15
TORSDOF 3
ENDMDL