MODEL 5
REMARK VINA RESULT: -6.280401312      2.866      4.556
REMARK  5 active torsions:
REMARK  status: ('A' for Active; 'I' for Inactive)
REMARK    1  A    between atoms: C2_2  and  C3_3
REMARK    2  A    between atoms: C3_3  and  N1_4
REMARK    3  A    between atoms: N1_4  and  C4_6
REMARK    4  A    between atoms: C5_9  and  N3_10
REMARK    5  A    between atoms: C6_15  and  C7_16
ROOT
HETATM    1  C4  UNL     1      -1.190   1.764  83.834  1.00  0.00     0.140 A
HETATM    2  N2  UNL     1      -1.165   0.665  83.008  1.00  0.00    -0.175 N
ATOM      3  H2  UNL     1      -1.196  -0.274  83.402  1.00  0.00     0.186 HD
HETATM    4  C5  UNL     1      -1.099   0.839  81.686  1.00  0.00     0.678 A
HETATM    5  N4  UNL     1      -1.060   2.058  81.144  1.00  0.00    -0.188 N
ATOM      6  H4  UNL     1      -1.009   2.137  80.128  1.00  0.00     0.184 HD
HETATM    7  C6  UNL     1      -1.084   3.217  81.893  1.00  0.00     0.104 A
HETATM    8  C13 UNL     1      -1.145   3.042  83.228  1.00  0.00     0.085 A
HETATM    9 BR1  UNL     1      -1.000   4.566  84.395  1.00  0.00    -0.044 Br
ENDROOT
BRANCH   7  10
HETATM   10  C7  UNL     1      -0.962   4.467  81.157  1.00  0.00     0.110 A
HETATM   11  O1  UNL     1      -2.080   5.044  80.645  1.00  0.00    -0.313 OA
HETATM   12  C8  UNL     1      -1.867   6.118  80.009  1.00  0.00     0.050 A
HETATM   13  C9  UNL     1      -2.871   7.017  79.313  1.00  0.00     0.076 C
HETATM   14  C10 UNL     1      -0.520   6.355  80.050  1.00  0.00     0.042 A
HETATM   15  C11 UNL     1       0.039   5.287  80.792  1.00  0.00    -0.023 A
HETATM   16  C12 UNL     1       1.477   5.234  81.150  1.00  0.00     0.051 C
ENDBRANCH   7  10
BRANCH   4  17
HETATM   17  N3  UNL     1      -1.074  -0.233  80.929  1.00  0.00    -0.234 N
ATOM     18  H32 UNL     1      -1.924  -0.771  80.758  1.00  0.00     0.174 HD
ATOM     19  H31 UNL     1      -0.180  -0.507  80.522  1.00  0.00     0.174 HD
ENDBRANCH   4  17
BRANCH   1  20
HETATM   20  N1  UNL     1      -1.252   1.588  85.026  1.00  0.00    -0.351 N
ATOM     21  H1  UNL     1      -0.383   2.017  85.341  1.00  0.00     0.166 HD
BRANCH  20  22
HETATM   22  C3  UNL     1      -1.782   1.164  86.195  1.00  0.00     0.089 C
BRANCH  22  23
HETATM   23  C2  UNL     1      -2.960   2.026  86.584  1.00  0.00     0.007 C
HETATM   24  C1  UNL     1      -4.112   1.499  86.972  1.00  0.00     0.012 C
ENDBRANCH  22  23
ENDBRANCH  20  22
ENDBRANCH   1  20
TORSDOF 5
ENDMDL