MODEL 2
REMARK VINA RESULT: -7.509312074      1.413      2.081
REMARK  5 active torsions:
REMARK  status: ('A' for Active; 'I' for Inactive)
REMARK    1  A    between atoms: C6_6  and  C7_7
REMARK    2  A    between atoms: C7_7  and  N1_8
REMARK    3  A    between atoms: N1_8  and  C8_10
REMARK    4  A    between atoms: C10_12  and  N2_13
REMARK    5  A    between atoms: C16_21  and  N4_22
ROOT
HETATM    1  C1  UNL     1      -5.612   7.985  78.274  1.00  0.00     0.012 C
HETATM    2  C2  UNL     1      -4.707   8.269  79.037  1.00  0.00    -0.113 C
HETATM    3  C3  UNL     1      -3.610   8.596  79.966  1.00  0.00     0.064 C
HETATM    4  C4  UNL     1      -3.909   8.173  81.367  1.00  0.00     0.017 C
HETATM    5  C5  UNL     1      -2.912   7.170  81.918  1.00  0.00     0.007 C
HETATM    6  C6  UNL     1      -1.502   7.589  81.691  1.00  0.00     0.003 C
HETATM    7  C17 UNL     1      -1.192   8.085  80.318  1.00  0.00     0.007 C
HETATM    8  C18 UNL     1      -2.363   8.002  79.382  1.00  0.00     0.017 C
ENDROOT
BRANCH   6   9
HETATM    9  C7  UNL     1      -0.591   6.379  81.951  1.00  0.00     0.126 C
BRANCH   9  10
HETATM   10  N1  UNL     1      -1.084   5.170  81.420  1.00  0.00    -0.375 N
ATOM     11  H1  UNL     1      -1.589   5.223  80.535  1.00  0.00     0.161 HD
BRANCH  10  12
HETATM   12  C8  UNL     1      -0.955   4.021  81.945  1.00  0.00     0.120 A
HETATM   13  C9  UNL     1      -1.452   3.924  83.259  1.00  0.00     0.097 A
HETATM   14  C10 UNL     1      -1.358   2.718  83.906  1.00  0.00     0.122 A
HETATM   15  N3  UNL     1      -0.801   1.687  83.265  1.00  0.00    -0.177 N
HETATM   16  C16 UNL     1      -0.329   1.796  82.004  1.00  0.00     0.679 A
ATOM     17  H3  UNL     1      -0.729   0.788  83.743  1.00  0.00     0.185 HD
HETATM   18  N5  UNL     1      -0.404   2.965  81.335  1.00  0.00    -0.177 N
ATOM     19  H5  UNL     1      -0.048   3.043  80.382  1.00  0.00     0.185 HD
BRANCH  14  20
HETATM   20  N2  UNL     1      -1.833   2.577  85.236  1.00  0.00    -0.367 N
HETATM   21  C11 UNL     1      -1.391   1.530  86.122  1.00  0.00     0.124 C
HETATM   22  C12 UNL     1      -2.450   0.884  86.937  1.00  0.00     0.020 C
HETATM   23  C13 UNL     1      -3.522   1.818  87.408  1.00  0.00     0.003 C
HETATM   24  C14 UNL     1      -3.921   2.833  86.380  1.00  0.00     0.020 C
HETATM   25  C15 UNL     1      -2.790   3.538  85.720  1.00  0.00     0.124 C
ENDBRANCH  14  20
BRANCH  16  26
HETATM   26  N4  UNL     1       0.210   0.776  81.400  1.00  0.00    -0.234 N
ATOM     27  H42 UNL     1      -0.261  -0.127  81.467  1.00  0.00     0.174 HD
ATOM     28  H41 UNL     1       1.078   0.876  80.875  1.00  0.00     0.174 HD
ENDBRANCH  16  26
ENDBRANCH  10  12
ENDBRANCH   9  10
ENDBRANCH   6   9
TORSDOF 5
ENDMDL