MODEL 4
REMARK VINA RESULT: -7.282964866      2.114      5.417
REMARK  4 active torsions:
REMARK  status: ('A' for Active; 'I' for Inactive)
REMARK    1  A    between atoms: C2_2  and  N1_5
REMARK    2  A    between atoms: C6_11  and  C7_12
REMARK    3  A    between atoms: C8_15  and  N3_16
REMARK    4  A    between atoms: N3_16  and  C9_18
ROOT
HETATM    1  N1  UNL     1       0.584   0.832  81.173  1.00  0.00    -0.204 N
ATOM      2  H1  UNL     1       1.356   0.547  80.571  1.00  0.00     0.179 HD
HETATM    3  C4  UNL     1       0.687   2.003  81.648  1.00  0.00     0.681 A
HETATM    4  N2  UNL     1       1.812   2.686  81.278  1.00  0.00    -0.201 N
ATOM      5  H2  UNL     1       2.484   2.233  80.659  1.00  0.00     0.183 HD
HETATM    6  C5  UNL     1       2.059   3.933  81.704  1.00  0.00     0.128 A
HETATM    7  C6  UNL     1       1.143   4.532  82.541  1.00  0.00     0.100 A
HETATM    8  C8  UNL     1      -0.021   3.861  82.942  1.00  0.00     0.135 A
HETATM    9  N4  UNL     1      -0.196   2.617  82.472  1.00  0.00    -0.176 N
ATOM     10  H4  UNL     1      -1.035   2.108  82.748  1.00  0.00     0.186 HD
ENDROOT
BRANCH   8  11
HETATM   11  N3  UNL     1      -0.802   4.447  83.694  1.00  0.00    -0.370 N
ATOM     12  H3  UNL     1      -1.032   5.372  83.330  1.00  0.00     0.161 HD
BRANCH  11  13
HETATM   13  C9  UNL     1      -1.464   4.208  84.903  1.00  0.00     0.083 C
HETATM   14  C10 UNL     1      -2.969   3.998  84.796  1.00  0.00     0.025 C
HETATM   15  C11 UNL     1      -3.579   3.766  86.163  1.00  0.00     0.002 C
HETATM   16  C12 UNL     1      -2.948   2.630  86.895  1.00  0.00     0.000 C
HETATM   17  C13 UNL     1      -1.780   2.045  86.165  1.00  0.00     0.002 C
HETATM   18  C14 UNL     1      -0.798   3.079  85.652  1.00  0.00     0.025 C
ENDBRANCH  11  13
ENDBRANCH   8  11
BRANCH   7  19
HETATM   19  C7  UNL     1       1.379   5.864  83.015  1.00  0.00     0.214 C
HETATM   20  O1  UNL     1       1.530   6.096  84.229  1.00  0.00    -0.644 OA
HETATM   21  O2  UNL     1       1.447   6.940  82.130  1.00  0.00    -0.644 OA
ENDBRANCH   7  19
BRANCH   1  22
HETATM   22  C2  UNL     1      -0.428  -0.145  81.340  1.00  0.00     0.117 C
HETATM   23  C1  UNL     1      -1.493   0.037  80.285  1.00  0.00     0.056 C
HETATM   24  C3  UNL     1       0.120  -1.564  81.139  1.00  0.00     0.056 C
HETATM   25 CL1  UNL     1      -1.081  -0.040  82.992  1.00  0.00    -0.096 Cl
ENDBRANCH   1  22
TORSDOF 4
ENDMDL