MODEL 5
REMARK VINA RESULT: -6.552483513      4.088      7.291
REMARK  5 active torsions:
REMARK  status: ('A' for Active; 'I' for Inactive)
REMARK    1  A    between atoms: N1_2  and  C2_3
REMARK    2  A    between atoms: N1_2  and  C7_8
REMARK    3  A    between atoms: C10_11  and  N2_12
REMARK    4  A    between atoms: N2_12  and  C11_14
REMARK    5  A    between atoms: C14_20  and  N4_21
ROOT
HETATM    1  N2  UNL     1       2.313   3.996  82.245  1.00  0.00    -0.371 N
ATOM      2  H2  UNL     1       2.745   3.450  82.991  1.00  0.00     0.161 HD
ENDROOT
BRANCH   1   3
HETATM    3  C10 UNL     1       0.972   4.417  82.507  1.00  0.00     0.083 C
HETATM    4  C9  UNL     1      -0.058   3.391  82.135  1.00  0.00     0.027 C
HETATM    5  C8  UNL     1      -0.531   2.499  83.208  1.00  0.00     0.027 C
HETATM    6  C7  UNL     1      -0.652   3.075  84.580  1.00  0.00     0.079 C
HETATM    7  C16 UNL     1       0.451   4.031  84.945  1.00  0.00     0.027 C
HETATM    8  C15 UNL     1       0.855   4.976  83.891  1.00  0.00     0.027 C
BRANCH   6   9
HETATM    9  N1  UNL     1      -1.954   3.533  84.942  1.00  0.00    -0.408 N
HETATM   10  C1  UNL     1      -2.504   4.615  84.244  1.00  0.00     0.144 C
BRANCH   9  11
HETATM   11  C2  UNL     1      -2.780   2.651  85.653  1.00  0.00     0.079 C
HETATM   12  C3  UNL     1      -2.095   1.527  86.369  1.00  0.00     0.025 C
HETATM   13  C4  UNL     1      -3.214   0.954  87.217  1.00  0.00     0.002 C
HETATM   14  C5  UNL     1      -4.265   2.019  87.346  1.00  0.00     0.002 C
HETATM   15  C6  UNL     1      -3.617   3.273  86.741  1.00  0.00     0.025 C
ENDBRANCH   9  11
ENDBRANCH   6   9
ENDBRANCH   1   3
BRANCH   1  16
HETATM   16  C11 UNL     1       3.047   4.192  81.241  1.00  0.00     0.120 A
HETATM   17  C12 UNL     1       2.661   3.999  79.930  1.00  0.00     0.091 A
HETATM   18  C13 UNL     1       3.553   4.247  78.914  1.00  0.00     0.122 A
HETATM   19 CL1  UNL     1       3.040   3.993  77.261  1.00  0.00    -0.064 Cl
HETATM   20  N3  UNL     1       4.808   4.681  79.200  1.00  0.00    -0.181 N
HETATM   21  C14 UNL     1       5.161   4.864  80.498  1.00  0.00     0.678 A
ATOM     22  H3  UNL     1       5.474   4.867  78.450  1.00  0.00     0.185 HD
HETATM   23  N5  UNL     1       4.318   4.631  81.515  1.00  0.00    -0.177 N
ATOM     24  H5  UNL     1       4.617   4.778  82.479  1.00  0.00     0.185 HD
BRANCH  21  25
HETATM   25  N4  UNL     1       6.381   5.284  80.692  1.00  0.00    -0.234 N
ATOM     26  H42 UNL     1       6.609   6.277  80.745  1.00  0.00     0.174 HD
ATOM     27  H41 UNL     1       7.086   4.553  80.787  1.00  0.00     0.174 HD
ENDBRANCH  21  25
ENDBRANCH   1  16
TORSDOF 5
ENDMDL