MODEL 4
REMARK VINA RESULT: -6.122537304      3.262      6.523
REMARK  5 active torsions:
REMARK  status: ('A' for Active; 'I' for Inactive)
REMARK    1  A    between atoms: N1_2  and  C2_4
REMARK    2  A    between atoms: C2_4  and  N2_6
REMARK       I    between atoms: N2_6  and  C3_8
REMARK       I    between atoms: C3_8  and  N4_22
REMARK    3  A    between atoms: N3_9  and  C4_11
REMARK    4  A    between atoms: C4_11  and  C5_12
REMARK    5  A    between atoms: C4_11  and  C11_18
ROOT
HETATM    1  N2  UNL     1       1.072   4.230  81.006  1.00  0.00    -0.166 N
ATOM      2  H2  UNL     1       0.550   4.757  80.307  1.00  0.00     0.186 HD
HETATM    3  C3  UNL     1       0.974   4.606  82.375  1.00  0.00     0.689 C
HETATM    4  N3  UNL     1      -0.093   4.475  82.944  1.00  0.00    -0.218 N
ATOM      5  H3  UNL     1      -0.772   4.090  82.287  1.00  0.00     0.178 HD
HETATM    6  N4  UNL     1       2.159   5.106  82.955  1.00  0.00    -0.126 N
ATOM      7  H4  UNL     1       2.599   4.632  83.743  1.00  0.00     0.197 HD
HETATM    8  C14 UNL     1       2.720   6.293  82.406  1.00  0.00     0.196 C
HETATM    9  N5  UNL     1       3.162   7.270  81.944  1.00  0.00    -0.171 NA
ENDROOT
BRANCH   1  10
HETATM   10  C2  UNL     1       1.871   3.148  80.592  1.00  0.00     0.186 C
HETATM   11  S1  UNL     1       1.451   1.585  80.856  1.00  0.00    -0.040 SA
BRANCH  10  12
HETATM   12  N1  UNL     1       3.110   3.368  79.907  1.00  0.00    -0.371 N
HETATM   13  C1  UNL     1       3.343   4.565  79.154  1.00  0.00     0.148 C
ATOM     14  H1  UNL     1       3.841   2.658  79.955  1.00  0.00     0.161 HD
ENDBRANCH  10  12
ENDBRANCH   1  10
BRANCH   4  15
HETATM   15  C4  UNL     1      -0.724   4.669  84.195  1.00  0.00     0.126 C
BRANCH  15  16
HETATM   16  C5  UNL     1      -1.297   3.440  84.790  1.00  0.00     0.011 C
HETATM   17  C6  UNL     1      -1.704   2.500  83.687  1.00  0.00     0.007 C
HETATM   18  C7  UNL     1      -1.110   1.122  83.765  1.00  0.00     0.000 C
HETATM   19  C8  UNL     1      -1.375   0.460  85.095  1.00  0.00     0.000 C
HETATM   20  C9  UNL     1      -1.349   1.480  86.217  1.00  0.00     0.000 C
HETATM   21  C10 UNL     1      -0.502   2.694  85.765  1.00  0.00     0.007 C
ENDBRANCH  15  16
BRANCH  15  22
HETATM   22  C11 UNL     1      -1.557   5.902  84.137  1.00  0.00     0.051 C
HETATM   23  C12 UNL     1      -1.919   6.377  82.760  1.00  0.00     0.034 C
HETATM   24  C13 UNL     1      -2.666   6.004  85.124  1.00  0.00     0.034 C
HETATM   25 CL1  UNL     1      -0.369   7.181  84.696  1.00  0.00    -0.118 Cl
ENDBRANCH  15  22
ENDBRANCH   4  15
TORSDOF 5
ENDMDL