MODEL 2
REMARK VINA RESULT: -6.760040064      3.210      4.377
REMARK  3 active torsions:
REMARK  status: ('A' for Active; 'I' for Inactive)
REMARK    1  A    between atoms: C7_7  and  N1_8
REMARK       I    between atoms: N1_8  and  C8_10
REMARK    2  A    between atoms: C8_10  and  C9_12
REMARK       I    between atoms: C9_12  and  N2_14
REMARK    3  A    between atoms: N2_14  and  C10_16
ROOT
HETATM    1  C9  UNL     1      -0.774   4.776  80.336  1.00  0.00     0.309 C
HETATM    2  O2  UNL     1      -0.568   4.404  79.157  1.00  0.00    -0.262 OA
HETATM    3  N2  UNL     1      -1.432   6.005  80.553  1.00  0.00    -0.346 N
ATOM      4  H2  UNL     1      -1.605   6.316  81.508  1.00  0.00     0.163 HD
ENDROOT
BRANCH   1   5
HETATM    5  C8  UNL     1      -0.327   3.924  81.420  1.00  0.00     0.309 C
HETATM    6  N1  UNL     1      -1.148   3.665  82.552  1.00  0.00    -0.348 N
ATOM      7  H1  UNL     1      -2.073   4.093  82.594  1.00  0.00     0.163 HD
HETATM    8  O1  UNL     1       0.811   3.369  81.419  1.00  0.00    -0.262 OA
BRANCH   6   9
HETATM    9  C7  UNL     1      -0.723   2.816  83.651  1.00  0.00     0.088 C
HETATM   10  C2  UNL     1      -1.221   3.411  84.922  1.00  0.00     0.004 C
HETATM   11  C1  UNL     1      -2.698   3.639  84.967  1.00  0.00     0.012 C
HETATM   12  C3  UNL     1      -0.823   2.464  86.059  1.00  0.00     0.006 C
HETATM   13  C4  UNL     1      -1.614   1.203  85.851  1.00  0.00     0.001 C
HETATM   14  C5  UNL     1      -1.223   0.535  84.576  1.00  0.00     0.002 C
HETATM   15  C6  UNL     1      -1.256   1.435  83.376  1.00  0.00     0.025 C
ENDBRANCH   6   9
ENDBRANCH   1   5
BRANCH   3  16
HETATM   16  C10 UNL     1      -1.867   6.835  79.447  1.00  0.00     0.122 C
HETATM   17  C11 UNL     1      -3.351   6.810  79.298  1.00  0.00     0.065 C
HETATM   18  C12 UNL     1      -3.826   8.194  79.699  1.00  0.00     0.121 C
HETATM   19  C13 UNL     1      -4.234   8.285  81.131  1.00  0.00     0.046 C
HETATM   20  C14 UNL     1      -4.960   8.651  78.801  1.00  0.00     0.046 C
HETATM   21  N3  UNL     1      -2.691   9.064  79.459  1.00  0.00    -0.057 N
HETATM   22  C15 UNL     1      -1.499   8.267  79.613  1.00  0.00     0.139 C
ATOM     23  H32 UNL     1      -2.738   9.542  78.559  1.00  0.00     0.279 HD
ATOM     24  H31 UNL     1      -2.694   9.895  80.051  1.00  0.00     0.279 HD
HETATM   25  C16 UNL     1      -0.571   8.673  78.462  1.00  0.00     0.048 C
HETATM   26  C17 UNL     1      -0.831   8.549  80.946  1.00  0.00     0.048 C
ENDBRANCH   3  16
TORSDOF 3
ENDMDL