MODEL 5
REMARK VINA RESULT: -7.113775030      3.282      8.171
REMARK  13 active torsions:
REMARK  status: ('A' for Active; 'I' for Inactive)
REMARK    1  A    between atoms: C3_3  and  N1_4
REMARK    2  A    between atoms: C3_3  and  C4_8
REMARK    3  A    between atoms: C4_8  and  N2_9
REMARK       I    between atoms: N2_9  and  C5_11
REMARK    4  A    between atoms: C5_11  and  C6_13
REMARK    5  A    between atoms: C8_16  and  N3_17
REMARK       I    between atoms: N3_17  and  C9_19
REMARK    6  A    between atoms: C9_19  and  C10_21
REMARK    7  A    between atoms: C10_21  and  N4_22
REMARK       I    between atoms: N4_22  and  C11_24
REMARK    8  A    between atoms: C11_24  and  C12_26
REMARK    9  A    between atoms: C12_26  and  C13_27
REMARK   10  A    between atoms: C12_26  and  N6_34
REMARK   11  A    between atoms: C13_27  and  C14_28
REMARK   12  A    between atoms: C14_28  and  O5_30
REMARK   13  A    between atoms: O5_30  and  N5_31
ROOT
HETATM    1  C1  UNL     1      -5.392  -6.766  26.465  1.00  0.00     0.014 C
HETATM    2  C2  UNL     1      -5.853  -6.516  27.546  1.00  0.00    -0.083 C
HETATM    3  C3  UNL     1      -6.438  -6.178  28.891  1.00  0.00     0.278 C
ENDROOT
BRANCH   3   4
HETATM    4  N1  UNL     1      -6.617  -7.403  29.597  1.00  0.00    -0.063 N
ATOM      5  H13 UNL     1      -7.566  -7.524  29.951  1.00  0.00     0.275 HD
ATOM      6  H12 UNL     1      -6.599  -8.220  28.987  1.00  0.00     0.275 HD
ATOM      7  H11 UNL     1      -5.910  -7.439  30.331  1.00  0.00     0.275 HD
ENDBRANCH   3   4
BRANCH   3   8
HETATM    8  C4  UNL     1      -5.559  -5.146  29.483  1.00  0.00     0.168 C
BRANCH   8   9
HETATM    9  N2  UNL     1      -5.077  -4.106  28.660  1.00  0.00    -0.353 N
HETATM   10  C5  UNL     1      -5.482  -2.767  28.732  1.00  0.00     0.268 C
HETATM   11  O1  UNL     1      -6.327  -2.393  29.592  1.00  0.00    -0.266 OA
ATOM     12  H2  UNL     1      -4.379  -4.349  27.957  1.00  0.00     0.162 HD
BRANCH  10  13
HETATM   13  C6  UNL     1      -4.922  -1.737  27.788  1.00  0.00     0.109 A
HETATM   14  C7  UNL     1      -4.978  -1.952  26.437  1.00  0.00     0.088 A
HETATM   15  S1  UNL     1      -4.235  -0.536  25.823  1.00  0.00    -0.063 SA
HETATM   16  C8  UNL     1      -3.905   0.231  27.304  1.00  0.00     0.151 A
HETATM   17  N7  UNL     1      -4.375  -0.627  28.201  1.00  0.00    -0.332 N
ATOM     18  H7  UNL     1      -4.310  -0.422  29.198  1.00  0.00     0.168 HD
BRANCH  16  19
HETATM   19  N3  UNL     1      -3.326   1.387  27.503  1.00  0.00    -0.306 N
HETATM   20  C9  UNL     1      -2.100   1.439  28.219  1.00  0.00     0.241 C
HETATM   21  O2  UNL     1      -2.024   1.058  29.412  1.00  0.00    -0.271 OA
ATOM     22  H3  UNL     1      -3.752   2.244  27.147  1.00  0.00     0.171 HD
BRANCH  20  23
HETATM   23  C10 UNL     1      -0.872   1.944  27.579  1.00  0.00     0.225 C
BRANCH  23  24
HETATM   24  N4  UNL     1      -0.899   1.621  26.170  1.00  0.00    -0.351 N
HETATM   25  C11 UNL     1      -0.831   2.645  25.166  1.00  0.00     0.238 C
HETATM   26  O3  UNL     1      -0.744   3.831  25.569  1.00  0.00    -0.272 OA
ATOM     27  H4  UNL     1      -0.969   0.645  25.883  1.00  0.00     0.163 HD
BRANCH  25  28
HETATM   28  C12 UNL     1      -0.864   2.242  23.751  1.00  0.00     0.189 C
BRANCH  28  29
HETATM   29  C13 UNL     1       0.013   1.072  23.459  1.00  0.00     0.144 C
BRANCH  29  30
HETATM   30  C14 UNL     1       0.612   1.145  22.101  1.00  0.00     0.282 C
HETATM   31  O4  UNL     1       0.843   2.265  21.587  1.00  0.00    -0.263 OA
BRANCH  30  32
HETATM   32  O5  UNL     1       0.934   0.021  21.359  1.00  0.00    -0.206 OA
BRANCH  32  33
HETATM   33  N5  UNL     1       0.956  -1.211  21.931  1.00  0.00    -0.302 N
ATOM     34  H52 UNL     1       0.088  -1.586  22.312  1.00  0.00     0.184 HD
ATOM     35  H51 UNL     1       1.820  -1.752  21.980  1.00  0.00     0.184 HD
ENDBRANCH  32  33
ENDBRANCH  30  32
ENDBRANCH  29  30
ENDBRANCH  28  29
BRANCH  28  36
HETATM   36  N6  UNL     1      -2.234   1.860  23.441  1.00  0.00    -0.155 NA
HETATM   37 BR1  UNL     1      -3.176   3.356  22.780  1.00  0.00     0.030 Br
ENDBRANCH  28  36
ENDBRANCH  25  28
ENDBRANCH  23  24
ENDBRANCH  20  23
ENDBRANCH  16  19
ENDBRANCH  10  13
ENDBRANCH   8   9
ENDBRANCH   3   8
TORSDOF 13
ENDMDL