MODEL 3
REMARK VINA RESULT: -7.616788778      1.969      2.671
REMARK  11 active torsions:
REMARK  status: ('A' for Active; 'I' for Inactive)
REMARK    1  A    between atoms: O1_2  and  N1_3
REMARK    2  A    between atoms: C2_5  and  C3_6
REMARK    3  A    between atoms: C2_5  and  C7_22
REMARK    4  A    between atoms: C3_6  and  N2_7
REMARK    5  A    between atoms: N2_7  and  C4_9
REMARK    6  A    between atoms: C4_9  and  C6_11
REMARK    7  A    between atoms: C4_9  and  S2_16
REMARK    8  A    between atoms: C6_11  and  S1_12
REMARK    9  A    between atoms: S2_16  and  N3_17
REMARK   10  A    between atoms: C7_22  and  N5_26
REMARK   11  A    between atoms: C10_29  and  C11_31
ROOT
HETATM    1  N1  UNL     1      -1.252   2.276  28.177  1.00  0.00    -0.262 N
ATOM      2  H1  UNL     1      -1.850   2.783  28.831  1.00  0.00     0.194 HD
HETATM    3  C2  UNL     1      -1.865   1.653  27.253  1.00  0.00     0.112 C
ENDROOT
BRANCH   3   4
HETATM    4  C3  UNL     1      -1.217   0.846  26.189  1.00  0.00     0.120 C
BRANCH   4   5
HETATM    5  N2  UNL     1      -0.581   1.697  25.266  1.00  0.00    -0.373 N
ATOM      6  H2  UNL     1      -0.123   2.564  25.549  1.00  0.00     0.160 HD
BRANCH   5   7
HETATM    7  C4  UNL     1      -0.622   1.247  23.854  1.00  0.00     0.165 C
HETATM    8  C5  UNL     1      -0.004  -0.092  23.657  1.00  0.00     0.059 C
BRANCH   7   9
HETATM    9  C6  UNL     1      -2.029   1.268  23.420  1.00  0.00     0.214 C
BRANCH   9  10
HETATM   10  S1  UNL     1      -2.969   2.721  23.502  1.00  0.00     0.105 S
HETATM   11  O2  UNL     1      -4.386   2.322  23.946  1.00  0.00    -0.595 OA
HETATM   12  O3  UNL     1      -3.226   3.298  22.098  1.00  0.00    -0.595 OA
HETATM   13  O4  UNL     1      -2.489   3.919  24.508  1.00  0.00    -0.595 OA
ENDBRANCH   9  10
ENDBRANCH   7   9
BRANCH   7  14
HETATM   14  S2  UNL     1       0.388   2.445  23.034  1.00  0.00     0.252 S
HETATM   15  O5  UNL     1       1.855   2.077  23.148  1.00  0.00    -0.203 OA
HETATM   16  O6  UNL     1       0.127   2.411  21.525  1.00  0.00    -0.203 OA
BRANCH  14  17
HETATM   17  N3  UNL     1       0.207   4.048  23.513  1.00  0.00    -0.326 N
ATOM     18  H32 UNL     1      -0.686   4.527  23.398  1.00  0.00     0.168 HD
ATOM     19  H31 UNL     1       1.025   4.504  23.916  1.00  0.00     0.168 HD
ENDBRANCH  14  17
ENDBRANCH   7  14
ENDBRANCH   5   7
ENDBRANCH   4   5
ENDBRANCH   3   4
BRANCH   3  20
HETATM   20  C7  UNL     1      -3.329   1.787  27.267  1.00  0.00     0.127 C
HETATM   21  N4  UNL     1      -3.947   2.875  27.036  1.00  0.00    -0.384 N
ATOM     22  H42 UNL     1      -3.385   3.702  26.831  1.00  0.00     0.157 HD
ATOM     23  H41 UNL     1      -4.963   2.968  27.046  1.00  0.00     0.157 HD
BRANCH  20  24
HETATM   24  N5  UNL     1      -4.109   0.639  27.551  1.00  0.00    -0.365 N
HETATM   25  C8  UNL     1      -4.112   0.048  28.854  1.00  0.00     0.128 C
HETATM   26  C9  UNL     1      -3.870  -1.463  28.786  1.00  0.00     0.067 C
HETATM   27  C10 UNL     1      -4.857  -2.011  27.776  1.00  0.00     0.160 C
HETATM   28  F1  UNL     1      -6.115  -1.616  28.123  1.00  0.00    -0.239 F
HETATM   29  C14 UNL     1      -4.520  -1.418  26.434  1.00  0.00     0.067 C
HETATM   30  C15 UNL     1      -4.903   0.068  26.493  1.00  0.00     0.128 C
BRANCH  27  31
HETATM   31  C11 UNL     1      -4.775  -3.522  27.693  1.00  0.00     0.421 C
HETATM   32  N6  UNL     1      -5.667  -3.958  26.641  1.00  0.00    -0.041 N
HETATM   33  C12 UNL     1      -5.790  -5.379  26.909  1.00  0.00     0.262 C
ATOM     34  H62 UNL     1      -6.552  -3.452  26.591  1.00  0.00     0.279 HD
ATOM     35  H61 UNL     1      -5.365  -3.722  25.696  1.00  0.00     0.279 HD
HETATM   36  C13 UNL     1      -5.870  -5.422  28.417  1.00  0.00     0.262 C
HETATM   37  N7  UNL     1      -5.306  -4.152  28.876  1.00  0.00    -0.041 N
ATOM     38  H72 UNL     1      -4.626  -4.253  29.629  1.00  0.00     0.279 HD
ATOM     39  H71 UNL     1      -5.968  -3.570  29.391  1.00  0.00     0.279 HD
ENDBRANCH  27  31
ENDBRANCH  20  24
ENDBRANCH   3  20
BRANCH   1  40
HETATM   40  O1  UNL     1       0.073   2.366  28.421  1.00  0.00    -0.285 OA
HETATM   41  C1  UNL     1       0.733   3.593  28.167  1.00  0.00     0.237 C
ENDBRANCH   1  40
TORSDOF 11
ENDMDL