MODEL 3
REMARK VINA RESULT: -6.867292346      2.089      4.319
REMARK  11 active torsions:
REMARK  status: ('A' for Active; 'I' for Inactive)
REMARK    1  A    between atoms: C2_2  and  N1_3
REMARK    2  A    between atoms: C2_2  and  C3_7
REMARK       I    between atoms: C3_7  and  N2_9
REMARK    3  A    between atoms: N2_9  and  C4_11
REMARK    4  A    between atoms: C4_11  and  C5_12
REMARK       I    between atoms: C5_12  and  N3_14
REMARK    5  A    between atoms: N3_14  and  C6_16
REMARK    6  A    between atoms: C6_16  and  C7_17
REMARK    7  A    between atoms: C6_16  and  C8_22
REMARK    8  A    between atoms: C7_17  and  N4_18
REMARK    9  A    between atoms: C8_22  and  C9_23
REMARK   10  A    between atoms: C8_22  and  N5_25
REMARK       I    between atoms: N5_25  and  C10_27
REMARK   11  A    between atoms: C10_27  and  C11_29
ROOT
HETATM    1  C8  UNL     1      -1.367   1.818  23.120  1.00  0.00     0.170 C
ENDROOT
BRANCH   1   2
HETATM    2  C6  UNL     1      -0.206   2.583  23.708  1.00  0.00     0.139 C
BRANCH   2   3
HETATM    3  N3  UNL     1      -0.418   3.981  23.301  1.00  0.00    -0.351 N
HETATM    4  C5  UNL     1      -0.318   5.041  24.236  1.00  0.00     0.235 C
HETATM    5  O2  UNL     1      -0.042   4.778  25.432  1.00  0.00    -0.272 OA
ATOM      6  H3  UNL     1      -0.642   4.192  22.328  1.00  0.00     0.163 HD
BRANCH   4   7
HETATM    7  C4  UNL     1      -0.529   6.465  23.842  1.00  0.00     0.225 C
BRANCH   7   8
HETATM    8  N2  UNL     1      -1.926   6.739  23.618  1.00  0.00    -0.351 N
HETATM    9  C3  UNL     1      -2.322   7.869  22.871  1.00  0.00     0.248 C
HETATM   10  O1  UNL     1      -1.461   8.636  22.402  1.00  0.00    -0.271 OA
ATOM     11  H2  UNL     1      -2.633   6.112  24.002  1.00  0.00     0.163 HD
BRANCH   9  12
HETATM   12  C2  UNL     1      -3.746   8.158  22.636  1.00  0.00     0.270 C
HETATM   13  C1  UNL     1      -3.840   8.984  21.369  1.00  0.00     0.050 C
BRANCH  12  14
HETATM   14  N1  UNL     1      -4.511   6.956  22.463  1.00  0.00    -0.067 N
ATOM     15  H13 UNL     1      -5.468   7.051  22.801  1.00  0.00     0.275 HD
ATOM     16  H12 UNL     1      -4.726   6.769  21.483  1.00  0.00     0.275 HD
ATOM     17  H11 UNL     1      -4.016   6.183  22.908  1.00  0.00     0.275 HD
ENDBRANCH  12  14
ENDBRANCH   9  12
ENDBRANCH   7   8
ENDBRANCH   4   7
ENDBRANCH   2   3
BRANCH   2  18
HETATM   18  C7  UNL     1       1.103   2.178  23.131  1.00  0.00     0.257 C
BRANCH  18  19
HETATM   19  N4  UNL     1       1.404   0.785  23.165  1.00  0.00    -0.077 N
ATOM     20  H43 UNL     1       0.593   0.265  23.501  1.00  0.00     0.274 HD
ATOM     21  H42 UNL     1       1.473   0.424  22.213  1.00  0.00     0.274 HD
ATOM     22  H41 UNL     1       2.232   0.514  23.696  1.00  0.00     0.274 HD
ENDBRANCH  18  19
ENDBRANCH   2  18
ENDBRANCH   1   2
BRANCH   1  23
HETATM   23  C9  UNL     1      -2.002   2.589  22.009  1.00  0.00     0.258 C
HETATM   24  O3  UNL     1      -1.664   2.436  20.850  1.00  0.00    -0.305 OA
ENDBRANCH   1  23
BRANCH   1  25
HETATM   25  N5  UNL     1      -2.299   1.465  24.144  1.00  0.00    -0.348 N
HETATM   26  C10 UNL     1      -1.998   0.532  25.161  1.00  0.00     0.225 C
HETATM   27  O4  UNL     1      -0.844  -0.002  25.137  1.00  0.00    -0.273 OA
ATOM     28  H5  UNL     1      -3.220   1.906  24.142  1.00  0.00     0.163 HD
BRANCH  26  29
HETATM   29  C11 UNL     1      -2.990   0.171  26.238  1.00  0.00     0.112 C
HETATM   30  C12 UNL     1      -4.337   0.519  25.750  1.00  0.00     0.017 C
HETATM   31  C13 UNL     1      -5.264  -0.709  25.754  1.00  0.00     0.001 C
HETATM   32  C14 UNL     1      -5.779  -0.947  27.180  1.00  0.00     0.000 C
HETATM   33  C15 UNL     1      -4.978  -1.907  27.948  1.00  0.00     0.000 C
HETATM   34  C16 UNL     1      -3.962  -1.401  28.902  1.00  0.00     0.005 C
HETATM   35  C17 UNL     1      -4.076  -0.010  29.367  1.00  0.00     0.069 C
HETATM   36  C18 UNL     1      -3.332   1.032  28.636  1.00  0.00     0.207 C
HETATM   37  F1  UNL     1      -4.106   2.188  28.434  1.00  0.00    -0.216 F
HETATM   38  N6  UNL     1      -2.256   1.597  29.492  1.00  0.00    -0.298 N
HETATM   39  C20 UNL     1      -2.500   0.676  27.487  1.00  0.00     0.207 C
HETATM   40  C19 UNL     1      -1.445   2.312  28.571  1.00  0.00     0.363 C
ATOM     41  H6  UNL     1      -2.129   1.495  30.499  1.00  0.00     0.168 HD
HETATM   42  O5  UNL     1      -0.536   3.160  28.836  1.00  0.00    -0.238 OA
HETATM   43  O6  UNL     1      -1.811   1.926  27.265  1.00  0.00    -0.292 OA
ENDBRANCH  26  29
ENDBRANCH   1  25
TORSDOF 11
ENDMDL