MODEL 4
REMARK VINA RESULT: -7.300242644      4.081      8.822
REMARK  10 active torsions:
REMARK  status: ('A' for Active; 'I' for Inactive)
REMARK    1  A    between atoms: C5_8  and  C6_9
REMARK    2  A    between atoms: C6_9  and  N2_10
REMARK    3  A    between atoms: N2_10  and  C7_12
REMARK    4  A    between atoms: C9_18  and  C10_19
REMARK    5  A    between atoms: C10_19  and  C11_20
REMARK    6  A    between atoms: C11_20  and  C12_22
REMARK    7  A    between atoms: C12_22  and  C13_23
REMARK    8  A    between atoms: C13_23  and  C14_24
REMARK       I    between atoms: C14_24  and  N5_26
REMARK    9  A    between atoms: N5_26  and  C15_28
REMARK   10  A    between atoms: C15_28  and  C16_29
ROOT
HETATM    1  C7  UNL     1      -4.861  -0.251  26.325  1.00  0.00     0.396 C
HETATM    2  N3  UNL     1      -5.946   0.573  25.795  1.00  0.00    -0.084 NA
HETATM    3  N4  UNL     1      -7.100  -0.225  25.561  1.00  0.00    -0.269 N
ATOM      4  H4  UNL     1      -7.940   0.203  25.172  1.00  0.00     0.185 HD
HETATM    5  C8  UNL     1      -7.092  -1.608  25.862  1.00  0.00     0.264 C
HETATM    6  O2  UNL     1      -7.874  -2.376  25.291  1.00  0.00    -0.270 OA
HETATM    7  C9  UNL     1      -6.136  -2.094  26.863  1.00  0.00     0.289 C
HETATM    8  N6  UNL     1      -5.372  -0.984  27.450  1.00  0.00    -0.025 N
ATOM      9  H61 UNL     1      -5.907  -0.415  28.107  1.00  0.00     0.282 HD
ATOM     10  H62 UNL     1      -4.655  -1.281  28.111  1.00  0.00     0.282 HD
ENDROOT
BRANCH   1  11
HETATM   11  N2  UNL     1      -3.736   0.573  26.547  1.00  0.00    -0.381 N
ATOM     12  H2  UNL     1      -3.838   1.566  26.756  1.00  0.00     0.156 HD
BRANCH  11  13
HETATM   13  C6  UNL     1      -2.455  -0.039  26.466  1.00  0.00     0.132 C
BRANCH  13  14
HETATM   14  C5  UNL     1      -1.489   0.786  25.634  1.00  0.00     0.109 C
HETATM   15  C4  UNL     1      -1.316   2.088  26.247  1.00  0.00     0.225 C
HETATM   16  N1  UNL     1      -1.397   3.362  25.650  1.00  0.00    -0.339 N
HETATM   17  O1  UNL     1      -1.056   2.092  27.500  1.00  0.00    -0.273 OA
HETATM   18  C2  UNL     1      -1.279   3.530  24.221  1.00  0.00     0.129 C
ATOM     19  H1  UNL     1      -1.543   4.182  26.239  1.00  0.00     0.164 HD
HETATM   20  C1  UNL     1       0.148   3.360  23.816  1.00  0.00     0.055 C
HETATM   21  C3  UNL     1      -1.853   4.863  23.809  1.00  0.00     0.055 C
HETATM   22  S1  UNL     1      -2.358   2.278  23.516  1.00  0.00     0.171 S
HETATM   23  C17 UNL     1      -1.808   0.743  24.183  1.00  0.00     0.158 C
HETATM   24  O5  UNL     1      -2.248   2.226  22.028  1.00  0.00    -0.225 OA
HETATM   25  O6  UNL     1      -3.756   2.630  23.961  1.00  0.00    -0.225 OA
ENDBRANCH  13  14
ENDBRANCH  11  13
ENDBRANCH   1  11
BRANCH   7  26
HETATM   26  C10 UNL     1      -6.667  -3.063  27.847  1.00  0.00     0.121 C
BRANCH  26  27
HETATM   27  C11 UNL     1      -6.185  -4.443  27.738  1.00  0.00     0.129 C
HETATM   28  O3  UNL     1      -6.015  -5.044  26.698  1.00  0.00    -0.298 OA
BRANCH  27  29
HETATM   29  C12 UNL     1      -5.874  -5.170  29.001  1.00  0.00     0.087 C
BRANCH  29  30
HETATM   30  C13 UNL     1      -5.793  -4.208  30.173  1.00  0.00     0.110 C
BRANCH  30  31
HETATM   31  C14 UNL     1      -6.146  -4.937  31.407  1.00  0.00     0.217 C
HETATM   32  O4  UNL     1      -6.863  -5.978  31.316  1.00  0.00    -0.274 OA
HETATM   33  N5  UNL     1      -5.727  -4.537  32.693  1.00  0.00    -0.360 N
ATOM     34  H5  UNL     1      -5.147  -3.702  32.757  1.00  0.00     0.162 HD
BRANCH  33  35
HETATM   35  C15 UNL     1      -6.051  -5.210  33.921  1.00  0.00     0.137 C
BRANCH  35  36
HETATM   36  C16 UNL     1      -5.313  -4.654  35.092  1.00  0.00     0.134 C
HETATM   37 CL1  UNL     1      -3.930  -5.709  35.472  1.00  0.00    -0.129 Cl
ENDBRANCH  35  36
ENDBRANCH  33  35
ENDBRANCH  30  31
ENDBRANCH  29  30
ENDBRANCH  27  29
ENDBRANCH  26  27
ENDBRANCH   7  26
TORSDOF 10
ENDMDL