MODEL 5
REMARK VINA RESULT: -8.015568092      3.355      5.389
REMARK  14 active torsions:
REMARK  status: ('A' for Active; 'I' for Inactive)
REMARK    1  A    between atoms: C2_2  and  C3_4
REMARK    2  A    between atoms: C3_4  and  C5_6
REMARK    3  A    between atoms: C5_6  and  C6_8
REMARK    4  A    between atoms: C6_8  and  O2_9
REMARK    5  A    between atoms: C6_8  and  N1_11
REMARK    6  A    between atoms: C9_14  and  N2_15
REMARK    7  A    between atoms: C9_14  and  C19_39
REMARK       I    between atoms: N2_15  and  C10_17
REMARK    8  A    between atoms: C10_17  and  C11_19
REMARK    9  A    between atoms: C11_19  and  N3_20
REMARK   10  A    between atoms: C11_19  and  C12_24
REMARK   11  A    between atoms: C12_24  and  N4_25
REMARK   12  A    between atoms: C12_24  and  C13_29
REMARK   13  A    between atoms: C13_29  and  C14_30
REMARK       I    between atoms: C14_30  and  N5_32
REMARK   14  A    between atoms: N5_32  and  C15_34
ROOT
HETATM    1  N2  UNL     1      -4.344  -2.238  27.838  1.00  0.00    -0.339 N
ATOM      2  H2  UNL     1      -3.425  -2.647  28.004  1.00  0.00     0.163 HD
HETATM    3  C10 UNL     1      -4.375  -1.025  27.142  1.00  0.00     0.251 C
HETATM    4  O3  UNL     1      -5.508  -0.476  26.916  1.00  0.00    -0.271 OA
ENDROOT
BRANCH   3   5
HETATM    5  C11 UNL     1      -3.119  -0.368  26.665  1.00  0.00     0.305 C
BRANCH   5   6
HETATM    6  N3  UNL     1      -2.041  -1.326  26.895  1.00  0.00    -0.064 N
ATOM      7  H33 UNL     1      -1.446  -1.083  27.687  1.00  0.00     0.275 HD
ATOM      8  H32 UNL     1      -2.368  -2.224  27.253  1.00  0.00     0.275 HD
ATOM      9  H31 UNL     1      -1.533  -1.403  26.014  1.00  0.00     0.275 HD
ENDBRANCH   5   6
BRANCH   5  10
HETATM   10  C12 UNL     1      -2.879   0.863  27.510  1.00  0.00     0.231 C
BRANCH  10  11
HETATM   11  N4  UNL     1      -3.963   1.783  27.424  1.00  0.00    -0.072 N
ATOM     12  H43 UNL     1      -3.629   2.740  27.312  1.00  0.00     0.274 HD
ATOM     13  H42 UNL     1      -4.465   1.684  26.541  1.00  0.00     0.274 HD
ATOM     14  H41 UNL     1      -4.594   1.701  28.220  1.00  0.00     0.274 HD
ENDBRANCH  10  11
BRANCH  10  15
HETATM   15  C13 UNL     1      -1.532   1.476  27.343  1.00  0.00     0.138 C
BRANCH  15  16
HETATM   16  C14 UNL     1      -1.284   2.168  26.079  1.00  0.00     0.220 C
HETATM   17  O4  UNL     1      -1.772   3.305  25.884  1.00  0.00    -0.274 OA
HETATM   18  N5  UNL     1      -0.506   1.593  25.061  1.00  0.00    -0.354 N
ATOM     19  H5  UNL     1      -0.099   0.667  25.197  1.00  0.00     0.162 HD
BRANCH  18  20
HETATM   20  C15 UNL     1      -0.280   2.296  23.833  1.00  0.00     0.110 C
HETATM   21  C16 UNL     1       1.092   2.027  23.255  1.00  0.00     0.053 C
HETATM   22  C17 UNL     1       0.785   1.645  21.834  1.00  0.00     0.169 C
HETATM   23  O5  UNL     1      -0.432   2.248  21.584  1.00  0.00    -0.389 OA
HETATM   24  C18 UNL     1      -1.189   1.849  22.707  1.00  0.00     0.192 C
ENDBRANCH  18  20
ENDBRANCH  15  16
ENDBRANCH  10  15
ENDBRANCH   5  10
ENDBRANCH   3   5
BRANCH   1  25
HETATM   25  C9  UNL     1      -5.488  -2.971  28.345  1.00  0.00     0.138 C
HETATM   26  C8  UNL     1      -6.108  -2.117  29.450  1.00  0.00     0.065 C
HETATM   27  C7  UNL     1      -7.036  -2.868  30.340  1.00  0.00     0.150 C
HETATM   28  N1  UNL     1      -6.386  -4.167  30.757  1.00  0.00    -0.272 N
HETATM   29  N6  UNL     1      -6.093  -4.938  29.660  1.00  0.00    -0.134 NA
HETATM   30  C20 UNL     1      -5.090  -4.331  28.854  1.00  0.00     0.177 C
BRANCH  28  31
HETATM   31  C6  UNL     1      -6.175  -4.402  32.106  1.00  0.00     0.194 C
BRANCH  31  32
HETATM   32  C5  UNL     1      -5.570  -3.793  33.229  1.00  0.00     0.177 C
HETATM   33  F1  UNL     1      -4.711  -2.712  32.824  1.00  0.00    -0.201 F
BRANCH  32  34
HETATM   34  C3  UNL     1      -5.624  -4.008  34.501  1.00  0.00     0.026 C
HETATM   35  C4  UNL     1      -6.235  -3.096  35.512  1.00  0.00     0.055 C
BRANCH  34  36
HETATM   36  C2  UNL     1      -5.049  -5.233  35.103  1.00  0.00     0.154 C
HETATM   37  C1  UNL     1      -3.658  -5.393  35.488  1.00  0.00     0.096 C
HETATM   38  O1  UNL     1      -5.855  -6.226  35.293  1.00  0.00    -0.293 OA
ENDBRANCH  34  36
ENDBRANCH  32  34
ENDBRANCH  31  32
BRANCH  31  39
HETATM   39  O2  UNL     1      -6.725  -5.600  32.471  1.00  0.00    -0.343 OA
ATOM     40  H2  UNL     1      -6.792  -5.647  33.418  1.00  0.00     0.219 HD
ENDBRANCH  31  39
ENDBRANCH  28  31
BRANCH  25  41
HETATM   41  C19 UNL     1      -6.539  -3.127  27.321  1.00  0.00     0.204 C
HETATM   42  O6  UNL     1      -6.285  -3.854  26.320  1.00  0.00    -0.646 OA
HETATM   43  O7  UNL     1      -7.780  -2.544  27.361  1.00  0.00    -0.646 OA
ENDBRANCH  25  41
ENDBRANCH   1  25
TORSDOF 14
ENDMDL