MODEL 5
REMARK VINA RESULT: -7.237540599      3.411      6.891
REMARK  11 active torsions:
REMARK  status: ('A' for Active; 'I' for Inactive)
REMARK    1  A    between atoms: C2_2  and  O1_3
REMARK    2  A    between atoms: C2_2  and  C8_27
REMARK    3  A    between atoms: C2_2  and  C9_30
REMARK    4  A    between atoms: O1_3  and  N1_4
REMARK    5  A    between atoms: N1_4  and  C3_6
REMARK    6  A    between atoms: C3_6  and  N2_7
REMARK    7  A    between atoms: C3_6  and  C6_20
REMARK       I    between atoms: N2_7  and  C4_9
REMARK    8  A    between atoms: C4_9  and  C5_11
REMARK    9  A    between atoms: C5_11  and  N3_12
REMARK   10  A    between atoms: C5_11  and  N4_16
REMARK   11  A    between atoms: C7_22  and  S1_23
REMARK       I    between atoms: C9_30  and  N5_32
ROOT
HETATM    1  C3  UNL     1      -3.615  -0.475  27.876  1.00  0.00     0.252 C
ENDROOT
BRANCH   1   2
HETATM    2  N1  UNL     1      -3.382  -0.002  26.599  1.00  0.00    -0.272 N
ATOM      3  H1  UNL     1      -3.960  -0.469  25.901  1.00  0.00     0.190 HD
BRANCH   2   4
HETATM    4  O1  UNL     1      -2.641   0.849  26.104  1.00  0.00    -0.251 OA
BRANCH   4   5
HETATM    5  C2  UNL     1      -2.615   2.210  26.256  1.00  0.00     0.251 C
HETATM    6  C1  UNL     1      -3.968   2.834  26.201  1.00  0.00     0.071 C
BRANCH   5   7
HETATM    7  C8  UNL     1      -1.769   2.561  27.408  1.00  0.00     0.221 C
HETATM    8  O6  UNL     1      -0.698   1.862  27.571  1.00  0.00    -0.645 OA
HETATM    9  O7  UNL     1      -2.040   3.575  28.318  1.00  0.00    -0.645 OA
ENDBRANCH   5   7
BRANCH   5  10
HETATM   10  C9  UNL     1      -1.858   2.782  25.061  1.00  0.00     0.268 C
HETATM   11  O8  UNL     1      -2.001   4.064  24.938  1.00  0.00    -0.269 OA
HETATM   12  N5  UNL     1      -1.072   2.100  24.144  1.00  0.00    -0.342 N
HETATM   13  C10 UNL     1      -0.745   0.713  24.068  1.00  0.00     0.127 C
HETATM   14  C14 UNL     1      -0.443   2.900  23.032  1.00  0.00     0.204 C
HETATM   15  C11 UNL     1       0.666   0.503  23.458  1.00  0.00     0.027 C
HETATM   16  C12 UNL     1       0.497   0.791  21.964  1.00  0.00     0.081 C
HETATM   17  C13 UNL     1      -0.390   1.992  21.861  1.00  0.00     0.144 C
HETATM   18  O9  UNL     1      -1.025   2.179  20.840  1.00  0.00    -0.296 OA
ENDBRANCH   5  10
ENDBRANCH   4   5
ENDBRANCH   2   4
ENDBRANCH   1   2
BRANCH   1  19
HETATM   19  N2  UNL     1      -4.146   0.424  28.877  1.00  0.00    -0.330 N
HETATM   20  C4  UNL     1      -3.364   0.800  30.015  1.00  0.00     0.277 C
HETATM   21  O2  UNL     1      -2.204   0.334  30.128  1.00  0.00    -0.269 OA
ATOM     22  H2  UNL     1      -5.090   0.795  28.770  1.00  0.00     0.165 HD
BRANCH  20  23
HETATM   23  C5  UNL     1      -3.849   1.707  31.059  1.00  0.00     0.468 C
BRANCH  23  24
HETATM   24  N3  UNL     1      -5.137   2.241  30.602  1.00  0.00    -0.042 N
ATOM     25  H33 UNL     1      -5.590   2.837  31.293  1.00  0.00     0.277 HD
ATOM     26  H32 UNL     1      -5.042   2.942  29.867  1.00  0.00     0.277 HD
ATOM     27  H31 UNL     1      -5.709   1.444  30.323  1.00  0.00     0.277 HD
ENDBRANCH  23  24
BRANCH  23  28
HETATM   28  N4  UNL     1      -2.914   2.806  31.321  1.00  0.00    -0.042 N
ATOM     29  H43 UNL     1      -1.947   2.487  31.268  1.00  0.00     0.277 HD
ATOM     30  H42 UNL     1      -2.907   3.474  30.550  1.00  0.00     0.277 HD
ATOM     31  H41 UNL     1      -3.102   3.269  32.209  1.00  0.00     0.277 HD
ENDBRANCH  23  28
ENDBRANCH  20  23
ENDBRANCH   1  19
BRANCH   1  32
HETATM   32  C6  UNL     1      -4.689  -1.576  27.747  1.00  0.00     0.069 C
HETATM   33 CL1  UNL     1      -4.665  -2.886  28.909  1.00  0.00    -0.084 Cl
HETATM   34  C7  UNL     1      -5.586  -1.532  26.804  1.00  0.00     0.157 C
BRANCH  34  35
HETATM   35  S1  UNL     1      -6.834  -2.741  26.595  1.00  0.00     0.128 S
HETATM   36  O3  UNL     1      -7.690  -2.350  25.419  1.00  0.00    -0.592 OA
HETATM   37  O4  UNL     1      -7.659  -2.804  27.849  1.00  0.00    -0.592 OA
HETATM   38  O5  UNL     1      -6.067  -4.218  26.318  1.00  0.00    -0.592 OA
ENDBRANCH  34  35
ENDBRANCH   1  32
TORSDOF 11
ENDMDL