MODEL 4
REMARK VINA RESULT: -8.184289161      1.366      1.582
REMARK  12 active torsions:
REMARK  status: ('A' for Active; 'I' for Inactive)
REMARK    1  A    between atoms: C2_2  and  N1_3
REMARK    2  A    between atoms: C2_2  and  C9_13
REMARK    3  A    between atoms: N1_3  and  N2_4
REMARK    4  A    between atoms: N2_4  and  C3_6
REMARK    5  A    between atoms: C3_6  and  C4_7
REMARK       I    between atoms: C9_13  and  N4_15
REMARK       I    between atoms: N4_15  and  C10_17
REMARK    6  A    between atoms: C10_17  and  C11_19
REMARK    7  A    between atoms: C11_19  and  N7_28
REMARK    8  A    between atoms: N5_20  and  N6_22
REMARK       I    between atoms: N6_22  and  C12_24
REMARK    9  A    between atoms: C12_24  and  C13_26
REMARK   10  A    between atoms: C15_30  and  O4_31
REMARK   11  A    between atoms: C15_30  and  C16_33
REMARK   12  A    between atoms: C16_33  and  O5_34
ROOT
HETATM    1  C11 UNL     1      -2.800   1.781  26.661  1.00  0.00     0.188 C
HETATM    2  N5  UNL     1      -1.890   1.624  27.542  1.00  0.00    -0.278 N
ATOM      3  H5  UNL     1      -2.149   1.185  28.425  1.00  0.00     0.189 HD
ENDROOT
BRANCH   1   4
HETATM    4  C10 UNL     1      -4.143   1.293  27.045  1.00  0.00     0.293 C
HETATM    5  N4  UNL     1      -4.616   0.003  26.680  1.00  0.00    -0.289 N
HETATM    6  C9  UNL     1      -5.907  -0.395  27.079  1.00  0.00     0.245 C
ATOM      7  H4  UNL     1      -4.027  -0.627  26.135  1.00  0.00     0.172 HD
HETATM    8  O1  UNL     1      -6.612   0.396  27.747  1.00  0.00    -0.271 OA
HETATM    9  O2  UNL     1      -4.883   2.053  27.718  1.00  0.00    -0.264 OA
BRANCH   6  10
HETATM   10  C2  UNL     1      -6.412  -1.719  26.716  1.00  0.00     0.187 C
HETATM   11  C1  UNL     1      -7.462  -1.625  25.611  1.00  0.00     0.040 C
BRANCH  10  12
HETATM   12  N1  UNL     1      -5.374  -2.626  26.280  1.00  0.00    -0.132 NA
BRANCH  12  13
HETATM   13  N2  UNL     1      -5.861  -3.899  26.252  1.00  0.00    -0.337 N
ATOM     14  H2  UNL     1      -6.578  -4.192  25.589  1.00  0.00     0.175 HD
BRANCH  13  15
HETATM   15  C3  UNL     1      -5.301  -4.795  27.214  1.00  0.00     0.171 C
BRANCH  15  16
HETATM   16  C4  UNL     1      -6.261  -5.346  28.199  1.00  0.00     0.241 C
HETATM   17  C5  UNL     1      -6.464  -6.818  28.140  1.00  0.00     0.039 C
HETATM   18  C6  UNL     1      -5.874  -7.354  29.446  1.00  0.00     0.032 C
HETATM   19  C7  UNL     1      -6.130  -6.169  30.368  1.00  0.00     0.272 C
HETATM   20  N3  UNL     1      -5.731  -5.068  29.539  1.00  0.00     0.090 N
HETATM   21  C8  UNL     1      -6.110  -3.782  30.020  1.00  0.00     0.310 C
ENDBRANCH  15  16
ENDBRANCH  13  15
ENDBRANCH  12  13
ENDBRANCH  10  12
ENDBRANCH   6  10
ENDBRANCH   1   4
BRANCH   1  22
HETATM   22  N7  UNL     1      -2.655   2.364  25.386  1.00  0.00    -0.354 N
HETATM   23  C14 UNL     1      -2.430   1.654  24.152  1.00  0.00     0.165 C
HETATM   24  C15 UNL     1      -2.204   2.681  23.095  1.00  0.00     0.097 C
HETATM   25  C17 UNL     1      -1.864   3.934  23.832  1.00  0.00     0.066 C
HETATM   26  C18 UNL     1      -2.692   3.788  25.113  1.00  0.00     0.085 C
HETATM   27  C19 UNL     1      -4.076   4.317  24.928  1.00  0.00     0.032 C
BRANCH  24  28
HETATM   28  O4  UNL     1      -3.382   2.856  22.372  1.00  0.00    -0.386 OA
ATOM     29  H4  UNL     1      -3.824   2.018  22.294  1.00  0.00     0.210 HD
ENDBRANCH  24  28
BRANCH  24  30
HETATM   30  C16 UNL     1      -1.064   2.230  22.193  1.00  0.00     0.203 C
BRANCH  30  31
HETATM   31  O5  UNL     1      -1.583   1.952  20.934  1.00  0.00    -0.398 OA
ATOM     32  H5  UNL     1      -2.103   1.158  20.992  1.00  0.00     0.209 HD
ENDBRANCH  30  31
ENDBRANCH  24  30
ENDBRANCH   1  22
BRANCH   2  33
HETATM   33  N6  UNL     1      -0.587   2.010  27.371  1.00  0.00    -0.267 N
HETATM   34  C12 UNL     1      -0.133   3.275  27.812  1.00  0.00     0.249 C
HETATM   35  O3  UNL     1      -0.941   4.066  28.371  1.00  0.00    -0.271 OA
ATOM     36  H6  UNL     1       0.068   1.373  26.918  1.00  0.00     0.190 HD
BRANCH  34  37
HETATM   37  C13 UNL     1       1.278   3.672  27.620  1.00  0.00     0.219 C
HETATM   38 CL1  UNL     1       1.430   4.725  26.187  1.00  0.00    -0.121 Cl
ENDBRANCH  34  37
ENDBRANCH   2  33
TORSDOF 12
ENDMDL