MODEL 4
REMARK VINA RESULT: -7.275706829      2.805      6.454
REMARK  11 active torsions:
REMARK  status: ('A' for Active; 'I' for Inactive)
REMARK       I    between atoms: N1_2  and  C2_4
REMARK    1  A    between atoms: C2_4  and  C3_6
REMARK    2  A    between atoms: C4_7  and  C5_8
REMARK    3  A    between atoms: C5_8  and  N3_12
REMARK    4  A    between atoms: C7_15  and  C8_16
REMARK       I    between atoms: C8_16  and  N4_18
REMARK    5  A    between atoms: N4_18  and  C9_20
REMARK    6  A    between atoms: C9_20  and  C10_21
REMARK    7  A    between atoms: C9_20  and  C12_24
REMARK       I    between atoms: C12_24  and  N5_26
REMARK    8  A    between atoms: N5_26  and  C13_28
REMARK    9  A    between atoms: C13_28  and  C15_30
REMARK   10  A    between atoms: C17_35  and  C18_36
REMARK   11  A    between atoms: N8_37  and  O6_39
ROOT
HETATM    1  C3  UNL     1      -2.052   1.858  25.614  1.00  0.00     0.076 A
HETATM    2  C4  UNL     1      -1.589   2.548  26.713  1.00  0.00     0.059 A
HETATM    3  C7  UNL     1      -0.483   3.328  26.323  1.00  0.00     0.118 A
HETATM    4  N7  UNL     1      -0.291   3.106  24.996  1.00  0.00    -0.344 N
HETATM    5  C16 UNL     1       0.681   3.685  24.097  1.00  0.00     0.157 C
HETATM    6  C17 UNL     1      -1.232   2.215  24.558  1.00  0.00     0.069 A
ENDROOT
BRANCH   3   7
HETATM    7  C8  UNL     1       0.293   4.221  27.160  1.00  0.00     0.270 C
HETATM    8  O2  UNL     1       1.437   3.769  27.562  1.00  0.00    -0.266 OA
HETATM    9  N4  UNL     1      -0.027   5.507  27.590  1.00  0.00    -0.336 N
ATOM     10  H4  UNL     1      -0.912   5.931  27.308  1.00  0.00     0.164 HD
BRANCH   9  11
HETATM   11  C9  UNL     1       0.906   6.262  28.451  1.00  0.00     0.246 C
BRANCH  11  12
HETATM   12  C10 UNL     1       1.132   7.608  27.912  1.00  0.00     0.154 C
HETATM   13  C11 UNL     1       2.107   7.819  26.815  1.00  0.00     0.093 C
HETATM   14  O3  UNL     1       0.533   8.555  28.353  1.00  0.00    -0.296 OA
ENDBRANCH  11  12
BRANCH  11  15
HETATM   15  C12 UNL     1       0.395   6.272  29.843  1.00  0.00     0.248 C
HETATM   16  O4  UNL     1       1.224   6.422  30.776  1.00  0.00    -0.271 OA
HETATM   17  N5  UNL     1      -0.965   6.125  30.160  1.00  0.00    -0.346 N
ATOM     18  H5  UNL     1      -1.610   6.004  29.380  1.00  0.00     0.163 HD
BRANCH  17  19
HETATM   19  C13 UNL     1      -1.537   6.128  31.483  1.00  0.00     0.169 C
HETATM   20  C14 UNL     1      -2.911   6.821  31.461  1.00  0.00     0.042 C
BRANCH  19  21
HETATM   21  C15 UNL     1      -1.726   4.793  32.049  1.00  0.00     0.253 C
HETATM   22  N6  UNL     1      -1.536   3.671  31.200  1.00  0.00    -0.060 NA
HETATM   23  O5  UNL     1      -2.049   4.562  33.244  1.00  0.00    -0.275 OA
ENDBRANCH  19  21
ENDBRANCH  17  19
ENDBRANCH  11  15
ENDBRANCH   9  11
ENDBRANCH   3   7
BRANCH   2  24
HETATM   24  C5  UNL     1      -2.168   2.516  28.041  1.00  0.00     0.125 C
HETATM   25  N2  UNL     1      -3.029   3.391  28.392  1.00  0.00    -0.284 N
HETATM   26 CL1  UNL     1      -3.580   4.661  27.374  1.00  0.00     0.012 Cl
ATOM     27  H2  UNL     1      -3.415   3.332  29.334  1.00  0.00     0.182 HD
BRANCH  24  28
HETATM   28  N3  UNL     1      -1.785   1.503  28.946  1.00  0.00    -0.379 N
HETATM   29  C6  UNL     1      -2.766   0.542  29.444  1.00  0.00     0.147 C
ATOM     30  H3  UNL     1      -0.814   1.442  29.254  1.00  0.00     0.160 HD
ENDBRANCH  24  28
ENDBRANCH   2  24
BRANCH   1  31
HETATM   31  C2  UNL     1      -3.132   0.879  25.534  1.00  0.00     0.254 C
HETATM   32  N1  UNL     1      -3.075  -0.464  25.935  1.00  0.00    -0.361 N
HETATM   33  C1  UNL     1      -4.233  -1.313  25.794  1.00  0.00     0.149 C
ATOM     34  H1  UNL     1      -2.213  -0.842  26.329  1.00  0.00     0.162 HD
HETATM   35  O1  UNL     1      -4.260   1.252  25.045  1.00  0.00    -0.268 OA
ENDBRANCH   1  31
BRANCH   6  36
HETATM   36  C18 UNL     1      -1.310   1.672  23.210  1.00  0.00     0.144 C
HETATM   37  N8  UNL     1      -1.703   2.410  22.201  1.00  0.00    -0.278 N
ATOM     38  H8  UNL     1      -1.962   3.383  22.365  1.00  0.00     0.193 HD
BRANCH  37  39
HETATM   39  O6  UNL     1      -1.772   1.904  20.936  1.00  0.00    -0.290 OA
ATOM     40  H6  UNL     1      -1.926   0.979  20.782  1.00  0.00     0.244 HD
ENDBRANCH  37  39
ENDBRANCH   6  36
TORSDOF 11
ENDMDL