MODEL 4
REMARK VINA RESULT: -8.033979849      1.459      2.103
REMARK  13 active torsions:
REMARK  status: ('A' for Active; 'I' for Inactive)
REMARK    1  A    between atoms: C2_2  and  C4_4
REMARK    2  A    between atoms: C4_4  and  N1_5
REMARK    3  A    between atoms: C4_4  and  C5_9
REMARK       I    between atoms: C5_9  and  N2_11
REMARK    4  A    between atoms: N2_11  and  C6_13
REMARK    5  A    between atoms: C6_13  and  N3_14
REMARK    6  A    between atoms: C6_13  and  C7_18
REMARK    7  A    between atoms: C7_18  and  C8_19
REMARK       I    between atoms: C8_19  and  N4_21
REMARK    8  A    between atoms: N4_21  and  C9_23
REMARK    9  A    between atoms: C11_25  and  C12_26
REMARK   10  A    between atoms: C11_25  and  C15_35
REMARK   11  A    between atoms: C12_26  and  O3_27
REMARK   12  A    between atoms: O3_27  and  C13_28
REMARK       I    between atoms: C13_28  and  N5_30
REMARK   13  A    between atoms: N5_30  and  S1_31
ROOT
HETATM    1  C8  UNL     1      -4.461   0.789  26.229  1.00  0.00     0.221 C
HETATM    2  O2  UNL     1      -4.458   0.669  27.483  1.00  0.00    -0.273 OA
HETATM    3  N4  UNL     1      -3.660   1.029  25.252  1.00  0.00    -0.350 N
ATOM      4  H4  UNL     1      -4.121   0.994  24.344  1.00  0.00     0.163 HD
ENDROOT
BRANCH   1   5
HETATM    5  C7  UNL     1      -6.031   0.480  25.941  1.00  0.00     0.157 C
BRANCH   5   6
HETATM    6  C6  UNL     1      -5.925  -0.829  25.234  1.00  0.00     0.292 C
BRANCH   6   7
HETATM    7  N2  UNL     1      -5.572  -1.936  25.982  1.00  0.00    -0.331 N
HETATM    8  C5  UNL     1      -6.320  -2.632  26.967  1.00  0.00     0.250 C
HETATM    9  O1  UNL     1      -7.455  -2.308  27.263  1.00  0.00    -0.271 OA
ATOM     10  H2  UNL     1      -4.639  -2.306  25.801  1.00  0.00     0.164 HD
BRANCH   8  11
HETATM   11  C4  UNL     1      -5.598  -3.762  27.565  1.00  0.00     0.278 C
BRANCH  11  12
HETATM   12  C2  UNL     1      -5.937  -3.980  29.023  1.00  0.00     0.017 C
HETATM   13  C1  UNL     1      -5.792  -5.383  29.540  1.00  0.00     0.012 C
HETATM   14  C3  UNL     1      -5.234  -3.016  29.938  1.00  0.00     0.012 C
ENDBRANCH  11  12
BRANCH  11  15
HETATM   15  N1  UNL     1      -5.715  -5.029  26.920  1.00  0.00    -0.066 N
ATOM     16  H13 UNL     1      -4.861  -5.316  26.441  1.00  0.00     0.275 HD
ATOM     17  H12 UNL     1      -5.764  -5.810  27.575  1.00  0.00     0.275 HD
ATOM     18  H11 UNL     1      -6.524  -4.972  26.301  1.00  0.00     0.275 HD
ENDBRANCH  11  15
ENDBRANCH   8  11
ENDBRANCH   6   7
BRANCH   6  19
HETATM   19  N3  UNL     1      -7.391  -1.043  24.782  1.00  0.00    -0.058 N
ATOM     20  H33 UNL     1      -7.684  -0.399  24.047  1.00  0.00     0.276 HD
ATOM     21  H32 UNL     1      -7.528  -1.908  24.258  1.00  0.00     0.276 HD
ATOM     22  H31 UNL     1      -7.969  -0.986  25.620  1.00  0.00     0.276 HD
ENDBRANCH   6  19
ENDBRANCH   5   6
ENDBRANCH   1   5
BRANCH   3  23
HETATM   23  C9  UNL     1      -2.258   1.337  25.157  1.00  0.00     0.159 A
HETATM   24  C10 UNL     1      -1.507   1.043  23.922  1.00  0.00     0.060 A
HETATM   25  C11 UNL     1      -1.320   2.561  23.705  1.00  0.00     0.139 A
HETATM   26  C16 UNL     1      -2.117   2.868  24.858  1.00  0.00     0.283 A
HETATM   27  F1  UNL     1      -1.320   3.397  25.895  1.00  0.00    -0.203 F
HETATM   28  F2  UNL     1      -3.288   3.530  24.823  1.00  0.00    -0.203 F
BRANCH  25  29
HETATM   29  C12 UNL     1       0.140   3.008  23.831  1.00  0.00     0.208 C
BRANCH  29  30
HETATM   30  O3  UNL     1       0.234   4.276  23.181  1.00  0.00    -0.290 OA
BRANCH  30  31
HETATM   31  C13 UNL     1       0.208   5.526  23.939  1.00  0.00     0.450 C
HETATM   32  O4  UNL     1       1.173   5.694  24.686  1.00  0.00    -0.220 OA
HETATM   33  N5  UNL     1      -0.751   6.411  23.752  1.00  0.00    -0.258 NA
BRANCH  33  34
HETATM   34  S1  UNL     1      -1.963   7.571  23.535  1.00  0.00     0.292 S
HETATM   35  C14 UNL     1      -3.453   6.908  22.795  1.00  0.00     0.202 C
HETATM   36  O5  UNL     1      -1.439   8.613  22.497  1.00  0.00    -0.192 OA
HETATM   37  O6  UNL     1      -2.270   8.393  24.753  1.00  0.00    -0.192 OA
ENDBRANCH  33  34
ENDBRANCH  30  31
ENDBRANCH  29  30
ENDBRANCH  25  29
BRANCH  25  38
HETATM   38  C15 UNL     1      -1.865   2.718  22.289  1.00  0.00     0.190 C
HETATM   39  O7  UNL     1      -1.015   2.261  21.406  1.00  0.00    -0.647 OA
HETATM   40  O8  UNL     1      -3.034   3.195  21.854  1.00  0.00    -0.647 OA
ENDBRANCH  25  38
ENDBRANCH   3  23
TORSDOF 13
ENDMDL