MODEL 3
REMARK VINA RESULT: -7.868630771      5.537      9.028
REMARK  13 active torsions:
REMARK  status: ('A' for Active; 'I' for Inactive)
REMARK    1  A    between atoms: O1_2  and  C2_3
REMARK    2  A    between atoms: C2_3  and  C3_5
REMARK    3  A    between atoms: C3_5  and  N1_6
REMARK    4  A    between atoms: C3_5  and  C6_15
REMARK       I    between atoms: N1_6  and  C4_8
REMARK       I    between atoms: C4_8  and  N2_10
REMARK    5  A    between atoms: N2_10  and  N3_12
REMARK       I    between atoms: C6_15  and  N4_17
REMARK    6  A    between atoms: N4_17  and  C7_19
REMARK    7  A    between atoms: C7_19  and  C8_20
REMARK    8  A    between atoms: C7_19  and  C11_23
REMARK    9  A    between atoms: C11_23  and  N5_25
REMARK   10  A    between atoms: N5_25  and  C12_27
REMARK   11  A    between atoms: C14_29  and  O5_30
REMARK   12  A    between atoms: C15_32  and  O6_33
REMARK   13  A    between atoms: C17_35  and  C18_36
ROOT
HETATM    1  C7  UNL     1      -6.250  -4.840  30.687  1.00  0.00     0.126 C
ENDROOT
BRANCH   1   2
HETATM    2  N4  UNL     1      -5.516  -3.559  30.432  1.00  0.00    -0.351 N
HETATM    3  C6  UNL     1      -6.124  -2.429  29.871  1.00  0.00     0.251 C
HETATM    4  O4  UNL     1      -7.337  -2.465  29.564  1.00  0.00    -0.271 OA
ATOM      5  H4  UNL     1      -4.528  -3.507  30.678  1.00  0.00     0.163 HD
BRANCH   3   6
HETATM    6  C3  UNL     1      -5.359  -1.196  29.638  1.00  0.00     0.278 C
BRANCH   6   7
HETATM    7  C2  UNL     1      -4.200  -1.070  30.572  1.00  0.00     0.290 C
HETATM    8  O2  UNL     1      -4.266  -1.415  31.784  1.00  0.00    -0.262 OA
BRANCH   7   9
HETATM    9  O1  UNL     1      -3.012  -0.562  30.110  1.00  0.00    -0.324 OA
HETATM   10  C1  UNL     1      -2.718   0.821  30.100  1.00  0.00     0.213 C
ENDBRANCH   7   9
ENDBRANCH   6   7
BRANCH   6  11
HETATM   11  N1  UNL     1      -4.827  -1.098  28.294  1.00  0.00    -0.320 N
HETATM   12  C4  UNL     1      -5.504  -0.324  27.339  1.00  0.00     0.337 C
HETATM   13  O3  UNL     1      -6.572   0.278  27.652  1.00  0.00    -0.245 OA
HETATM   14  N2  UNL     1      -5.059  -0.162  26.001  1.00  0.00    -0.254 N
HETATM   15  C5  UNL     1      -5.778   0.649  25.044  1.00  0.00     0.182 C
ATOM     16  H1  UNL     1      -3.969  -1.588  28.044  1.00  0.00     0.165 HD
BRANCH  14  17
HETATM   17  N3  UNL     1      -3.908  -0.792  25.581  1.00  0.00    -0.339 N
ATOM     18  H32 UNL     1      -3.036  -0.564  26.057  1.00  0.00     0.177 HD
ATOM     19  H31 UNL     1      -3.948  -1.462  24.812  1.00  0.00     0.177 HD
ENDBRANCH  14  17
ENDBRANCH   6  11
ENDBRANCH   3   6
ENDBRANCH   1   2
BRANCH   1  20
HETATM   20  C8  UNL     1      -5.577  -5.890  29.878  1.00  0.00     0.012 A
HETATM   21  C9  UNL     1      -5.837  -6.113  28.417  1.00  0.00     0.007 A
HETATM   22  C10 UNL     1      -6.079  -7.193  29.502  1.00  0.00     0.007 A
ENDBRANCH   1  20
BRANCH   1  23
HETATM   23  C11 UNL     1      -6.219  -4.979  32.170  1.00  0.00     0.202 C
HETATM   24 CL1  UNL     1      -7.635  -6.013  32.622  1.00  0.00    -0.100 Cl
BRANCH  23  25
HETATM   25  N5  UNL     1      -6.062  -3.875  32.965  1.00  0.00    -0.376 N
ATOM     26  H5  UNL     1      -6.189  -2.975  32.501  1.00  0.00     0.160 HD
BRANCH  25  27
HETATM   27  C12 UNL     1      -5.756  -3.814  34.303  1.00  0.00     0.001 C
HETATM   28  C13 UNL     1      -6.716  -2.962  35.134  1.00  0.00     0.087 C
HETATM   29  C14 UNL     1      -7.306  -3.919  36.136  1.00  0.00     0.153 C
HETATM   30  C15 UNL     1      -6.155  -4.843  36.460  1.00  0.00     0.168 C
HETATM   31  C17 UNL     1      -5.428  -5.013  35.108  1.00  0.00     0.151 C
BRANCH  29  32
HETATM   32  O5  UNL     1      -7.599  -3.197  37.308  1.00  0.00    -0.393 OA
ATOM     33  H5  UNL     1      -6.778  -2.904  37.687  1.00  0.00     0.210 HD
ENDBRANCH  29  32
BRANCH  30  34
HETATM   34  O6  UNL     1      -6.678  -6.051  36.888  1.00  0.00    -0.387 OA
HETATM   35  C16 UNL     1      -7.828  -6.401  36.178  1.00  0.00     0.202 C
ENDBRANCH  30  34
BRANCH  31  36
HETATM   36  C18 UNL     1      -3.961  -5.122  35.380  1.00  0.00     0.243 C
HETATM   37  N6  UNL     1      -3.093  -4.037  35.132  1.00  0.00    -0.061 NA
HETATM   38  O7  UNL     1      -3.508  -6.188  35.833  1.00  0.00    -0.276 OA
ENDBRANCH  31  36
ENDBRANCH  25  27
ENDBRANCH  23  25
ENDBRANCH   1  23
TORSDOF 13
ENDMDL