MODEL 4
REMARK VINA RESULT: -6.857878080      1.511      3.437
REMARK  15 active torsions:
REMARK  status: ('A' for Active; 'I' for Inactive)
REMARK    1  A    between atoms: C2_2  and  C3_3
REMARK    2  A    between atoms: C3_3  and  C4_4
REMARK    3  A    between atoms: C4_4  and  N1_5
REMARK    4  A    between atoms: C4_4  and  C28_36
REMARK       I    between atoms: N1_5  and  C5_7
REMARK    5  A    between atoms: C5_7  and  C6_9
REMARK    6  A    between atoms: C6_9  and  C7_10
REMARK    7  A    between atoms: C6_9  and  N2_14
REMARK    8  A    between atoms: C7_10  and  C8_11
REMARK       I    between atoms: N2_14  and  C11_15
REMARK    9  A    between atoms: N2_14  and  C14_20
REMARK   10  A    between atoms: C11_15  and  O3_17
REMARK   11  A    between atoms: O3_17  and  C12_18
REMARK   12  A    between atoms: C14_20  and  C15_21
REMARK   13  A    between atoms: C15_21  and  O5_23
REMARK   14  A    between atoms: O5_23  and  C16_24
REMARK       I    between atoms: C28_36  and  N3_38
REMARK   15  A    between atoms: N3_38  and  C29_40
ROOT
HETATM    1  C6  UNL     1      23.097  25.843  17.891  1.00  0.00     0.183 C
ENDROOT
BRANCH   1   2
HETATM    2  C5  UNL     1      21.710  26.149  17.479  1.00  0.00     0.241 C
HETATM    3  N1  UNL     1      21.064  25.647  16.343  1.00  0.00    -0.346 N
ATOM      4  H1  UNL     1      21.583  25.013  15.735  1.00  0.00     0.163 HD
HETATM    5  O1  UNL     1      21.010  26.919  18.189  1.00  0.00    -0.271 OA
BRANCH   3   6
HETATM    6  C4  UNL     1      19.694  25.977  15.979  1.00  0.00     0.177 C
BRANCH   6   7
HETATM    7  C3  UNL     1      19.685  26.902  14.792  1.00  0.00     0.034 C
BRANCH   7   8
HETATM    8  C2  UNL     1      20.979  26.873  14.016  1.00  0.00    -0.002 C
HETATM    9  C1  UNL     1      21.360  28.305  13.705  1.00  0.00     0.005 C
ENDBRANCH   7   8
ENDBRANCH   6   7
BRANCH   6  10
HETATM   10  C28 UNL     1      18.899  24.775  15.642  1.00  0.00     0.258 C
HETATM   11  O6  UNL     1      19.446  23.654  15.423  1.00  0.00    -0.270 OA
HETATM   12  N3  UNL     1      17.483  24.806  15.543  1.00  0.00    -0.155 N
ATOM     13  H3  UNL     1      17.070  24.761  14.612  1.00  0.00     0.187 HD
BRANCH  12  14
HETATM   14  C29 UNL     1      16.687  24.886  16.550  1.00  0.00     0.716 A
HETATM   15  N4  UNL     1      16.864  25.779  17.534  1.00  0.00    -0.115 N
HETATM   16  N5  UNL     1      15.897  25.620  18.418  1.00  0.00    -0.213 N
ATOM     17  H4  UNL     1      17.618  26.464  17.589  1.00  0.00     0.207 HD
HETATM   18  N6  UNL     1      15.122  24.641  17.996  1.00  0.00    -0.213 N
ATOM     19  H5  UNL     1      15.773  26.159  19.274  1.00  0.00     0.210 HD
HETATM   20  N7  UNL     1      15.595  24.181  16.851  1.00  0.00    -0.115 N
ATOM     21  H6  UNL     1      14.290  24.295  18.476  1.00  0.00     0.210 HD
ATOM     22  H7  UNL     1      15.197  23.422  16.297  1.00  0.00     0.207 HD
ENDBRANCH  12  14
ENDBRANCH   6  10
ENDBRANCH   3   6
ENDBRANCH   1   2
BRANCH   1  23
HETATM   23  C7  UNL     1      24.019  26.904  17.533  1.00  0.00     0.039 C
BRANCH  23  24
HETATM   24  C8  UNL     1      24.100  27.245  16.059  1.00  0.00    -0.020 C
HETATM   25  C9  UNL     1      23.994  28.807  15.991  1.00  0.00     0.009 C
HETATM   26  C10 UNL     1      25.484  26.925  15.577  1.00  0.00     0.009 C
ENDBRANCH  23  24
ENDBRANCH   1  23
BRANCH   1  27
HETATM   27  N2  UNL     1      23.143  25.320  19.279  1.00  0.00    -0.295 N
HETATM   28  C11 UNL     1      22.178  24.321  19.482  1.00  0.00     0.364 C
HETATM   29  O2  UNL     1      21.929  23.661  20.512  1.00  0.00    -0.238 OA
BRANCH  28  30
HETATM   30  O3  UNL     1      21.267  23.865  18.486  1.00  0.00    -0.304 OA
BRANCH  30  31
HETATM   31  C12 UNL     1      20.193  23.021  18.707  1.00  0.00     0.176 C
HETATM   32  C13 UNL     1      19.058  23.869  19.253  1.00  0.00     0.034 C
ENDBRANCH  30  31
ENDBRANCH  28  30
BRANCH  27  33
HETATM   33  C14 UNL     1      24.153  25.638  20.230  1.00  0.00     0.135 C
HETATM   34  C18 UNL     1      24.491  24.629  21.268  1.00  0.00     0.049 C
HETATM   35  C19 UNL     1      26.021  24.494  21.055  1.00  0.00     0.006 C
HETATM   36  C20 UNL     1      26.416  25.907  21.134  1.00  0.00    -0.032 C
HETATM   37  C25 UNL     1      26.116  24.584  19.560  1.00  0.00    -0.032 C
HETATM   38  C21 UNL     1      27.899  25.936  21.028  1.00  0.00     0.016 C
HETATM   39  C22 UNL     1      26.034  26.811  22.235  1.00  0.00     0.016 C
HETATM   40  C23 UNL     1      25.546  25.900  19.835  1.00  0.00     0.006 C
HETATM   41  C24 UNL     1      25.978  27.101  19.085  1.00  0.00     0.020 C
HETATM   42  C26 UNL     1      25.604  23.289  19.150  1.00  0.00     0.016 C
HETATM   43  C27 UNL     1      27.340  24.750  18.733  1.00  0.00     0.016 C
BRANCH  33  44
HETATM   44  C15 UNL     1      23.466  26.780  20.951  1.00  0.00     0.288 C
HETATM   45  O4  UNL     1      23.205  27.892  20.458  1.00  0.00    -0.262 OA
BRANCH  44  46
HETATM   46  O5  UNL     1      23.049  26.660  22.286  1.00  0.00    -0.320 OA
BRANCH  46  47
HETATM   47  C16 UNL     1      21.912  27.321  22.803  1.00  0.00     0.174 C
HETATM   48  C17 UNL     1      22.087  27.413  24.297  1.00  0.00     0.034 C
ENDBRANCH  46  47
ENDBRANCH  44  46
ENDBRANCH  33  44
ENDBRANCH  27  33
ENDBRANCH   1  27
TORSDOF 15
ENDMDL