MODEL 2
REMARK VINA RESULT: -7.751590479      2.492     11.421
REMARK  20 active torsions:
REMARK  status: ('A' for Active; 'I' for Inactive)
REMARK    1  A    between atoms: C2_2  and  C3_3
REMARK    2  A    between atoms: C3_3  and  C4_4
REMARK    3  A    between atoms: C4_4  and  C5_5
REMARK    4  A    between atoms: C5_5  and  O1_6
REMARK    5  A    between atoms: O1_6  and  C6_7
REMARK       I    between atoms: C6_7  and  N1_9
REMARK    6  A    between atoms: N2_12  and  C9_13
REMARK    7  A    between atoms: C9_13  and  O3_14
REMARK    8  A    between atoms: C9_13  and  C10_16
REMARK    9  A    between atoms: C10_16  and  C11_17
REMARK   10  A    between atoms: C10_16  and  N3_23
REMARK   11  A    between atoms: C11_17  and  C12_18
REMARK   12  A    between atoms: C12_18  and  C13_19
REMARK   13  A    between atoms: C13_19  and  O5_21
REMARK       I    between atoms: N3_23  and  C15_25
REMARK   14  A    between atoms: C15_25  and  C16_27
REMARK   15  A    between atoms: C16_27  and  N4_28
REMARK   16  A    between atoms: C16_27  and  C26_41
REMARK       I    between atoms: N4_28  and  C17_30
REMARK   17  A    between atoms: C17_30  and  O8_32
REMARK   18  A    between atoms: O8_32  and  C18_33
REMARK   19  A    between atoms: C18_33  and  C21_36
REMARK   20  A    between atoms: C22_37  and  C23_38
ROOT
HETATM    1  C10 UNL     1      14.790  22.114  17.389  1.00  0.00     0.063 C
ENDROOT
BRANCH   1   2
HETATM    2  C9  UNL     1      15.280  23.321  16.749  1.00  0.00     0.161 C
BRANCH   2   3
HETATM    3  N2  UNL     1      16.538  23.814  16.417  1.00  0.00    -0.357 N
HETATM    4  C8  UNL     1      17.404  23.427  15.340  1.00  0.00     0.145 C
HETATM    5  C7  UNL     1      18.853  23.655  15.782  1.00  0.00     0.148 C
HETATM    6  N1  UNL     1      18.980  25.118  15.872  1.00  0.00    -0.325 N
HETATM    7  C6  UNL     1      20.148  25.713  15.381  1.00  0.00     0.362 C
HETATM    8  C30 UNL     1      17.898  25.879  16.462  1.00  0.00     0.148 C
HETATM    9  O2  UNL     1      21.078  25.040  14.870  1.00  0.00    -0.238 OA
HETATM   10  C29 UNL     1      17.081  24.903  17.283  1.00  0.00     0.145 C
BRANCH   7  11
HETATM   11  O1  UNL     1      20.251  27.114  15.476  1.00  0.00    -0.304 OA
BRANCH  11  12
HETATM   12  C5  UNL     1      20.143  27.839  14.261  1.00  0.00     0.180 C
BRANCH  12  13
HETATM   13  C4  UNL     1      21.445  28.483  13.975  1.00  0.00     0.027 C
BRANCH  13  14
HETATM   14  C3  UNL     1      22.324  28.834  15.107  1.00  0.00     0.002 C
BRANCH  14  15
HETATM   15  C2  UNL     1      23.731  28.364  15.084  1.00  0.00    -0.004 C
HETATM   16  C1  UNL     1      24.013  26.967  15.476  1.00  0.00     0.005 C
ENDBRANCH  14  15
ENDBRANCH  13  14
ENDBRANCH  12  13
ENDBRANCH  11  12
ENDBRANCH   7  11
ENDBRANCH   2   3
BRANCH   2  17
HETATM   17  O3  UNL     1      14.308  24.168  16.396  1.00  0.00    -0.345 OA
ATOM     18  H3  UNL     1      13.582  23.718  15.980  1.00  0.00     0.219 HD
ENDBRANCH   2  17
ENDBRANCH   1   2
BRANCH   1  19
HETATM   19  C11 UNL     1      14.881  21.804  18.802  1.00  0.00     0.071 C
BRANCH  19  20
HETATM   20  C12 UNL     1      16.035  21.045  19.357  1.00  0.00     0.117 C
BRANCH  20  21
HETATM   21  C13 UNL     1      17.372  21.557  18.945  1.00  0.00     0.258 C
HETATM   22  O4  UNL     1      17.990  21.026  18.014  1.00  0.00    -0.265 OA
BRANCH  21  23
HETATM   23  O5  UNL     1      17.942  22.636  19.603  1.00  0.00    -0.326 OA
HETATM   24  C14 UNL     1      19.342  22.896  19.529  1.00  0.00     0.213 C
ENDBRANCH  21  23
ENDBRANCH  20  21
ENDBRANCH  19  20
ENDBRANCH   1  19
BRANCH   1  25
HETATM   25  N3  UNL     1      13.443  21.762  16.851  1.00  0.00    -0.325 N
HETATM   26  C15 UNL     1      13.280  20.849  15.815  1.00  0.00     0.245 C
HETATM   27  O6  UNL     1      14.371  20.338  15.346  1.00  0.00    -0.271 OA
ATOM     28  H3  UNL     1      12.617  22.203  17.256  1.00  0.00     0.169 HD
BRANCH  26  29
HETATM   29  C16 UNL     1      12.044  20.417  15.210  1.00  0.00     0.182 C
BRANCH  29  30
HETATM   30  N4  UNL     1      11.992  18.958  15.020  1.00  0.00    -0.323 N
HETATM   31  C17 UNL     1      10.797  18.218  15.173  1.00  0.00     0.362 C
HETATM   32  O7  UNL     1       9.699  18.725  15.478  1.00  0.00    -0.238 OA
ATOM     33  H4  UNL     1      12.848  18.464  14.770  1.00  0.00     0.165 HD
BRANCH  31  34
HETATM   34  O8  UNL     1      10.830  16.848  14.977  1.00  0.00    -0.280 OA
BRANCH  34  35
HETATM   35  C18 UNL     1      10.747  15.892  15.987  1.00  0.00     0.128 C
HETATM   36  C19 UNL     1      11.287  14.581  15.447  1.00  0.00     0.061 C
HETATM   37  C20 UNL     1       9.279  15.666  16.287  1.00  0.00     0.061 C
BRANCH  35  38
HETATM   38  C21 UNL     1      11.483  16.325  17.172  1.00  0.00    -0.068 C
HETATM   39  C22 UNL     1      12.101  16.689  18.132  1.00  0.00    -0.099 C
BRANCH  39  40
HETATM   40  C23 UNL     1      12.855  17.150  19.281  1.00  0.00     0.057 C
HETATM   41  C24 UNL     1      12.029  18.025  20.201  1.00  0.00     0.023 C
HETATM   42  C25 UNL     1      14.034  17.945  18.779  1.00  0.00     0.023 C
ENDBRANCH  39  40
ENDBRANCH  35  38
ENDBRANCH  34  35
ENDBRANCH  31  34
ENDBRANCH  29  30
BRANCH  29  43
HETATM   43  C26 UNL     1      11.540  21.072  13.988  1.00  0.00     0.009 C
HETATM   44  C27 UNL     1      10.146  21.618  14.187  1.00  0.00     0.012 C
HETATM   45  C28 UNL     1      12.426  22.248  13.597  1.00  0.00     0.012 C
ENDBRANCH  29  43
ENDBRANCH  26  29
ENDBRANCH   1  25
TORSDOF 20
ENDMDL