MODEL 1
REMARK VINA RESULT: -8.363104169      0.000      0.000
REMARK  18 active torsions:
REMARK  status: ('A' for Active; 'I' for Inactive)
REMARK    1  A    between atoms: C2_2  and  C3_3
REMARK    2  A    between atoms: C3_3  and  C4_4
REMARK    3  A    between atoms: C7_11  and  C8_12
REMARK    4  A    between atoms: C8_12  and  O1_13
REMARK    5  A    between atoms: C8_12  and  N3_15
REMARK    6  A    between atoms: C11_18  and  C12_19
REMARK    7  A    between atoms: C12_19  and  N4_20
REMARK    8  A    between atoms: C13_23  and  C14_24
REMARK    9  A    between atoms: C14_24  and  C15_25
REMARK   10  A    between atoms: C15_25  and  O2_26
REMARK   11  A    between atoms: C15_25  and  N6_28
REMARK   12  A    between atoms: N6_28  and  C16_29
REMARK   13  A    between atoms: C16_29  and  C17_30
REMARK   14  A    between atoms: C16_29  and  C20_35
REMARK   15  A    between atoms: C17_30  and  C18_31
REMARK   16  A    between atoms: C18_31  and  C19_32
REMARK   17  A    between atoms: C20_35  and  O5_37
REMARK   18  A    between atoms: O5_37  and  C21_38
ROOT
HETATM    1  N4  UNL     1      12.671  19.958  17.981  1.00  0.00    -0.291 N
HETATM    2  N5  UNL     1      11.926  20.559  17.093  1.00  0.00    -0.301 N
ATOM      3  H5  UNL     1      12.082  21.509  16.757  1.00  0.00     0.187 HD
HETATM    4  C13 UNL     1      10.921  19.756  16.680  1.00  0.00     0.047 A
HETATM    5  C23 UNL     1      11.091  18.582  17.386  1.00  0.00     0.017 A
HETATM    6  C24 UNL     1      10.355  17.421  17.358  1.00  0.00     0.022 A
HETATM    7  C25 UNL     1      10.735  16.392  18.158  1.00  0.00    -0.061 A
HETATM    8  C26 UNL     1       9.938  15.124  18.133  1.00  0.00     0.048 C
HETATM    9  C27 UNL     1      11.835  16.499  18.985  1.00  0.00     0.009 A
HETATM   10  C28 UNL     1      12.594  17.670  19.027  1.00  0.00     0.033 A
HETATM   11  C29 UNL     1      12.187  18.700  18.205  1.00  0.00     0.063 A
ENDROOT
BRANCH   1  12
HETATM   12  C12 UNL     1      13.821  20.470  18.679  1.00  0.00     0.154 C
BRANCH  12  13
HETATM   13  C11 UNL     1      14.851  21.134  17.816  1.00  0.00     0.009 C
HETATM   14  C10 UNL     1      15.978  20.197  17.477  1.00  0.00     0.026 C
HETATM   15  C9  UNL     1      17.286  20.916  17.146  1.00  0.00     0.125 C
HETATM   16  N3  UNL     1      17.684  21.788  18.219  1.00  0.00    -0.360 N
HETATM   17  C31 UNL     1      16.635  21.933  19.267  1.00  0.00     0.125 C
HETATM   18  C30 UNL     1      15.397  22.370  18.474  1.00  0.00     0.026 C
BRANCH  16  19
HETATM   19  C8  UNL     1      18.878  22.480  18.368  1.00  0.00     0.167 C
BRANCH  19  20
HETATM   20  C7  UNL     1      19.232  23.824  17.936  1.00  0.00     0.107 A
HETATM   21  C4  UNL     1      19.731  24.847  18.705  1.00  0.00     0.042 A
HETATM   22  N1  UNL     1      19.934  25.900  17.888  1.00  0.00    -0.348 N
HETATM   23  C5  UNL     1      19.595  25.613  16.645  1.00  0.00     0.077 A
ATOM     24  H1  UNL     1      20.302  26.801  18.191  1.00  0.00     0.167 HD
HETATM   25  C6  UNL     1      19.675  26.503  15.459  1.00  0.00     0.089 C
HETATM   26  N2  UNL     1      19.157  24.319  16.676  1.00  0.00    -0.341 N
ATOM     27  H2  UNL     1      18.822  23.799  15.865  1.00  0.00     0.167 HD
BRANCH  21  28
HETATM   28  C3  UNL     1      19.979  24.874  20.151  1.00  0.00     0.059 C
BRANCH  28  29
HETATM   29  C2  UNL     1      21.405  25.163  20.541  1.00  0.00     0.002 C
HETATM   30  C1  UNL     1      22.334  24.050  20.063  1.00  0.00     0.005 C
ENDBRANCH  28  29
ENDBRANCH  21  28
ENDBRANCH  19  20
BRANCH  19  31
HETATM   31  O1  UNL     1      19.807  21.812  18.989  1.00  0.00    -0.344 OA
ATOM     32  H1  UNL     1      20.151  21.051  18.536  1.00  0.00     0.219 HD
ENDBRANCH  19  31
ENDBRANCH  16  19
ENDBRANCH  12  13
ENDBRANCH   1  12
BRANCH   4  33
HETATM   33  C14 UNL     1       9.937  20.165  15.708  1.00  0.00     0.159 C
BRANCH  33  34
HETATM   34  C15 UNL     1      10.344  21.135  14.681  1.00  0.00     0.195 C
BRANCH  34  35
HETATM   35  O2  UNL     1       9.393  21.957  14.338  1.00  0.00    -0.339 OA
ATOM     36  H2  UNL     1       9.191  21.935  13.409  1.00  0.00     0.220 HD
ENDBRANCH  34  35
BRANCH  34  37
HETATM   37  N6  UNL     1      11.518  21.222  14.126  1.00  0.00    -0.383 NA
BRANCH  37  38
HETATM   38  C16 UNL     1      12.578  21.305  13.628  1.00  0.00     0.162 C
BRANCH  38  39
HETATM   39  C17 UNL     1      13.346  22.587  13.519  1.00  0.00     0.088 C
BRANCH  39  40
HETATM   40  C18 UNL     1      14.124  22.865  14.731  1.00  0.00     0.107 C
BRANCH  40  41
HETATM   41  C19 UNL     1      15.570  22.979  14.657  1.00  0.00     0.231 C
HETATM   42  N7  UNL     1      16.288  23.990  15.399  1.00  0.00    -0.062 NA
HETATM   43  O3  UNL     1      16.260  22.213  13.956  1.00  0.00    -0.277 OA
ENDBRANCH  40  41
ENDBRANCH  39  40
ENDBRANCH  38  39
BRANCH  38  44
HETATM   44  C20 UNL     1      13.235  20.075  13.077  1.00  0.00     0.320 C
HETATM   45  O4  UNL     1      14.404  19.761  13.350  1.00  0.00    -0.257 OA
BRANCH  44  46
HETATM   46  O5  UNL     1      12.535  19.261  12.249  1.00  0.00    -0.316 OA
BRANCH  46  47
HETATM   47  C21 UNL     1      12.249  17.910  12.436  1.00  0.00     0.175 C
HETATM   48  C22 UNL     1      11.297  17.556  13.511  1.00  0.00     0.034 C
ENDBRANCH  46  47
ENDBRANCH  44  46
ENDBRANCH  38  44
ENDBRANCH  37  38
ENDBRANCH  34  37
ENDBRANCH  33  34
ENDBRANCH   4  33
TORSDOF 18
ENDMDL