MODEL 5
REMARK VINA RESULT: -9.406458712      3.317     10.479
REMARK  12 active torsions:
REMARK  status: ('A' for Active; 'I' for Inactive)
REMARK    1  A    between atoms: O1_2  and  C2_3
REMARK    2  A    between atoms: C4_5  and  N1_6
REMARK    3  A    between atoms: N2_9  and  C7_10
REMARK    4  A    between atoms: C15_19  and  N3_20
REMARK    5  A    between atoms: N4_23  and  C18_24
REMARK    6  A    between atoms: C18_24  and  C19_25
REMARK    7  A    between atoms: C19_25  and  C20_26
REMARK    8  A    between atoms: C20_26  and  C21_27
REMARK       I    between atoms: N7_33  and  C23_35
REMARK    9  A    between atoms: C23_35  and  C24_37
REMARK   10  A    between atoms: C24_37  and  C25_38
REMARK   11  A    between atoms: C25_38  and  C26_39
REMARK   12  A    between atoms: C26_39  and  C27_40
ROOT
HETATM    1  N3  UNL     1      15.308  20.520  18.877  1.00  0.00    -0.375 N
HETATM    2  C16 UNL     1      14.911  19.709  17.747  1.00  0.00     0.153 C
HETATM    3  C17 UNL     1      14.649  18.262  18.099  1.00  0.00     0.292 C
HETATM    4  N4  UNL     1      13.847  18.157  19.256  1.00  0.00     0.091 N
HETATM    5  C28 UNL     1      13.366  19.436  19.673  1.00  0.00     0.292 C
HETATM    6  C29 UNL     1      14.607  20.231  20.119  1.00  0.00     0.153 C
ENDROOT
BRANCH   4   7
HETATM    7  C18 UNL     1      12.799  17.157  19.220  1.00  0.00     0.273 C
BRANCH   7   8
HETATM    8  C19 UNL     1      12.429  16.835  17.815  1.00  0.00     0.037 C
BRANCH   8   9
HETATM    9  C20 UNL     1      11.070  17.217  17.378  1.00  0.00     0.068 C
BRANCH   9  10
HETATM   10  C21 UNL     1      11.019  18.594  16.832  1.00  0.00     0.070 A
HETATM   11  N5  UNL     1      10.332  19.676  17.127  1.00  0.00    -0.296 N
HETATM   12  N6  UNL     1      10.500  20.760  16.491  1.00  0.00    -0.279 N
ATOM     13  H5  UNL     1       9.648  19.643  17.883  1.00  0.00     0.187 HD
HETATM   14  C22 UNL     1      11.400  20.789  15.501  1.00  0.00     0.167 A
ATOM     15  H6  UNL     1       9.961  21.593  16.729  1.00  0.00     0.189 HD
HETATM   16  N7  UNL     1      11.719  21.800  14.730  1.00  0.00    -0.306 N
HETATM   17  S1  UNL     1      11.992  19.187  15.524  1.00  0.00    -0.038 SA
HETATM   18  C23 UNL     1      12.738  21.490  13.752  1.00  0.00     0.223 C
ATOM     19  H7  UNL     1      11.287  22.720  14.813  1.00  0.00     0.171 HD
HETATM   20  O3  UNL     1      12.803  20.332  13.275  1.00  0.00    -0.273 OA
BRANCH  18  21
HETATM   21  C24 UNL     1      13.699  22.508  13.306  1.00  0.00     0.103 C
BRANCH  21  22
HETATM   22  C25 UNL     1      15.129  22.067  13.300  1.00  0.00     0.020 C
BRANCH  22  23
HETATM   23  C26 UNL     1      15.699  21.711  14.632  1.00  0.00     0.113 C
BRANCH  23  24
HETATM   24  C27 UNL     1      16.990  22.424  14.918  1.00  0.00     0.172 C
HETATM   25  O4  UNL     1      17.938  21.746  15.405  1.00  0.00    -0.648 OA
HETATM   26  O5  UNL     1      17.192  23.757  14.679  1.00  0.00    -0.648 OA
ENDBRANCH  23  24
ENDBRANCH  22  23
ENDBRANCH  21  22
ENDBRANCH  18  21
ENDBRANCH   9  10
ENDBRANCH   8   9
ENDBRANCH   7   8
ENDBRANCH   4   7
BRANCH   1  27
HETATM   27  C15 UNL     1      16.289  21.534  18.744  1.00  0.00     0.064 A
HETATM   28  C2  UNL     1      15.942  22.841  18.391  1.00  0.00     0.096 A
HETATM   29  C3  UNL     1      16.905  23.814  18.225  1.00  0.00     0.069 A
HETATM   30  C4  UNL     1      18.235  23.571  18.395  1.00  0.00     0.041 A
HETATM   31  C13 UNL     1      18.591  22.275  18.747  1.00  0.00     0.032 A
HETATM   32  C14 UNL     1      17.631  21.288  18.916  1.00  0.00     0.034 A
BRANCH  28  33
HETATM   33  O1  UNL     1      14.633  23.179  18.200  1.00  0.00    -0.354 OA
HETATM   34  C1  UNL     1      14.225  23.789  16.995  1.00  0.00     0.210 C
ENDBRANCH  28  33
BRANCH  30  35
HETATM   35  N1  UNL     1      19.236  24.560  18.216  1.00  0.00    -0.298 N
HETATM   36  C5  UNL     1      20.484  24.652  18.892  1.00  0.00     0.154 C
HETATM   37  C6  UNL     1      21.302  25.705  18.199  1.00  0.00     0.148 C
HETATM   38  N2  UNL     1      20.494  26.142  17.094  1.00  0.00    -0.328 N
HETATM   39  C12 UNL     1      19.179  25.661  17.320  1.00  0.00     0.325 C
HETATM   40  O2  UNL     1      18.092  26.111  16.821  1.00  0.00    -0.247 OA
BRANCH  38  41
HETATM   41  C7  UNL     1      20.862  26.932  15.920  1.00  0.00     0.089 C
HETATM   42  C8  UNL     1      21.815  28.006  16.343  1.00  0.00     0.025 C
HETATM   43  C9  UNL     1      23.180  27.400  16.167  1.00  0.00     0.002 C
HETATM   44  C10 UNL     1      23.023  26.600  14.878  1.00  0.00     0.002 C
HETATM   45  C11 UNL     1      21.600  26.124  14.911  1.00  0.00     0.025 C
ENDBRANCH  38  41
ENDBRANCH  30  35
ENDBRANCH   1  27
TORSDOF 12
ENDMDL