MODEL 2
REMARK VINA RESULT: -6.334372510      0.972      1.142
REMARK  17 active torsions:
REMARK  status: ('A' for Active; 'I' for Inactive)
REMARK    1  A    between atoms: O1_2  and  C2_3
REMARK    2  A    between atoms: C2_3  and  C3_5
REMARK    3  A    between atoms: C3_5  and  C4_6
REMARK    4  A    between atoms: C4_6  and  C5_7
REMARK    5  A    between atoms: C5_7  and  C6_8
REMARK    6  A    between atoms: C6_8  and  C7_9
REMARK    7  A    between atoms: C7_9  and  N1_10
REMARK    8  A    between atoms: C9_12  and  O3_13
REMARK    9  A    between atoms: O3_13  and  C10_14
REMARK   10  A    between atoms: C10_14  and  C11_15
REMARK   11  A    between atoms: C18_25  and  C19_26
REMARK   12  A    between atoms: C19_26  and  C20_27
REMARK   13  A    between atoms: C20_27  and  C21_28
REMARK   14  A    between atoms: C21_28  and  C22_29
REMARK   15  A    between atoms: C22_29  and  C23_30
REMARK   16  A    between atoms: C23_30  and  C24_31
REMARK   17  A    between atoms: C27_36  and  C28_37
ROOT
HETATM    1  N1  UNL     1      12.503  17.757  13.568  1.00  0.00     0.096 N
HETATM    2  C8  UNL     1      11.437  17.101  14.315  1.00  0.00     0.305 C
HETATM    3  C9  UNL     1      10.864  18.137  15.261  1.00  0.00     0.161 C
HETATM    4  C12 UNL     1      11.157  19.417  14.577  1.00  0.00     0.027 C
HETATM    5  C13 UNL     1       9.870  19.987  13.898  1.00  0.00     0.015 C
HETATM    6  C14 UNL     1      10.523  21.272  13.353  1.00  0.00     0.008 C
HETATM    7  C15 UNL     1      11.574  21.676  14.323  1.00  0.00     0.016 C
HETATM    8  C16 UNL     1      11.431  20.589  15.415  1.00  0.00     0.045 C
HETATM    9  C17 UNL     1      12.729  20.723  16.064  1.00  0.00    -0.003 A
HETATM   10  S1  UNL     1      13.573  20.502  17.523  1.00  0.00    -0.085 SA
HETATM   11  C18 UNL     1      15.115  21.073  17.054  1.00  0.00     0.059 A
HETATM   12  C25 UNL     1      14.921  21.426  15.747  1.00  0.00     0.037 A
HETATM   13  C26 UNL     1      13.676  21.240  15.238  1.00  0.00    -0.026 A
HETATM   14  C27 UNL     1      12.980  21.432  13.920  1.00  0.00     0.054 C
HETATM   15  C30 UNL     1      13.181  20.104  13.220  1.00  0.00     0.059 C
HETATM   16  C31 UNL     1      12.063  19.149  13.417  1.00  0.00     0.236 C
ENDROOT
BRANCH   1  17
HETATM   17  C7  UNL     1      12.483  17.073  12.261  1.00  0.00     0.273 C
BRANCH  17  18
HETATM   18  C6  UNL     1      11.094  16.895  11.752  1.00  0.00     0.030 C
BRANCH  18  19
HETATM   19  C5  UNL     1      11.162  17.017  10.236  1.00  0.00     0.002 C
BRANCH  19  20
HETATM   20  C4  UNL     1      10.682  18.332   9.730  1.00  0.00     0.010 C
BRANCH  20  21
HETATM   21  C3  UNL     1       9.228  18.434   9.436  1.00  0.00     0.111 C
BRANCH  21  22
HETATM   22  C2  UNL     1       8.386  18.887  10.557  1.00  0.00     0.258 C
HETATM   23  O2  UNL     1       7.836  18.063  11.320  1.00  0.00    -0.265 OA
BRANCH  22  24
HETATM   24  O1  UNL     1       8.180  20.238  10.796  1.00  0.00    -0.326 OA
HETATM   25  C1  UNL     1       7.793  21.145   9.786  1.00  0.00     0.213 C
ENDBRANCH  22  24
ENDBRANCH  21  22
ENDBRANCH  20  21
ENDBRANCH  19  20
ENDBRANCH  18  19
ENDBRANCH  17  18
ENDBRANCH   1  17
BRANCH   3  26
HETATM   26  O3  UNL     1      11.512  17.935  16.476  1.00  0.00    -0.374 OA
BRANCH  26  27
HETATM   27  C10 UNL     1      10.519  17.822  17.442  1.00  0.00     0.267 C
BRANCH  27  28
HETATM   28  C11 UNL     1      11.014  17.536  18.794  1.00  0.00     0.254 C
HETATM   29  N2  UNL     1      11.069  18.581  19.779  1.00  0.00    -0.060 NA
HETATM   30  O4  UNL     1      11.388  16.392  19.094  1.00  0.00    -0.275 OA
ENDBRANCH  27  28
ENDBRANCH  26  27
ENDBRANCH   3  26
BRANCH  14  31
HETATM   31  C28 UNL     1      13.580  22.546  13.151  1.00  0.00     0.136 C
HETATM   32  C29 UNL     1      14.677  22.384  12.181  1.00  0.00     0.092 C
HETATM   33  O7  UNL     1      13.131  23.661  13.340  1.00  0.00    -0.297 OA
ENDBRANCH  14  31
BRANCH  11  34
HETATM   34  C19 UNL     1      16.344  21.173  17.836  1.00  0.00    -0.059 C
BRANCH  34  35
HETATM   35  C20 UNL     1      17.347  21.267  18.497  1.00  0.00    -0.101 C
BRANCH  35  36
HETATM   36  C21 UNL     1      18.553  21.394  19.319  1.00  0.00     0.095 C
BRANCH  36  37
HETATM   37  C22 UNL     1      19.372  22.614  18.883  1.00  0.00     0.022 C
BRANCH  37  38
HETATM   38  C23 UNL     1      19.314  23.650  19.987  1.00  0.00     0.114 C
BRANCH  38  39
HETATM   39  C24 UNL     1      20.215  24.779  19.749  1.00  0.00     0.172 C
HETATM   40  O5  UNL     1      20.740  25.024  18.628  1.00  0.00    -0.648 OA
HETATM   41  O6  UNL     1      20.522  25.635  20.794  1.00  0.00    -0.648 OA
ENDBRANCH  38  39
ENDBRANCH  37  38
ENDBRANCH  36  37
ENDBRANCH  35  36
ENDBRANCH  34  35
ENDBRANCH  11  34
TORSDOF 17
ENDMDL