MODEL 1
REMARK VINA RESULT: -8.491527054      0.000      0.000
REMARK  14 active torsions:
REMARK  status: ('A' for Active; 'I' for Inactive)
REMARK    1  A    between atoms: C2_2  and  C3_3
REMARK    2  A    between atoms: C3_3  and  N1_4
REMARK       I    between atoms: N1_4  and  C4_6
REMARK    3  A    between atoms: C4_6  and  C5_8
REMARK    4  A    between atoms: C8_11  and  N2_12
REMARK    5  A    between atoms: N2_12  and  C9_14
REMARK    6  A    between atoms: C14_22  and  N5_23
REMARK    7  A    between atoms: N5_23  and  C15_25
REMARK    8  A    between atoms: C15_25  and  C16_26
REMARK    9  A    between atoms: C16_26  and  C17_27
REMARK   10  A    between atoms: C17_27  and  N6_28
REMARK   11  A    between atoms: C22_34  and  N7_35
REMARK   12  A    between atoms: C25_38  and  O3_39
REMARK   13  A    between atoms: O3_39  and  C26_40
REMARK   14  A    between atoms: C26_40  and  C27_41
ROOT
HETATM    1  C9  UNL     1      15.117  21.045  19.185  1.00  0.00     0.131 A
HETATM    2  N3  UNL     1      15.315  20.671  20.474  1.00  0.00    -0.349 N
ATOM      3  H3  UNL     1      16.107  21.033  21.004  1.00  0.00     0.167 HD
HETATM    4  C10 UNL     1      14.451  19.817  21.038  1.00  0.00     0.107 A
HETATM    5  C11 UNL     1      13.389  19.332  20.326  1.00  0.00     0.114 A
HETATM    6  N4  UNL     1      13.181  19.695  19.050  1.00  0.00    -0.326 N
HETATM    7  C12 UNL     1      12.111  19.177  18.387  1.00  0.00     0.099 A
HETATM    8  C13 UNL     1      11.919  19.554  17.082  1.00  0.00     0.049 A
HETATM    9  C14 UNL     1      12.737  20.411  16.425  1.00  0.00     0.058 A
HETATM   10  C22 UNL     1      13.848  20.944  17.133  1.00  0.00     0.088 A
HETATM   11  C31 UNL     1      14.019  20.551  18.435  1.00  0.00     0.111 A
ENDROOT
BRANCH   1  12
HETATM   12  N2  UNL     1      15.887  21.821  18.590  1.00  0.00    -0.370 N
ATOM     13  H2  UNL     1      15.587  22.041  17.640  1.00  0.00     0.161 HD
BRANCH  12  14
HETATM   14  C8  UNL     1      17.077  22.450  18.954  1.00  0.00     0.083 C
HETATM   15  C7  UNL     1      17.133  23.954  18.897  1.00  0.00     0.026 C
HETATM   16  C6  UNL     1      18.238  24.345  19.917  1.00  0.00     0.016 C
HETATM   17  C5  UNL     1      19.521  23.834  19.271  1.00  0.00     0.078 C
HETATM   18  C33 UNL     1      19.478  22.338  19.228  1.00  0.00     0.016 C
HETATM   19  C32 UNL     1      18.351  21.939  18.268  1.00  0.00     0.026 C
BRANCH  17  20
HETATM   20  C4  UNL     1      20.694  24.373  19.962  1.00  0.00     0.221 C
HETATM   21  N1  UNL     1      20.747  25.744  20.310  1.00  0.00    -0.361 N
ATOM     22  H1  UNL     1      19.964  26.354  20.078  1.00  0.00     0.162 HD
HETATM   23  O1  UNL     1      21.656  23.590  20.240  1.00  0.00    -0.273 OA
BRANCH  21  24
HETATM   24  C3  UNL     1      21.912  26.293  20.999  1.00  0.00     0.122 C
BRANCH  24  25
HETATM   25  C2  UNL     1      21.531  27.574  21.723  1.00  0.00     0.015 C
HETATM   26  C1  UNL     1      21.767  27.447  23.214  1.00  0.00     0.006 C
ENDBRANCH  24  25
ENDBRANCH  21  24
ENDBRANCH  17  20
ENDBRANCH  12  14
ENDBRANCH   1  12
BRANCH  10  27
HETATM   27  N7  UNL     1      14.640  21.842  16.365  1.00  0.00    -0.377 N
HETATM   28  C23 UNL     1      15.758  21.308  15.648  1.00  0.00     0.125 C
HETATM   29  C24 UNL     1      16.431  22.161  14.655  1.00  0.00     0.051 C
HETATM   30  C25 UNL     1      16.359  23.625  14.886  1.00  0.00     0.124 C
HETATM   31  C29 UNL     1      15.033  24.100  15.372  1.00  0.00     0.051 C
HETATM   32  C30 UNL     1      14.395  23.254  16.399  1.00  0.00     0.125 C
BRANCH  30  33
HETATM   33  O3  UNL     1      17.307  23.951  15.855  1.00  0.00    -0.386 OA
BRANCH  33  34
HETATM   34  C26 UNL     1      17.754  25.260  15.729  1.00  0.00     0.167 C
BRANCH  34  35
HETATM   35  C27 UNL     1      19.252  25.364  15.864  1.00  0.00     0.022 C
HETATM   36  C28 UNL     1      19.870  24.010  15.603  1.00  0.00     0.007 C
ENDBRANCH  34  35
ENDBRANCH  33  34
ENDBRANCH  30  33
ENDBRANCH  10  27
BRANCH   9  37
HETATM   37  N5  UNL     1      12.616  20.795  15.214  1.00  0.00    -0.388 N
ATOM     38  H5  UNL     1      12.594  21.804  15.061  1.00  0.00     0.159 HD
BRANCH  37  39
HETATM   39  C15 UNL     1      12.506  19.978  14.042  1.00  0.00     0.121 C
BRANCH  39  40
HETATM   40  C16 UNL     1      11.088  19.921  13.509  1.00  0.00     0.050 C
BRANCH  40  41
HETATM   41  C17 UNL     1      10.412  18.625  13.803  1.00  0.00     0.274 C
BRANCH  41  42
HETATM   42  N6  UNL     1      11.268  17.497  13.959  1.00  0.00     0.092 N
HETATM   43  C18 UNL     1      10.936  16.710  15.105  1.00  0.00     0.298 C
HETATM   44  C19 UNL     1      10.626  15.266  14.748  1.00  0.00     0.198 C
HETATM   45  O2  UNL     1      11.662  14.701  14.013  1.00  0.00    -0.388 OA
HETATM   46  C20 UNL     1      12.006  15.414  12.893  1.00  0.00     0.198 C
HETATM   47  C21 UNL     1      11.180  16.687  12.760  1.00  0.00     0.298 C
ENDBRANCH  41  42
ENDBRANCH  40  41
ENDBRANCH  39  40
ENDBRANCH  37  39
ENDBRANCH   9  37
TORSDOF 14
ENDMDL