MODEL 1
REMARK VINA RESULT: -8.372960444      0.000      0.000
REMARK  12 active torsions:
REMARK  status: ('A' for Active; 'I' for Inactive)
REMARK    1  A    between atoms: C2_2  and  C3_3
REMARK    2  A    between atoms: C3_3  and  N1_4
REMARK    3  A    between atoms: N1_4  and  C4_5
REMARK    4  A    between atoms: N1_4  and  S1_8
REMARK    5  A    between atoms: C4_5  and  C5_6
REMARK    6  A    between atoms: S1_8  and  O1_9
REMARK    7  A    between atoms: S1_8  and  C7_11
REMARK    8  A    between atoms: S1_8  and  C14_18
REMARK    9  A    between atoms: S1_8  and  C26_40
REMARK   10  A    between atoms: C7_11  and  C8_12
REMARK   11  A    between atoms: C18_27  and  N4_28
REMARK   12  A    between atoms: N5_31  and  C21_32
ROOT
HETATM    1  S1  UNL     1      15.314  23.572  17.383  1.00  0.00    -0.079 SA
ENDROOT
BRANCH   1   2
HETATM    2  N1  UNL     1      16.557  24.805  18.171  1.00  0.00    -0.256 NA
BRANCH   2   3
HETATM    3  C3  UNL     1      17.757  24.224  18.679  1.00  0.00     0.102 C
BRANCH   3   4
HETATM    4  C2  UNL     1      18.044  24.237  20.115  1.00  0.00     0.011 C
HETATM    5  C1  UNL     1      19.561  24.515  20.272  1.00  0.00     0.006 C
ENDBRANCH   3   4
ENDBRANCH   2   3
BRANCH   2   6
HETATM    6  C4  UNL     1      16.991  25.685  17.085  1.00  0.00     0.102 C
BRANCH   6   7
HETATM    7  C5  UNL     1      18.451  25.856  16.962  1.00  0.00     0.011 C
HETATM    8  C6  UNL     1      18.999  26.230  15.630  1.00  0.00     0.006 C
ENDBRANCH   6   7
ENDBRANCH   2   6
ENDBRANCH   1   2
BRANCH   1   9
HETATM    9  O1  UNL     1      14.179  24.416  18.011  1.00  0.00    -0.338 OA
ATOM     10  H1  UNL     1      14.788  25.144  18.038  1.00  0.00     0.227 HD
ENDBRANCH   1   9
BRANCH   1  11
HETATM   11  C7  UNL     1      14.672  23.830  15.663  1.00  0.00     0.039 C
BRANCH  11  12
HETATM   12  C8  UNL     1      13.635  22.889  15.032  1.00  0.00     0.016 C
HETATM   13  C9  UNL     1      13.451  23.173  13.565  1.00  0.00     0.009 C
HETATM   14  C10 UNL     1      14.242  22.256  12.665  1.00  0.00     0.001 C
HETATM   15  C11 UNL     1      13.718  20.832  12.753  1.00  0.00     0.000 C
HETATM   16  C12 UNL     1      13.320  20.594  14.192  1.00  0.00     0.001 C
HETATM   17  C13 UNL     1      14.113  21.451  15.131  1.00  0.00     0.009 C
ENDBRANCH  11  12
ENDBRANCH   1  11
BRANCH   1  18
HETATM   18  C14 UNL     1      14.780  22.045  18.419  1.00  0.00     0.097 A
HETATM   19  C15 UNL     1      15.156  21.725  19.711  1.00  0.00     0.128 A
HETATM   20  N2  UNL     1      14.752  20.654  20.364  1.00  0.00    -0.348 N
HETATM   21  C16 UNL     1      13.933  19.779  19.817  1.00  0.00     0.135 A
ATOM     22  H2  UNL     1      15.082  20.499  21.316  1.00  0.00     0.167 HD
HETATM   23  N3  UNL     1      13.555  18.689  20.508  1.00  0.00    -0.306 N
HETATM   24  C25 UNL     1      13.512  20.028  18.533  1.00  0.00     0.080 A
HETATM   25  C17 UNL     1      12.743  17.762  20.005  1.00  0.00     0.273 A
ATOM     26  H3  UNL     1      13.905  18.567  21.459  1.00  0.00     0.170 HD
HETATM   27  O2  UNL     1      12.443  16.776  20.725  1.00  0.00    -0.266 OA
HETATM   28  C18 UNL     1      12.283  17.951  18.712  1.00  0.00     0.101 A
HETATM   29  C24 UNL     1      12.672  19.086  17.987  1.00  0.00     0.068 A
HETATM   30  N6  UNL     1      13.929  21.119  17.878  1.00  0.00    -0.346 N
ATOM     31  H6  UNL     1      13.596  21.268  16.925  1.00  0.00     0.167 HD
BRANCH  28  32
HETATM   32  N4  UNL     1      11.441  16.952  18.159  1.00  0.00    -0.373 N
HETATM   33  C19 UNL     1      12.026  15.963  17.286  1.00  0.00     0.143 C
HETATM   34  C20 UNL     1      11.289  15.826  15.992  1.00  0.00     0.145 C
HETATM   35  N5  UNL     1       9.880  16.065  16.222  1.00  0.00    -0.356 N
HETATM   36  C22 UNL     1       9.292  15.961  17.558  1.00  0.00     0.145 C
HETATM   37  C23 UNL     1      10.028  16.913  18.454  1.00  0.00     0.143 C
BRANCH  35  38
HETATM   38  C21 UNL     1       9.082  16.405  15.088  1.00  0.00     0.350 C
HETATM   39  O3  UNL     1       9.511  17.090  14.143  1.00  0.00    -0.284 OA
ENDBRANCH  35  38
ENDBRANCH  28  32
ENDBRANCH   1  18
BRANCH   1  40
HETATM   40  C26 UNL     1      16.872  22.694  16.801  1.00  0.00     0.070 C
HETATM   41  C27 UNL     1      16.975  21.177  17.051  1.00  0.00     0.043 C
HETATM   42  C28 UNL     1      18.380  20.830  16.712  1.00  0.00     0.168 C
HETATM   43  O4  UNL     1      19.203  21.916  16.469  1.00  0.00    -0.391 OA
HETATM   44  C29 UNL     1      18.850  22.645  15.325  1.00  0.00     0.168 C
HETATM   45  C30 UNL     1      17.342  22.858  15.378  1.00  0.00     0.043 C
ENDBRANCH   1  40
TORSDOF 12
ENDMDL