MODEL 2
REMARK VINA RESULT: -8.672071524      3.873     10.915
REMARK  14 active torsions:
REMARK  status: ('A' for Active; 'I' for Inactive)
REMARK    1  A    between atoms: O1_2  and  C2_3
REMARK    2  A    between atoms: C2_3  and  C3_4
REMARK    3  A    between atoms: C3_4  and  N1_5
REMARK       I    between atoms: N1_5  and  C4_6
REMARK    4  A    between atoms: N1_5  and  C23_42
REMARK    5  A    between atoms: C4_6  and  C5_8
REMARK    6  A    between atoms: C5_8  and  C6_9
REMARK    7  A    between atoms: C5_8  and  C19_38
REMARK       I    between atoms: C6_9  and  N2_11
REMARK    8  A    between atoms: N2_11  and  C7_13
REMARK    9  A    between atoms: C8_18  and  C9_19
REMARK   10  A    between atoms: C9_19  and  C10_20
REMARK   11  A    between atoms: C10_20  and  C11_21
REMARK   12  A    between atoms: C11_21  and  C12_22
REMARK   13  A    between atoms: C12_22  and  C13_23
REMARK       I    between atoms: N7_29  and  C15_31
REMARK   14  A    between atoms: C15_31  and  C16_33
ROOT
HETATM    1  C7  UNL     1      24.481  27.236  16.358  1.00  0.00     0.167 A
HETATM    2  N3  UNL     1      24.098  26.379  15.402  1.00  0.00    -0.279 N
ATOM      3  H3  UNL     1      24.583  25.491  15.274  1.00  0.00     0.189 HD
HETATM    4  N4  UNL     1      23.118  26.696  14.661  1.00  0.00    -0.296 N
ATOM      5  H4  UNL     1      22.811  26.058  13.927  1.00  0.00     0.187 HD
HETATM    6  C8  UNL     1      22.492  27.849  14.833  1.00  0.00     0.069 A
HETATM    7  S2  UNL     1      23.367  28.513  16.139  1.00  0.00    -0.038 SA
ENDROOT
BRANCH   1   8
HETATM    8  N2  UNL     1      25.465  27.088  17.212  1.00  0.00    -0.305 N
HETATM    9  C6  UNL     1      25.832  25.808  17.626  1.00  0.00     0.237 C
HETATM   10  O3  UNL     1      26.485  25.100  16.835  1.00  0.00    -0.272 OA
ATOM     11  H2  UNL     1      25.960  27.905  17.571  1.00  0.00     0.171 HD
BRANCH   9  12
HETATM   12  C5  UNL     1      25.489  25.226  18.978  1.00  0.00     0.177 C
BRANCH  12  13
HETATM   13  C4  UNL     1      24.704  26.204  19.759  1.00  0.00     0.234 C
HETATM   14  N1  UNL     1      23.405  26.030  20.266  1.00  0.00    -0.345 N
HETATM   15  O2  UNL     1      25.278  27.320  19.999  1.00  0.00    -0.272 OA
BRANCH  14  16
HETATM   16  C3  UNL     1      22.640  24.839  19.955  1.00  0.00     0.152 C
BRANCH  16  17
HETATM   17  C2  UNL     1      21.751  24.988  18.745  1.00  0.00     0.187 C
BRANCH  17  18
HETATM   18  O1  UNL     1      20.424  25.226  19.020  1.00  0.00    -0.394 OA
HETATM   19  C1  UNL     1      19.881  24.302  19.900  1.00  0.00     0.201 C
ENDBRANCH  17  18
ENDBRANCH  16  17
ENDBRANCH  14  16
BRANCH  14  20
HETATM   20  C23 UNL     1      22.764  27.021  21.112  1.00  0.00     0.087 C
HETATM   21  C24 UNL     1      21.930  28.022  20.403  1.00  0.00     0.025 C
HETATM   22  C25 UNL     1      20.868  28.445  21.403  1.00  0.00     0.002 C
HETATM   23  C26 UNL     1      21.242  27.768  22.710  1.00  0.00     0.002 C
HETATM   24  C27 UNL     1      21.890  26.474  22.183  1.00  0.00     0.025 C
ENDBRANCH  14  20
ENDBRANCH  12  13
BRANCH  12  25
HETATM   25  C19 UNL     1      26.805  24.870  19.678  1.00  0.00    -0.031 C
HETATM   26  C20 UNL     1      26.573  24.681  21.174  1.00  0.00     0.016 C
HETATM   27  C21 UNL     1      27.276  23.496  19.187  1.00  0.00     0.016 C
HETATM   28  C22 UNL     1      27.916  25.840  19.415  1.00  0.00     0.016 C
ENDBRANCH  12  25
ENDBRANCH   9  12
ENDBRANCH   1   8
BRANCH   6  29
HETATM   29  C9  UNL     1      21.325  28.402  14.065  1.00  0.00     0.066 C
BRANCH  29  30
HETATM   30  C10 UNL     1      20.187  27.404  14.030  1.00  0.00     0.007 C
BRANCH  30  31
HETATM   31  C11 UNL     1      19.793  26.929  15.386  1.00  0.00     0.007 C
BRANCH  31  32
HETATM   32  C12 UNL     1      19.601  25.436  15.402  1.00  0.00     0.066 C
BRANCH  32  33
HETATM   33  C13 UNL     1      18.398  25.144  16.257  1.00  0.00     0.069 A
HETATM   34  N5  UNL     1      17.918  25.836  17.278  1.00  0.00    -0.296 N
HETATM   35  N6  UNL     1      16.890  25.441  17.901  1.00  0.00    -0.279 N
ATOM     36  H5  UNL     1      18.382  26.697  17.566  1.00  0.00     0.187 HD
HETATM   37  C14 UNL     1      16.295  24.312  17.510  1.00  0.00     0.167 A
ATOM     38  H6  UNL     1      16.522  25.976  18.687  1.00  0.00     0.189 HD
HETATM   39  N7  UNL     1      15.226  23.746  18.027  1.00  0.00    -0.306 N
HETATM   40  S1  UNL     1      17.283  23.834  16.199  1.00  0.00    -0.038 SA
HETATM   41  C15 UNL     1      14.759  22.517  17.435  1.00  0.00     0.227 C
ATOM     42  H7  UNL     1      14.743  24.163  18.823  1.00  0.00     0.171 HD
HETATM   43  O4  UNL     1      14.454  22.569  16.217  1.00  0.00    -0.273 OA
BRANCH  41  44
HETATM   44  C16 UNL     1      14.678  21.326  18.283  1.00  0.00     0.070 C
HETATM   45  C17 UNL     1      15.243  21.587  19.673  1.00  0.00     0.019 C
HETATM   46  C18 UNL     1      15.451  20.195  17.666  1.00  0.00     0.019 C
ENDBRANCH  41  44
ENDBRANCH  32  33
ENDBRANCH  31  32
ENDBRANCH  30  31
ENDBRANCH  29  30
ENDBRANCH   6  29
TORSDOF 14
ENDMDL