MODEL 2
REMARK VINA RESULT: -9.752904695      3.177     10.194
REMARK  14 active torsions:
REMARK  status: ('A' for Active; 'I' for Inactive)
REMARK    1  A    between atoms: C4_4  and  C5_5
REMARK    2  A    between atoms: C5_5  and  C6_6
REMARK    3  A    between atoms: C6_6  and  C7_7
REMARK    4  A    between atoms: C7_7  and  C8_8
REMARK       I    between atoms: C8_8  and  N1_10
REMARK    5  A    between atoms: N1_10  and  C9_12
REMARK    6  A    between atoms: C10_17  and  C11_18
REMARK    7  A    between atoms: C11_18  and  C12_19
REMARK    8  A    between atoms: C12_19  and  C13_20
REMARK    9  A    between atoms: C13_20  and  C14_21
REMARK   10  A    between atoms: C14_21  and  C15_22
REMARK       I    between atoms: N6_28  and  C17_30
REMARK   11  A    between atoms: C17_30  and  C18_32
REMARK   12  A    between atoms: C18_32  and  C19_33
REMARK   13  A    between atoms: C27_44  and  C28_45
REMARK   14  A    between atoms: C28_45  and  N8_46
ROOT
HETATM    1  C9  UNL     1      14.641  22.310  14.017  1.00  0.00     0.167 A
HETATM    2  N2  UNL     1      13.860  23.118  14.742  1.00  0.00    -0.279 N
ATOM      3  H2  UNL     1      14.238  23.966  15.163  1.00  0.00     0.189 HD
HETATM    4  N3  UNL     1      12.638  22.807  14.897  1.00  0.00    -0.296 N
ATOM      5  H3  UNL     1      12.028  23.411  15.447  1.00  0.00     0.187 HD
HETATM    6  C10 UNL     1      12.153  21.706  14.351  1.00  0.00     0.069 A
HETATM    7  S1  UNL     1      13.544  21.081  13.565  1.00  0.00    -0.038 SA
ENDROOT
BRANCH   6   8
HETATM    8  C11 UNL     1      10.752  21.151  14.403  1.00  0.00     0.066 C
BRANCH   8   9
HETATM    9  C12 UNL     1      10.831  19.909  15.267  1.00  0.00     0.007 C
BRANCH   9  10
HETATM   10  C13 UNL     1      11.027  20.218  16.717  1.00  0.00     0.008 C
BRANCH  10  11
HETATM   11  C14 UNL     1      11.807  19.116  17.387  1.00  0.00     0.078 C
BRANCH  11  12
HETATM   12  C15 UNL     1      13.003  19.777  18.006  1.00  0.00     0.100 A
HETATM   13  N4  UNL     1      13.790  20.602  17.284  1.00  0.00    -0.287 N
HETATM   14  N5  UNL     1      14.857  21.215  17.777  1.00  0.00    -0.280 N
ATOM     15  H4  UNL     1      13.551  20.762  16.306  1.00  0.00     0.188 HD
HETATM   16  C16 UNL     1      15.230  21.049  19.058  1.00  0.00     0.192 A
ATOM     17  H5  UNL     1      15.407  21.825  17.172  1.00  0.00     0.189 HD
HETATM   18  N6  UNL     1      16.252  21.621  19.596  1.00  0.00    -0.307 N
HETATM   19  C23 UNL     1      14.439  20.209  19.816  1.00  0.00     0.294 A
HETATM   20  C17 UNL     1      17.061  22.489  18.824  1.00  0.00     0.224 C
ATOM     21  H6  UNL     1      16.477  21.449  20.576  1.00  0.00     0.170 HD
HETATM   22  O2  UNL     1      16.578  23.598  18.488  1.00  0.00    -0.273 OA
HETATM   23  O3  UNL     1      14.732  20.011  21.018  1.00  0.00    -0.264 OA
HETATM   24  N7  UNL     1      13.342  19.584  19.293  1.00  0.00    -0.304 N
HETATM   25  C24 UNL     1      12.549  18.710  20.117  1.00  0.00     0.161 C
BRANCH  20  26
HETATM   26  C18 UNL     1      18.438  22.139  18.407  1.00  0.00     0.111 C
BRANCH  26  27
HETATM   27  C19 UNL     1      19.390  22.784  19.412  1.00  0.00    -0.043 C
HETATM   28  C20 UNL     1      20.518  23.483  18.646  1.00  0.00     0.015 C
HETATM   29  C21 UNL     1      18.666  23.790  20.286  1.00  0.00     0.015 C
HETATM   30  C22 UNL     1      19.986  21.661  20.234  1.00  0.00     0.015 C
ENDBRANCH  26  27
ENDBRANCH  20  26
ENDBRANCH  11  12
ENDBRANCH  10  11
ENDBRANCH   9  10
ENDBRANCH   8   9
ENDBRANCH   6   8
BRANCH   1  31
HETATM   31  N1  UNL     1      15.920  22.442  13.736  1.00  0.00    -0.306 N
HETATM   32  C8  UNL     1      16.793  22.326  14.849  1.00  0.00     0.223 C
HETATM   33  O1  UNL     1      16.637  21.340  15.610  1.00  0.00    -0.273 OA
ATOM     34  H1  UNL     1      16.259  22.615  12.789  1.00  0.00     0.171 HD
BRANCH  32  35
HETATM   35  C7  UNL     1      17.828  23.368  15.043  1.00  0.00     0.103 C
BRANCH  35  36
HETATM   36  C6  UNL     1      17.168  24.663  15.482  1.00  0.00     0.014 C
BRANCH  36  37
HETATM   37  C5  UNL     1      17.654  25.804  14.655  1.00  0.00     0.039 C
BRANCH  37  38
HETATM   38  C4  UNL     1      18.933  26.392  15.089  1.00  0.00    -0.058 A
HETATM   39  C3  UNL     1      19.769  27.102  14.257  1.00  0.00     0.014 A
HETATM   40  C2  UNL     1      20.953  27.642  14.683  1.00  0.00    -0.053 A
HETATM   41  C1  UNL     1      21.783  28.389  13.713  1.00  0.00     0.049 C
HETATM   42  C27 UNL     1      21.374  27.496  15.996  1.00  0.00    -0.028 A
HETATM   43  C26 UNL     1      20.555  26.790  16.845  1.00  0.00     0.010 A
HETATM   44  C25 UNL     1      19.351  26.248  16.393  1.00  0.00     0.007 A
BRANCH  42  45
HETATM   45  C28 UNL     1      22.648  28.071  16.437  1.00  0.00     0.240 C
BRANCH  45  46
HETATM   46  N8  UNL     1      23.695  27.106  16.530  1.00  0.00    -0.151 N
HETATM   47  O4  UNL     1      24.040  26.717  17.666  1.00  0.00    -0.536 OA
HETATM   48  O5  UNL     1      24.347  26.576  15.455  1.00  0.00    -0.536 OA
ENDBRANCH  45  46
ENDBRANCH  42  45
ENDBRANCH  37  38
ENDBRANCH  36  37
ENDBRANCH  35  36
ENDBRANCH  32  35
ENDBRANCH   1  31
TORSDOF 14
ENDMDL