MODEL 1
REMARK VINA RESULT: -7.014584754      0.000      0.000
REMARK  10 active torsions:
REMARK  status: ('A' for Active; 'I' for Inactive)
REMARK    1  A    between atoms: O1_1  and  C1_3
REMARK    2  A    between atoms: C3_5  and  O2_6
REMARK    3  A    between atoms: C4_8  and  O3_9
REMARK    4  A    between atoms: O3_9  and  C5_10
REMARK    5  A    between atoms: C11_17  and  O5_18
REMARK    6  A    between atoms: O5_18  and  C12_19
REMARK    7  A    between atoms: C12_19  and  C13_20
REMARK    8  A    between atoms: C15_23  and  O7_24
REMARK    9  A    between atoms: C16_26  and  O8_27
REMARK   10  A    between atoms: C17_29  and  O9_30
ROOT
HETATM    1  C1  UNL     1      28.920   6.238 175.586  1.00  0.00     0.176 C
HETATM    2  C2  UNL     1      27.832   6.807 174.731  1.00  0.00     0.073 C
HETATM    3  C3  UNL     1      28.391   7.550 173.552  1.00  0.00     0.176 C
HETATM    4  C4  UNL     1      29.651   6.893 173.087  1.00  0.00     0.292 C
HETATM    5  O4  UNL     1      30.619   6.755 174.041  1.00  0.00    -0.326 OA
HETATM    6  C11 UNL     1      30.198   6.996 175.336  1.00  0.00     0.291 C
ENDROOT
BRANCH   6   7
HETATM    7  O5  UNL     1      30.124   8.331 175.559  1.00  0.00    -0.356 OA
BRANCH   7   8
HETATM    8  C12 UNL     1      30.902   8.840 176.552  1.00  0.00     0.205 C
BRANCH   8   9
HETATM    9  C13 UNL     1      32.119   9.595 176.073  1.00  0.00     0.176 C
HETATM   10  O6  UNL     1      32.773  10.265 177.073  1.00  0.00    -0.378 OA
HETATM   11  C14 UNL     1      33.385   9.459 178.006  1.00  0.00     0.202 C
HETATM   12  C15 UNL     1      34.458   8.569 177.422  1.00  0.00     0.173 C
HETATM   13  C16 UNL     1      34.475   8.842 175.920  1.00  0.00     0.180 C
HETATM   14  C17 UNL     1      33.046   8.558 175.440  1.00  0.00     0.180 C
BRANCH  12  15
HETATM   15  O7  UNL     1      34.078   7.217 177.562  1.00  0.00    -0.391 OA
ATOM     16  H7  UNL     1      34.086   6.794 176.711  1.00  0.00     0.210 HD
ENDBRANCH  12  15
BRANCH  13  17
HETATM   17  O8  UNL     1      35.354   7.983 175.289  1.00  0.00    -0.390 OA
ATOM     18  H8  UNL     1      35.358   8.147 174.353  1.00  0.00     0.210 HD
ENDBRANCH  13  17
BRANCH  14  19
HETATM   19  O9  UNL     1      32.960   8.578 174.065  1.00  0.00    -0.390 OA
ATOM     20  H9  UNL     1      33.316   7.783 173.684  1.00  0.00     0.210 HD
ENDBRANCH  14  19
ENDBRANCH   8   9
ENDBRANCH   7   8
ENDBRANCH   6   7
BRANCH   1  21
HETATM   21  O1  UNL     1      29.163   4.902 175.251  1.00  0.00    -0.391 OA
ATOM     22  H1  UNL     1      29.823   4.528 175.824  1.00  0.00     0.210 HD
ENDBRANCH   1  21
BRANCH   4  23
HETATM   23  O3  UNL     1      29.307   5.696 172.466  1.00  0.00    -0.353 OA
BRANCH  23  24
HETATM   24  C5  UNL     1      30.385   5.095 171.826  1.00  0.00     0.124 C
HETATM   25  C6  UNL     1      30.105   4.790 170.386  1.00  0.00     0.032 C
HETATM   26  C7  UNL     1      30.599   3.395 170.066  1.00  0.00     0.002 C
HETATM   27  C8  UNL     1      29.740   2.367 170.769  1.00  0.00     0.000 C
HETATM   28  C9  UNL     1      29.726   2.707 172.239  1.00  0.00     0.002 C
HETATM   29  C10 UNL     1      30.707   3.817 172.564  1.00  0.00     0.032 C
ENDBRANCH  23  24
ENDBRANCH   4  23
BRANCH   3  30
HETATM   30  O2  UNL     1      27.451   7.425 172.504  1.00  0.00    -0.391 OA
ATOM     31  H2  UNL     1      27.779   6.755 171.916  1.00  0.00     0.210 HD
ENDBRANCH   3  30
TORSDOF 10
ENDMDL