MODEL 2
REMARK VINA RESULT: -7.595089968      0.707      1.288
REMARK  11 active torsions:
REMARK  status: ('A' for Active; 'I' for Inactive)
REMARK       I    between atoms: N1_2  and  C2_4
REMARK    1  A    between atoms: C2_4  and  O2_6
REMARK    2  A    between atoms: O2_6  and  C3_7
REMARK    3  A    between atoms: C4_8  and  O3_9
REMARK    4  A    between atoms: C5_11  and  N2_12
REMARK    5  A    between atoms: C7_17  and  N3_18
REMARK    6  A    between atoms: C8_22  and  O4_23
REMARK    7  A    between atoms: O4_23  and  C9_24
REMARK    8  A    between atoms: C9_24  and  C10_26
REMARK    9  A    between atoms: C10_26  and  N4_27
REMARK   10  A    between atoms: C10_26  and  C11_31
REMARK   11  A    between atoms: C11_31  and  C12_32
ROOT
HETATM    1  C3  UNL     1      31.536   1.499 165.553  1.00  0.00     0.196 C
HETATM    2  C4  UNL     1      30.781   0.577 164.628  1.00  0.00     0.180 C
HETATM    3  C5  UNL     1      29.898  -0.385 165.363  1.00  0.00     0.216 C
HETATM    4  C6  UNL     1      30.416  -0.642 166.772  1.00  0.00     0.071 C
HETATM    5  C7  UNL     1      30.410   0.616 167.611  1.00  0.00     0.217 C
HETATM    6  C8  UNL     1      30.688   1.832 166.762  1.00  0.00     0.194 C
ENDROOT
BRANCH   6   7
HETATM    7  O4  UNL     1      31.144   2.933 167.478  1.00  0.00    -0.309 OA
BRANCH   7   8
HETATM    8  C9  UNL     1      30.374   3.686 168.328  1.00  0.00     0.290 C
HETATM    9  O5  UNL     1      29.281   4.105 167.838  1.00  0.00    -0.263 OA
BRANCH   8  10
HETATM   10  C10 UNL     1      30.780   3.998 169.728  1.00  0.00     0.282 C
BRANCH  10  11
HETATM   11  N4  UNL     1      32.214   3.751 169.881  1.00  0.00    -0.066 N
ATOM     12  H43 UNL     1      32.709   3.775 168.989  1.00  0.00     0.275 HD
ATOM     13  H42 UNL     1      32.695   4.528 170.334  1.00  0.00     0.275 HD
ATOM     14  H41 UNL     1      32.352   2.869 170.376  1.00  0.00     0.275 HD
ENDBRANCH  10  11
BRANCH  10  15
HETATM   15  C11 UNL     1      30.079   3.098 170.711  1.00  0.00     0.048 C
BRANCH  15  16
HETATM   16  C12 UNL     1      29.714   3.862 171.934  1.00  0.00    -0.012 C
HETATM   17  C13 UNL     1      29.840   5.368 171.727  1.00  0.00     0.005 C
HETATM   18  C14 UNL     1      29.785   6.089 173.062  1.00  0.00     0.000 C
HETATM   19  C15 UNL     1      29.130   5.235 174.123  1.00  0.00     0.000 C
HETATM   20  C16 UNL     1      29.801   3.925 174.368  1.00  0.00     0.000 C
HETATM   21  C17 UNL     1      30.579   3.545 173.119  1.00  0.00     0.005 C
ENDBRANCH  15  16
ENDBRANCH  10  15
ENDBRANCH   8  10
ENDBRANCH   7   8
ENDBRANCH   6   7
BRANCH   1  22
HETATM   22  O2  UNL     1      32.756   0.926 165.853  1.00  0.00    -0.293 OA
BRANCH  22  23
HETATM   23  C2  UNL     1      33.868   1.728 166.057  1.00  0.00     0.360 C
HETATM   24  N1  UNL     1      34.654   1.621 167.238  1.00  0.00    -0.341 N
HETATM   25  C1  UNL     1      35.809   2.488 167.400  1.00  0.00     0.151 C
ATOM     26  H1  UNL     1      34.410   0.944 167.960  1.00  0.00     0.164 HD
HETATM   27  O1  UNL     1      34.181   2.578 165.156  1.00  0.00    -0.239 OA
ENDBRANCH  22  23
ENDBRANCH   1  22
BRANCH   5  28
HETATM   28  N3  UNL     1      29.113   0.678 168.266  1.00  0.00    -0.072 N
ATOM     29  H33 UNL     1      28.816   1.630 168.479  1.00  0.00     0.274 HD
ATOM     30  H32 UNL     1      28.339   0.436 167.647  1.00  0.00     0.274 HD
ATOM     31  H31 UNL     1      29.169   0.081 169.091  1.00  0.00     0.274 HD
ENDBRANCH   5  28
BRANCH   2  32
HETATM   32  O3  UNL     1      30.033   1.292 163.669  1.00  0.00    -0.391 OA
ATOM     33  H3  UNL     1      29.300   1.752 164.063  1.00  0.00     0.210 HD
ENDBRANCH   2  32
BRANCH   3  34
HETATM   34  N2  UNL     1      28.509   0.031 165.370  1.00  0.00    -0.072 N
ATOM     35  H23 UNL     1      28.404   0.951 165.800  1.00  0.00     0.274 HD
ATOM     36  H22 UNL     1      28.187   0.253 164.428  1.00  0.00     0.274 HD
ATOM     37  H21 UNL     1      27.898  -0.653 165.816  1.00  0.00     0.274 HD
ENDBRANCH   3  34
TORSDOF 11
ENDMDL