MODEL 3
REMARK VINA RESULT: -6.401821434      3.599      6.788
REMARK  9 active torsions:
REMARK  status: ('A' for Active; 'I' for Inactive)
REMARK    1  A    between atoms: N1_2  and  C2_5
REMARK    2  A    between atoms: C3_6  and  O1_7
REMARK    3  A    between atoms: C4_9  and  O2_10
REMARK    4  A    between atoms: O2_10  and  C5_11
REMARK    5  A    between atoms: C8_15  and  O4_16
REMARK    6  A    between atoms: C9_18  and  O5_19
REMARK    7  A    between atoms: C10_21  and  O6_22
REMARK    8  A    between atoms: C11_25  and  C12_26
REMARK    9  A    between atoms: C16_30  and  O8_31
ROOT
HETATM    1  C2  UNL     1      29.612  -2.516 161.608  1.00  0.00     0.250 C
HETATM    2  C3  UNL     1      30.299  -2.283 162.943  1.00  0.00     0.206 C
HETATM    3  C4  UNL     1      30.696  -0.825 163.047  1.00  0.00     0.294 C
HETATM    4  O7  UNL     1      29.775  -0.079 162.272  1.00  0.00    -0.347 OA
HETATM    5  C11 UNL     1      29.999  -0.218 160.922  1.00  0.00     0.178 C
HETATM    6  C16 UNL     1      30.251  -1.661 160.520  1.00  0.00     0.186 C
ENDROOT
BRANCH   3   7
HETATM    7  O2  UNL     1      30.505  -0.422 164.343  1.00  0.00    -0.326 OA
BRANCH   7   8
HETATM    8  C5  UNL     1      29.640  -1.152 165.091  1.00  0.00     0.294 C
HETATM    9  O3  UNL     1      30.197  -1.726 166.224  1.00  0.00    -0.351 OA
HETATM   10  C6  UNL     1      29.366  -2.659 166.796  1.00  0.00     0.152 C
HETATM   11  C7  UNL     1      29.451  -4.012 166.134  1.00  0.00     0.042 C
HETATM   12  C8  UNL     1      27.913  -2.176 166.860  1.00  0.00     0.178 C
HETATM   13  C9  UNL     1      27.984  -0.661 166.887  1.00  0.00     0.183 C
HETATM   14  C10 UNL     1      28.516  -0.235 165.532  1.00  0.00     0.204 C
BRANCH  12  15
HETATM   15  O4  UNL     1      27.273  -2.667 167.969  1.00  0.00    -0.390 OA
ATOM     16  H4  UNL     1      27.493  -2.166 168.744  1.00  0.00     0.210 HD
ENDBRANCH  12  15
BRANCH  13  17
HETATM   17  O5  UNL     1      26.760  -0.081 167.140  1.00  0.00    -0.390 OA
ATOM     18  H5  UNL     1      26.812   0.866 167.198  1.00  0.00     0.210 HD
ENDBRANCH  13  17
BRANCH  14  19
HETATM   19  O6  UNL     1      27.501  -0.359 164.579  1.00  0.00    -0.388 OA
ATOM     20  H6  UNL     1      27.304   0.520 164.275  1.00  0.00     0.210 HD
ENDBRANCH  14  19
ENDBRANCH   7   8
ENDBRANCH   3   7
BRANCH   2  21
HETATM   21  O1  UNL     1      31.391  -3.142 163.093  1.00  0.00    -0.388 OA
ATOM     22  H1  UNL     1      31.587  -3.278 164.013  1.00  0.00     0.210 HD
ENDBRANCH   2  21
BRANCH   1  23
HETATM   23  N1  UNL     1      29.584  -3.889 161.223  1.00  0.00    -0.070 N
HETATM   24  C1  UNL     1      28.385  -4.508 161.756  1.00  0.00     0.267 C
ATOM     25  H12 UNL     1      30.431  -4.386 161.497  1.00  0.00     0.277 HD
ATOM     26  H11 UNL     1      29.667  -4.010 160.214  1.00  0.00     0.277 HD
ENDBRANCH   1  23
BRANCH   5  27
HETATM   27  C12 UNL     1      28.765   0.257 160.209  1.00  0.00     0.009 C
HETATM   28  C13 UNL     1      28.828   0.793 159.005  1.00  0.00    -0.089 C
HETATM   29  C14 UNL     1      27.578   1.243 158.352  1.00  0.00     0.042 C
HETATM   30  C15 UNL     1      30.128   0.940 158.322  1.00  0.00     0.042 C
ENDBRANCH   5  27
BRANCH   6  31
HETATM   31  O8  UNL     1      31.596  -1.922 160.406  1.00  0.00    -0.386 OA
HETATM   32  C17 UNL     1      31.965  -2.243 159.099  1.00  0.00     0.202 C
ENDBRANCH   6  31
TORSDOF 9
ENDMDL