MODEL 5
REMARK VINA RESULT: -7.111690806      4.786     10.418
REMARK  9 active torsions:
REMARK  status: ('A' for Active; 'I' for Inactive)
REMARK    1  A    between atoms: C1_2  and  C2_4
REMARK    2  A    between atoms: C3_6  and  O4_7
REMARK    3  A    between atoms: O4_7  and  C4_8
REMARK    4  A    between atoms: C6_11  and  C7_12
REMARK    5  A    between atoms: C7_12  and  C8_13
REMARK    6  A    between atoms: C14_19  and  O6_20
REMARK    7  A    between atoms: C15_22  and  O7_23
REMARK    8  A    between atoms: C16_25  and  O8_26
REMARK    9  A    between atoms: C17_28  and  O9_29
ROOT
HETATM    1  C2  UNL     1      30.474   4.791 173.977  1.00  0.00     0.256 C
HETATM    2  O3  UNL     1      29.576   4.479 172.966  1.00  0.00    -0.340 OA
HETATM    3  C3  UNL     1      29.208   5.570 172.206  1.00  0.00     0.292 C
HETATM    4  C15 UNL     1      29.245   6.876 172.908  1.00  0.00     0.204 C
HETATM    5  C16 UNL     1      29.263   6.844 174.386  1.00  0.00     0.183 C
HETATM    6  C17 UNL     1      29.642   5.541 175.002  1.00  0.00     0.189 C
ENDROOT
BRANCH   3   7
HETATM    7  O4  UNL     1      30.009   5.622 171.094  1.00  0.00    -0.348 OA
BRANCH   7   8
HETATM    8  C4  UNL     1      29.857   4.640 170.178  1.00  0.00     0.179 C
HETATM    9  C5  UNL     1      30.002   5.057 168.738  1.00  0.00     0.203 C
HETATM   10  O5  UNL     1      29.878   3.792 168.121  1.00  0.00    -0.381 OA
HETATM   11  C6  UNL     1      30.676   2.932 168.825  1.00  0.00     0.153 C
HETATM   12  C14 UNL     1      30.804   3.498 170.240  1.00  0.00     0.178 C
BRANCH  11  13
HETATM   13  C7  UNL     1      30.011   1.575 168.862  1.00  0.00     0.039 C
BRANCH  13  14
HETATM   14  C8  UNL     1      29.844   1.032 167.486  1.00  0.00    -0.012 C
HETATM   15  C9  UNL     1      29.070  -0.256 167.382  1.00  0.00     0.005 C
HETATM   16  C10 UNL     1      29.576  -1.087 166.213  1.00  0.00     0.000 C
HETATM   17  C11 UNL     1      30.011  -0.247 165.062  1.00  0.00     0.000 C
HETATM   18  C12 UNL     1      31.042   0.794 165.375  1.00  0.00     0.000 C
HETATM   19  C13 UNL     1      31.238   0.856 166.871  1.00  0.00     0.005 C
ENDBRANCH  13  14
ENDBRANCH  11  13
BRANCH  12  20
HETATM   20  O6  UNL     1      30.433   2.519 171.156  1.00  0.00    -0.390 OA
ATOM     21  H6  UNL     1      31.098   2.341 171.810  1.00  0.00     0.210 HD
ENDBRANCH  12  20
ENDBRANCH   7   8
ENDBRANCH   3   7
BRANCH   4  22
HETATM   22  O7  UNL     1      28.153   7.686 172.511  1.00  0.00    -0.388 OA
ATOM     23  H7  UNL     1      28.023   8.396 173.129  1.00  0.00     0.210 HD
ENDBRANCH   4  22
BRANCH   1  24
HETATM   24  C1  UNL     1      31.064   3.559 174.504  1.00  0.00     0.206 C
HETATM   25  O1  UNL     1      32.094   3.582 175.209  1.00  0.00    -0.646 OA
HETATM   26  O2  UNL     1      30.474   2.338 174.220  1.00  0.00    -0.646 OA
ENDBRANCH   1  24
BRANCH   5  27
HETATM   27  O8  UNL     1      30.148   7.818 174.908  1.00  0.00    -0.390 OA
ATOM     28  H8  UNL     1      29.965   7.991 175.824  1.00  0.00     0.210 HD
ENDBRANCH   5  27
BRANCH   6  29
HETATM   29  O9  UNL     1      30.351   5.741 176.180  1.00  0.00    -0.390 OA
ATOM     30  H9  UNL     1      30.847   6.550 176.152  1.00  0.00     0.210 HD
ENDBRANCH   6  29
TORSDOF 9
ENDMDL