MODEL 2
REMARK VINA RESULT: -7.030778215      1.702      1.758
REMARK  10 active torsions:
REMARK  status: ('A' for Active; 'I' for Inactive)
REMARK    1  A    between atoms: C3_4  and  O2_5
REMARK    2  A    between atoms: O2_5  and  C4_6
REMARK    3  A    between atoms: C4_6  and  C5_7
REMARK    4  A    between atoms: C9_12  and  O4_13
REMARK    5  A    between atoms: C10_15  and  O5_16
REMARK    6  A    between atoms: C11_18  and  O6_19
REMARK    7  A    between atoms: O6_19  and  C12_20
REMARK    8  A    between atoms: C14_22  and  O7_23
REMARK    9  A    between atoms: C16_26  and  O8_27
REMARK   10  A    between atoms: C17_29  and  O9_30
ROOT
HETATM    1  C1  UNL     1      32.712   1.445 165.326  1.00  0.00     0.042 C
HETATM    2  C2  UNL     1      31.232   1.720 165.288  1.00  0.00     0.152 C
HETATM    3  O1  UNL     1      30.816   2.200 166.510  1.00  0.00    -0.351 OA
HETATM    4  C3  UNL     1      31.177   1.429 167.615  1.00  0.00     0.291 C
HETATM    5  C9  UNL     1      30.691   0.007 167.352  1.00  0.00     0.204 C
HETATM    6  C10 UNL     1      29.747  -0.018 166.202  1.00  0.00     0.183 C
HETATM    7  C11 UNL     1      30.403   0.519 164.920  1.00  0.00     0.182 C
ENDROOT
BRANCH   7   8
HETATM    8  O6  UNL     1      29.407   0.757 164.029  1.00  0.00    -0.373 OA
BRANCH   8   9
HETATM    9  C12 UNL     1      29.293  -0.101 162.979  1.00  0.00     0.155 C
HETATM   10  C13 UNL     1      29.757   0.633 161.728  1.00  0.00     0.066 C
HETATM   11  C14 UNL     1      29.745  -0.343 160.602  1.00  0.00     0.123 C
HETATM   12  C15 UNL     1      28.359  -0.799 160.340  1.00  0.00     0.066 C
HETATM   13  C16 UNL     1      27.581  -1.227 161.528  1.00  0.00     0.151 C
HETATM   14  C17 UNL     1      27.825  -0.419 162.767  1.00  0.00     0.176 C
BRANCH  11  15
HETATM   15  O7  UNL     1      30.651  -1.369 160.846  1.00  0.00    -0.395 OA
ATOM     16  H7  UNL     1      31.499  -1.155 160.473  1.00  0.00     0.210 HD
ENDBRANCH  11  15
BRANCH  13  17
HETATM   17  O8  UNL     1      26.211  -1.062 161.215  1.00  0.00    -0.393 OA
ATOM     18  H8  UNL     1      25.911  -1.873 160.823  1.00  0.00     0.210 HD
ENDBRANCH  13  17
BRANCH  14  19
HETATM   19  O9  UNL     1      27.103   0.766 162.806  1.00  0.00    -0.390 OA
ATOM     20  H9  UNL     1      27.452   1.358 162.149  1.00  0.00     0.210 HD
ENDBRANCH  14  19
ENDBRANCH   8   9
ENDBRANCH   7   8
BRANCH   6  21
HETATM   21  O5  UNL     1      28.548   0.635 166.464  1.00  0.00    -0.390 OA
ATOM     22  H5  UNL     1      27.789   0.071 166.376  1.00  0.00     0.210 HD
ENDBRANCH   6  21
BRANCH   5  23
HETATM   23  O4  UNL     1      29.982  -0.399 168.487  1.00  0.00    -0.388 OA
ATOM     24  H4  UNL     1      29.061  -0.403 168.251  1.00  0.00     0.210 HD
ENDBRANCH   5  23
BRANCH   4  25
HETATM   25  O2  UNL     1      30.544   1.930 168.702  1.00  0.00    -0.356 OA
BRANCH  25  26
HETATM   26  C4  UNL     1      30.509   3.266 168.846  1.00  0.00     0.203 C
BRANCH  26  27
HETATM   27  C5  UNL     1      30.617   3.822 170.209  1.00  0.00     0.145 C
HETATM   28  C6  UNL     1      29.959   3.117 171.337  1.00  0.00     0.036 C
HETATM   29  C7  UNL     1      29.850   4.251 172.381  1.00  0.00     0.029 C
HETATM   30  C8  UNL     1      30.211   5.459 171.550  1.00  0.00     0.168 C
HETATM   31  O3  UNL     1      29.881   5.056 170.258  1.00  0.00    -0.384 OA
ENDBRANCH  26  27
ENDBRANCH  25  26
ENDBRANCH   4  25
TORSDOF 10
ENDMDL