MODEL 2
REMARK VINA RESULT: -6.602527412      2.084      3.566
REMARK  8 active torsions:
REMARK  status: ('A' for Active; 'I' for Inactive)
REMARK    1  A    between atoms: C2_2  and  O1_3
REMARK    2  A    between atoms: O1_3  and  C3_4
REMARK    3  A    between atoms: C4_6  and  O3_7
REMARK    4  A    between atoms: C7_11  and  O4_12
REMARK    5  A    between atoms: O4_12  and  C8_13
REMARK    6  A    between atoms: C8_13  and  N2_17
REMARK    7  A    between atoms: N2_17  and  N3_19
REMARK       I    between atoms: N3_19  and  C9_21
REMARK    8  A    between atoms: C12_26  and  N5_27
ROOT
HETATM    1  C3  UNL     1      29.828   0.568 168.085  1.00  0.00     0.270 C
HETATM    2  O2  UNL     1      28.589   0.674 167.452  1.00  0.00    -0.323 OA
HETATM    3  C4  UNL     1      28.100  -0.546 166.983  1.00  0.00     0.185 C
HETATM    4  C5  UNL     1      28.228  -0.736 165.515  1.00  0.00     0.073 C
HETATM    5  C6  UNL     1      29.602  -0.492 164.928  1.00  0.00     0.038 C
HETATM    6  C7  UNL     1      30.525   0.237 165.810  1.00  0.00     0.141 C
HETATM    7  C10 UNL     1      30.643  -0.354 167.208  1.00  0.00     0.073 C
HETATM    8  C11 UNL     1      30.145  -1.781 167.302  1.00  0.00     0.043 C
HETATM    9  C12 UNL     1      28.731  -1.712 167.748  1.00  0.00     0.149 C
ENDROOT
BRANCH   6  10
HETATM   10  O4  UNL     1      31.783   0.442 165.262  1.00  0.00    -0.315 OA
BRANCH  10  11
HETATM   11  C8  UNL     1      32.613   1.561 165.400  1.00  0.00     0.232 C
HETATM   12  N1  UNL     1      32.230   2.637 165.776  1.00  0.00    -0.364 N
ATOM     13  H12 UNL     1      31.242   2.741 166.006  1.00  0.00     0.159 HD
ATOM     14  H11 UNL     1      32.835   3.453 165.877  1.00  0.00     0.159 HD
BRANCH  11  15
HETATM   15  N2  UNL     1      34.016   1.413 165.073  1.00  0.00    -0.262 N
ATOM     16  H2  UNL     1      34.318   0.709 164.399  1.00  0.00     0.190 HD
BRANCH  15  17
HETATM   17  N3  UNL     1      34.934   2.233 165.681  1.00  0.00    -0.251 N
HETATM   18  C9  UNL     1      35.441   1.979 166.977  1.00  0.00     0.347 C
HETATM   19  N4  UNL     1      36.376   2.826 167.590  1.00  0.00    -0.038 NA
HETATM   20  O5  UNL     1      35.039   0.953 167.614  1.00  0.00    -0.249 OA
ATOM     21  H3  UNL     1      35.263   3.057 165.179  1.00  0.00     0.191 HD
ENDBRANCH  15  17
ENDBRANCH  11  15
ENDBRANCH  10  11
ENDBRANCH   6  10
BRANCH   1  22
HETATM   22  O1  UNL     1      30.433   1.841 167.909  1.00  0.00    -0.361 OA
BRANCH  22  23
HETATM   23  C2  UNL     1      30.377   2.540 169.104  1.00  0.00     0.166 C
HETATM   24  C1  UNL     1      30.185   4.004 168.744  1.00  0.00     0.033 C
ENDBRANCH  22  23
ENDBRANCH   1  22
BRANCH   3  25
HETATM   25  O3  UNL     1      26.716  -0.528 167.259  1.00  0.00    -0.364 OA
ATOM     26  H3  UNL     1      26.385  -1.362 166.949  1.00  0.00     0.213 HD
ENDBRANCH   3  25
BRANCH   9  27
HETATM   27  N5  UNL     1      27.947  -2.869 167.768  1.00  0.00    -0.344 N
HETATM   28  C13 UNL     1      28.222  -4.049 166.925  1.00  0.00     0.146 C
HETATM   29  C14 UNL     1      26.771  -4.455 166.611  1.00  0.00     0.142 C
HETATM   30  N6  UNL     1      26.119  -4.127 167.845  1.00  0.00    -0.363 N
HETATM   31  C15 UNL     1      26.794  -3.233 168.481  1.00  0.00     0.186 C
ATOM     32  H6  UNL     1      25.246  -4.542 168.173  1.00  0.00     0.162 HD
HETATM   33  N7  UNL     1      26.422  -2.691 169.722  1.00  0.00    -0.064 NA
ENDBRANCH   9  27
TORSDOF 8
ENDMDL