MODEL 5
REMARK VINA RESULT: -6.428081495      2.163      8.346
REMARK  9 active torsions:
REMARK  status: ('A' for Active; 'I' for Inactive)
REMARK    1  A    between atoms: C1_2  and  C2_4
REMARK    2  A    between atoms: C4_7  and  O4_8
REMARK    3  A    between atoms: O4_8  and  C5_9
REMARK    4  A    between atoms: C6_10  and  O5_11
REMARK    5  A    between atoms: C7_13  and  O6_14
REMARK    6  A    between atoms: C8_16  and  O7_17
REMARK    7  A    between atoms: O7_17  and  C9_18
REMARK    8  A    between atoms: C14_23  and  O8_24
REMARK    9  A    between atoms: C15_26  and  O9_27
ROOT
HETATM    1  C5  UNL     1      29.198  -1.695 166.225  1.00  0.00     0.189 C
HETATM    2  C6  UNL     1      29.433  -3.067 165.638  1.00  0.00     0.181 C
HETATM    3  C7  UNL     1      29.571  -3.060 164.152  1.00  0.00     0.181 C
HETATM    4  C8  UNL     1      28.591  -2.079 163.549  1.00  0.00     0.184 C
HETATM    5  C14 UNL     1      28.923  -0.676 164.001  1.00  0.00     0.181 C
HETATM    6  C15 UNL     1      29.734  -0.657 165.266  1.00  0.00     0.181 C
ENDROOT
BRANCH   1   7
HETATM    7  O4  UNL     1      29.761  -1.552 167.480  1.00  0.00    -0.328 OA
BRANCH   7   8
HETATM    8  C4  UNL     1      28.930  -0.808 168.343  1.00  0.00     0.418 C
HETATM    9  O3  UNL     1      29.682   0.172 168.990  1.00  0.00    -0.308 OA
HETATM   10  C3  UNL     1      29.456   0.423 170.337  1.00  0.00     0.156 C
HETATM   11  C2  UNL     1      29.161  -0.634 171.087  1.00  0.00     0.064 C
HETATM   12  C16 UNL     1      29.121  -1.944 170.346  1.00  0.00     0.221 C
HETATM   13  O10 UNL     1      28.349  -1.722 169.211  1.00  0.00    -0.334 OA
BRANCH  11  14
HETATM   14  C1  UNL     1      28.901  -0.536 172.494  1.00  0.00     0.209 C
HETATM   15  O1  UNL     1      28.301  -1.455 173.086  1.00  0.00    -0.644 OA
HETATM   16  O2  UNL     1      29.308   0.567 173.213  1.00  0.00    -0.644 OA
ENDBRANCH  11  14
ENDBRANCH   7   8
ENDBRANCH   1   7
BRANCH   2  17
HETATM   17  O5  UNL     1      30.598  -3.656 166.167  1.00  0.00    -0.390 OA
ATOM     18  H5  UNL     1      30.916  -4.353 165.607  1.00  0.00     0.210 HD
ENDBRANCH   2  17
BRANCH   6  19
HETATM   19  O9  UNL     1      29.543   0.613 165.853  1.00  0.00    -0.390 OA
ATOM     20  H9  UNL     1      29.690   1.269 165.181  1.00  0.00     0.210 HD
ENDBRANCH   6  19
BRANCH   3  21
HETATM   21  O6  UNL     1      30.868  -2.863 163.740  1.00  0.00    -0.390 OA
ATOM     22  H6  UNL     1      31.072  -3.326 162.936  1.00  0.00     0.210 HD
ENDBRANCH   3  21
BRANCH   5  23
HETATM   23  O8  UNL     1      27.748   0.029 164.237  1.00  0.00    -0.390 OA
ATOM     24  H8  UNL     1      27.423  -0.176 165.106  1.00  0.00     0.210 HD
ENDBRANCH   5  23
BRANCH   4  25
HETATM   25  O7  UNL     1      28.646  -2.088 162.161  1.00  0.00    -0.375 OA
BRANCH  25  26
HETATM   26  C9  UNL     1      29.255  -0.950 161.647  1.00  0.00     0.122 C
HETATM   27  C10 UNL     1      30.464  -1.276 160.792  1.00  0.00     0.032 C
HETATM   28  C11 UNL     1      30.550  -0.161 159.753  1.00  0.00     0.002 C
HETATM   29  C12 UNL     1      29.296   0.674 159.953  1.00  0.00     0.002 C
HETATM   30  C13 UNL     1      28.339  -0.289 160.611  1.00  0.00     0.032 C
ENDBRANCH  25  26
ENDBRANCH   4  25
TORSDOF 9
ENDMDL