MODEL 1
REMARK VINA RESULT: -5.865944469      0.000      0.000
REMARK  11 active torsions:
REMARK  status: ('A' for Active; 'I' for Inactive)
REMARK    1  A    between atoms: C2_2  and  O1_3
REMARK    2  A    between atoms: O1_3  and  C3_4
REMARK    3  A    between atoms: C4_6  and  O3_7
REMARK    4  A    between atoms: O3_7  and  C5_8
REMARK    5  A    between atoms: C8_11  and  C10_13
REMARK    6  A    between atoms: C12_16  and  C13_17
REMARK    7  A    between atoms: C13_17  and  O5_18
REMARK    8  A    between atoms: C14_20  and  O6_21
REMARK    9  A    between atoms: C15_23  and  O7_24
REMARK   10  A    between atoms: C16_26  and  O8_27
REMARK   11  A    between atoms: C17_29  and  O9_30
ROOT
HETATM    1  O3  UNL     1      30.430  -1.421 163.762  1.00  0.00    -0.351 OA
ENDROOT
BRANCH   1   2
HETATM    2  C4  UNL     1      30.188  -0.501 164.758  1.00  0.00     0.294 C
HETATM    3  O2  UNL     1      31.334  -0.049 165.385  1.00  0.00    -0.326 OA
HETATM    4  C3  UNL     1      31.103   0.730 166.486  1.00  0.00     0.299 C
HETATM    5  C17 UNL     1      29.681   1.124 166.697  1.00  0.00     0.205 C
HETATM    6  C16 UNL     1      28.846  -0.133 166.826  1.00  0.00     0.185 C
HETATM    7  C15 UNL     1      29.199  -1.119 165.744  1.00  0.00     0.204 C
BRANCH   4   8
HETATM    8  O1  UNL     1      31.929   1.878 166.447  1.00  0.00    -0.330 OA
BRANCH   8   9
HETATM    9  C2  UNL     1      33.271   1.836 166.143  1.00  0.00     0.128 C
HETATM   10  C1  UNL     1      34.124   1.519 167.101  1.00  0.00     0.037 C
ENDBRANCH   8   9
ENDBRANCH   4   8
BRANCH   5  11
HETATM   11  O9  UNL     1      29.617   1.814 167.926  1.00  0.00    -0.388 OA
ATOM     12  H9  UNL     1      30.253   1.412 168.507  1.00  0.00     0.210 HD
ENDBRANCH   5  11
BRANCH   6  13
HETATM   13  O8  UNL     1      27.492   0.232 166.787  1.00  0.00    -0.390 OA
ATOM     14  H8  UNL     1      27.371   1.169 166.886  1.00  0.00     0.210 HD
ENDBRANCH   6  13
BRANCH   7  15
HETATM   15  O7  UNL     1      28.018  -1.420 165.072  1.00  0.00    -0.388 OA
ATOM     16  H7  UNL     1      27.849  -2.352 165.145  1.00  0.00     0.210 HD
ENDBRANCH   7  15
ENDBRANCH   1   2
BRANCH   1  17
HETATM   17  C5  UNL     1      30.329  -0.938 162.480  1.00  0.00     0.154 C
HETATM   18  C6  UNL     1      29.737   0.426 162.520  1.00  0.00     0.035 C
HETATM   19  C7  UNL     1      28.458   0.506 161.721  1.00  0.00     0.015 C
HETATM   20  C8  UNL     1      28.769   0.035 160.318  1.00  0.00    -0.008 C
HETATM   21  C9  UNL     1      27.611   0.424 159.429  1.00  0.00     0.018 C
HETATM   22  C12 UNL     1      29.046  -1.420 160.362  1.00  0.00     0.051 C
HETATM   23  C14 UNL     1      29.529  -1.932 161.685  1.00  0.00     0.154 C
BRANCH  20  24
HETATM   24  C10 UNL     1      29.999   0.789 159.794  1.00  0.00     0.154 A
HETATM   25  C11 UNL     1      30.275   0.766 158.322  1.00  0.00     0.201 A
HETATM   26  O4  UNL     1      31.023   0.032 159.210  1.00  0.00    -0.380 OA
ENDBRANCH  20  24
BRANCH  22  27
HETATM   27  C13 UNL     1      27.878  -2.283 159.941  1.00  0.00     0.172 C
BRANCH  27  28
HETATM   28  O5  UNL     1      28.196  -3.586 159.663  1.00  0.00    -0.400 OA
ATOM     29  H5  UNL     1      28.843  -3.700 158.977  1.00  0.00     0.209 HD
ENDBRANCH  27  28
ENDBRANCH  22  27
BRANCH  23  30
HETATM   30  O6  UNL     1      28.467  -2.472 162.408  1.00  0.00    -0.393 OA
ATOM     31  H6  UNL     1      28.624  -3.369 162.678  1.00  0.00     0.210 HD
ENDBRANCH  23  30
ENDBRANCH   1  17
TORSDOF 11
ENDMDL