MODEL 4
REMARK VINA RESULT: -6.189797448      2.541      5.522
REMARK  10 active torsions:
REMARK  status: ('A' for Active; 'I' for Inactive)
REMARK    1  A    between atoms: O1_2  and  C2_3
REMARK    2  A    between atoms: C3_5  and  C4_6
REMARK    3  A    between atoms: C4_6  and  O3_7
REMARK    4  A    between atoms: O3_7  and  S1_8
REMARK    5  A    between atoms: S1_8  and  N1_9
REMARK    6  A    between atoms: C5_14  and  O6_15
REMARK    7  A    between atoms: O6_15  and  C6_16
REMARK       I    between atoms: C6_16  and  N2_18
REMARK    8  A    between atoms: N2_18  and  C7_20
REMARK    9  A    between atoms: C11_24  and  O8_25
REMARK   10  A    between atoms: C12_27  and  O9_28
ROOT
HETATM    1  C2  UNL     1      30.731   2.809 167.951  1.00  0.00     0.290 C
HETATM    2  O2  UNL     1      31.461   2.644 166.807  1.00  0.00    -0.348 OA
HETATM    3  C3  UNL     1      31.780   1.308 166.626  1.00  0.00     0.182 C
HETATM    4  C5  UNL     1      30.588   0.388 166.669  1.00  0.00     0.196 C
HETATM    5  C11 UNL     1      30.106   0.372 168.101  1.00  0.00     0.183 C
HETATM    6  C12 UNL     1      30.638   1.583 168.836  1.00  0.00     0.204 C
ENDROOT
BRANCH   4   7
HETATM    7  O6  UNL     1      29.613   0.634 165.731  1.00  0.00    -0.293 OA
BRANCH   7   8
HETATM    8  C6  UNL     1      29.321  -0.097 164.601  1.00  0.00     0.361 C
HETATM    9  O7  UNL     1      28.889  -1.252 164.813  1.00  0.00    -0.238 OA
HETATM   10  N2  UNL     1      29.518   0.476 163.318  1.00  0.00    -0.329 N
ATOM     11  H2  UNL     1      29.876   1.429 163.256  1.00  0.00     0.165 HD
BRANCH  10  12
HETATM   12  C7  UNL     1      29.229  -0.241 162.090  1.00  0.00     0.024 C
HETATM   13  C8  UNL     1      27.725  -0.418 161.994  1.00  0.00     0.037 C
HETATM   14  C9  UNL     1      29.656   0.549 160.876  1.00  0.00     0.037 C
HETATM   15  C10 UNL     1      29.942  -1.569 162.040  1.00  0.00     0.037 C
ENDBRANCH  10  12
ENDBRANCH   7   8
ENDBRANCH   4   7
BRANCH   3  16
HETATM   16  C4  UNL     1      32.645   1.082 165.406  1.00  0.00     0.226 C
BRANCH  16  17
HETATM   17  O3  UNL     1      33.294   2.261 165.113  1.00  0.00    -0.257 OA
BRANCH  17  18
HETATM   18  S1  UNL     1      34.951   1.937 165.069  1.00  0.00     0.355 S
HETATM   19  O4  UNL     1      35.651   2.731 164.032  1.00  0.00    -0.176 OA
HETATM   20  O5  UNL     1      35.216   0.475 164.884  1.00  0.00    -0.176 OA
BRANCH  18  21
HETATM   21  N1  UNL     1      35.584   2.431 166.620  1.00  0.00    -0.306 N
ATOM     22  H12 UNL     1      35.088   2.975 167.327  1.00  0.00     0.171 HD
ATOM     23  H11 UNL     1      36.535   2.068 166.667  1.00  0.00     0.171 HD
ENDBRANCH  18  21
ENDBRANCH  17  18
ENDBRANCH  16  17
ENDBRANCH   3  16
BRANCH   5  24
HETATM   24  O8  UNL     1      28.724   0.389 168.206  1.00  0.00    -0.390 OA
ATOM     25  H8  UNL     1      28.416   0.859 168.972  1.00  0.00     0.210 HD
ENDBRANCH   5  24
BRANCH   6  26
HETATM   26  O9  UNL     1      29.763   1.834 169.914  1.00  0.00    -0.388 OA
ATOM     27  H9  UNL     1      29.319   1.033 170.165  1.00  0.00     0.210 HD
ENDBRANCH   6  26
BRANCH   1  28
HETATM   28  O1  UNL     1      29.485   3.365 167.751  1.00  0.00    -0.363 OA
HETATM   29  C1  UNL     1      29.523   4.706 168.099  1.00  0.00     0.204 C
ENDBRANCH   1  28
TORSDOF 10
ENDMDL