MODEL 4
REMARK VINA RESULT: -6.797466787      0.961      1.057
REMARK  10 active torsions:
REMARK  status: ('A' for Active; 'I' for Inactive)
REMARK    1  A    between atoms: O1_1  and  C1_3
REMARK    2  A    between atoms: C1_3  and  C2_4
REMARK    3  A    between atoms: C3_6  and  O3_7
REMARK    4  A    between atoms: O3_7  and  N1_8
REMARK    5  A    between atoms: C4_10  and  C5_11
REMARK    6  A    between atoms: C6_13  and  C7_14
REMARK    7  A    between atoms: C13_20  and  O5_21
REMARK    8  A    between atoms: C14_23  and  O6_24
REMARK    9  A    between atoms: C16_27  and  O7_28
REMARK   10  A    between atoms: C17_30  and  O8_31
ROOT
HETATM    1  N1  UNL     1      29.284  -1.019 164.726  1.00  0.00    -0.276 N
ATOM      2  H1  UNL     1      30.267  -1.093 164.463  1.00  0.00     0.193 HD
HETATM    3  C4  UNL     1      28.997  -0.390 165.822  1.00  0.00     0.121 C
ENDROOT
BRANCH   1   4
HETATM    4  O3  UNL     1      28.372  -1.583 163.910  1.00  0.00    -0.248 OA
BRANCH   4   5
HETATM    5  C3  UNL     1      28.668  -1.727 162.511  1.00  0.00     0.291 C
HETATM    6  O2  UNL     1      29.354  -0.619 162.072  1.00  0.00    -0.349 OA
HETATM    7  C2  UNL     1      29.866  -0.749 160.818  1.00  0.00     0.179 C
HETATM    8  C17 UNL     1      30.940  -1.812 160.694  1.00  0.00     0.178 C
HETATM    9  C16 UNL     1      30.873  -2.765 161.876  1.00  0.00     0.154 C
HETATM   10  C15 UNL     1      29.434  -3.009 162.282  1.00  0.00     0.097 C
BRANCH   7  11
HETATM   11  C1  UNL     1      28.746  -0.947 159.829  1.00  0.00     0.198 C
BRANCH  11  12
HETATM   12  O1  UNL     1      29.072  -0.392 158.571  1.00  0.00    -0.398 OA
ATOM     13  H1  UNL     1      29.864   0.130 158.621  1.00  0.00     0.209 HD
ENDBRANCH  11  12
ENDBRANCH   7  11
BRANCH   8  14
HETATM   14  O8  UNL     1      30.804  -2.530 159.509  1.00  0.00    -0.390 OA
ATOM     15  H8  UNL     1      31.189  -2.061 158.778  1.00  0.00     0.210 HD
ENDBRANCH   8  14
BRANCH   9  16
HETATM   16  O7  UNL     1      31.644  -2.264 162.922  1.00  0.00    -0.393 OA
ATOM     17  H7  UNL     1      31.284  -2.481 163.774  1.00  0.00     0.210 HD
ENDBRANCH   9  16
ENDBRANCH   4   5
ENDBRANCH   1   4
BRANCH   3  18
HETATM   18  C5  UNL     1      30.007   0.216 166.694  1.00  0.00     0.193 C
HETATM   19  O4  UNL     1      29.546   1.292 167.414  1.00  0.00    -0.370 OA
HETATM   20  C6  UNL     1      30.528   2.240 167.499  1.00  0.00     0.158 C
HETATM   21  C13 UNL     1      31.797   1.690 166.943  1.00  0.00     0.179 C
HETATM   22  C14 UNL     1      31.237   0.673 165.936  1.00  0.00     0.183 C
BRANCH  20  23
HETATM   23  C7  UNL     1      30.662   2.798 168.893  1.00  0.00     0.017 C
HETATM   24  C8  UNL     1      30.023   4.185 168.871  1.00  0.00     0.007 C
HETATM   25  C9  UNL     1      30.309   4.955 170.119  1.00  0.00     0.000 C
HETATM   26  C10 UNL     1      30.773   4.012 171.182  1.00  0.00     0.000 C
HETATM   27  C11 UNL     1      29.882   2.794 171.207  1.00  0.00     0.000 C
HETATM   28  C12 UNL     1      29.981   1.984 169.937  1.00  0.00     0.007 C
ENDBRANCH  20  23
BRANCH  21  29
HETATM   29  O5  UNL     1      32.567   2.618 166.277  1.00  0.00    -0.390 OA
ATOM     30  H5  UNL     1      32.843   2.341 165.411  1.00  0.00     0.210 HD
ENDBRANCH  21  29
BRANCH  22  31
HETATM   31  O6  UNL     1      30.847   1.378 164.785  1.00  0.00    -0.390 OA
ATOM     32  H6  UNL     1      30.974   0.832 164.018  1.00  0.00     0.210 HD
ENDBRANCH  22  31
ENDBRANCH   3  18
TORSDOF 10
ENDMDL