MODEL 4
REMARK VINA RESULT: -5.526025395      2.261      3.491
REMARK  12 active torsions:
REMARK  status: ('A' for Active; 'I' for Inactive)
REMARK    1  A    between atoms: N1_1  and  N2_4
REMARK    2  A    between atoms: N2_4  and  N3_5
REMARK    3  A    between atoms: N3_5  and  C1_7
REMARK    4  A    between atoms: C3_9  and  C4_10
REMARK    5  A    between atoms: C4_10  and  O1_11
REMARK    6  A    between atoms: C9_18  and  O3_19
REMARK    7  A    between atoms: C10_21  and  O4_22
REMARK    8  A    between atoms: O4_22  and  C11_23
REMARK    9  A    between atoms: C12_25  and  C13_26
REMARK   10  A    between atoms: C13_26  and  O6_27
REMARK   11  A    between atoms: C14_29  and  O7_30
REMARK   12  A    between atoms: C15_32  and  O8_33
ROOT
HETATM    1  C1  UNL     1      11.255  -5.480   6.419  1.00  0.00     0.146 C
HETATM    2  C2  UNL     1      11.124  -6.258   5.165  1.00  0.00     0.040 C
HETATM    3  C3  UNL     1      11.274  -7.741   5.332  1.00  0.00     0.049 C
HETATM    4  C5  UNL     1      12.614  -7.947   5.967  1.00  0.00     0.095 C
HETATM    5  C6  UNL     1      12.937  -9.413   6.003  1.00  0.00     0.043 C
HETATM    6  C7  UNL     1      14.427  -9.379   5.623  1.00  0.00     0.029 C
HETATM    7  C8  UNL     1      14.374  -8.252   4.592  1.00  0.00     0.169 C
HETATM    8  O2  UNL     1      13.561  -7.321   5.169  1.00  0.00    -0.377 OA
HETATM    9  C9  UNL     1      12.715  -7.336   7.338  1.00  0.00     0.184 C
HETATM   10  C10 UNL     1      11.952  -6.097   7.554  1.00  0.00     0.181 C
ENDROOT
BRANCH  10  11
HETATM   11  O4  UNL     1      12.793  -5.138   8.148  1.00  0.00    -0.348 OA
BRANCH  11  12
HETATM   12  C11 UNL     1      12.191  -4.413   9.148  1.00  0.00     0.292 C
HETATM   13  O5  UNL     1      11.681  -5.213  10.164  1.00  0.00    -0.348 OA
HETATM   14  C12 UNL     1      11.713  -4.457  11.331  1.00  0.00     0.179 C
HETATM   15  C14 UNL     1      13.091  -3.835  11.254  1.00  0.00     0.182 C
HETATM   16  C15 UNL     1      13.174  -3.460   9.790  1.00  0.00     0.204 C
BRANCH  14  17
HETATM   17  C13 UNL     1      11.650  -5.338  12.553  1.00  0.00     0.198 C
BRANCH  17  18
HETATM   18  O6  UNL     1      12.923  -5.673  13.013  1.00  0.00    -0.398 OA
ATOM     19  H6  UNL     1      13.092  -6.604  12.931  1.00  0.00     0.209 HD
ENDBRANCH  17  18
ENDBRANCH  14  17
BRANCH  15  20
HETATM   20  O7  UNL     1      13.207  -2.721  12.086  1.00  0.00    -0.390 OA
ATOM     21  H7  UNL     1      13.925  -2.156  11.825  1.00  0.00     0.210 HD
ENDBRANCH  15  20
BRANCH  16  22
HETATM   22  O8  UNL     1      14.477  -3.690   9.364  1.00  0.00    -0.388 OA
ATOM     23  H8  UNL     1      15.112  -3.506  10.046  1.00  0.00     0.210 HD
ENDBRANCH  16  22
ENDBRANCH  11  12
ENDBRANCH  10  11
BRANCH   1  24
HETATM   24  N3  UNL     1       9.892  -5.064   6.802  1.00  0.00    -0.245 N
ATOM     25  H3  UNL     1       9.665  -4.956   7.790  1.00  0.00     0.197 HD
BRANCH  24  26
HETATM   26  N2  UNL     1       9.025  -4.846   5.965  1.00  0.00    -0.248 NA
BRANCH  26  27
HETATM   27  N1  UNL     1       7.960  -4.872   5.357  1.00  0.00    -0.261 N
ATOM     28  H12 UNL     1       7.780  -5.864   5.512  1.00  0.00     0.193 HD
ATOM     29  H11 UNL     1       7.148  -4.581   4.813  1.00  0.00     0.193 HD
ENDBRANCH  26  27
ENDBRANCH  24  26
ENDBRANCH   1  24
BRANCH   9  30
HETATM   30  O3  UNL     1      12.368  -8.362   8.252  1.00  0.00    -0.390 OA
ATOM     31  H3  UNL     1      13.111  -8.455   8.837  1.00  0.00     0.210 HD
ENDBRANCH   9  30
BRANCH   3  32
HETATM   32  C4  UNL     1      10.127  -8.326   6.084  1.00  0.00     0.172 C
BRANCH  32  33
HETATM   33  O1  UNL     1       8.908  -7.850   5.610  1.00  0.00    -0.400 OA
ATOM     34  H1  UNL     1       8.266  -7.777   6.307  1.00  0.00     0.209 HD
ENDBRANCH  32  33
ENDBRANCH   3  32
TORSDOF 12
ENDMDL