MODEL 5
REMARK VINA RESULT: -6.487118276      3.754      7.074
REMARK  9 active torsions:
REMARK  status: ('A' for Active; 'I' for Inactive)
REMARK    1  A    between atoms: C2_2  and  C3_3
REMARK    2  A    between atoms: C4_5  and  O2_6
REMARK    3  A    between atoms: O2_6  and  C5_7
REMARK    4  A    between atoms: C7_10  and  O4_11
REMARK    5  A    between atoms: C8_13  and  O5_14
REMARK    6  A    between atoms: C9_16  and  O6_17
REMARK    7  A    between atoms: C10_19  and  O7_20
REMARK    8  A    between atoms: C11_22  and  N1_23
REMARK       I    between atoms: N1_23  and  C12_25
REMARK    9  A    between atoms: C12_25  and  C13_27
ROOT
HETATM    1  C3  UNL     1       9.619  -5.766   3.111  1.00  0.00     0.172 C
HETATM    2  O1  UNL     1       8.615  -4.844   2.952  1.00  0.00    -0.347 OA
HETATM    3  C4  UNL     1       8.420  -4.198   4.157  1.00  0.00     0.294 C
HETATM    4  C10 UNL     1       8.793  -5.142   5.247  1.00  0.00     0.199 C
HETATM    5  C11 UNL     1       9.740  -6.089   4.575  1.00  0.00     0.151 C
ENDROOT
BRANCH   3   6
HETATM    6  O2  UNL     1       7.131  -3.689   4.287  1.00  0.00    -0.326 OA
BRANCH   6   7
HETATM    7  C5  UNL     1       7.115  -2.314   4.379  1.00  0.00     0.294 C
HETATM    8  O3  UNL     1       6.196  -1.721   3.523  1.00  0.00    -0.356 OA
HETATM    9  C6  UNL     1       5.001  -1.390   4.157  1.00  0.00     0.205 C
HETATM   10  C7  UNL     1       5.173  -0.206   5.090  1.00  0.00     0.173 C
HETATM   11  C8  UNL     1       6.588  -0.309   5.646  1.00  0.00     0.182 C
HETATM   12  C9  UNL     1       6.861  -1.816   5.777  1.00  0.00     0.204 C
BRANCH  10  13
HETATM   13  O4  UNL     1       4.279  -0.242   6.135  1.00  0.00    -0.391 OA
ATOM     14  H4  UNL     1       4.719  -0.255   6.977  1.00  0.00     0.210 HD
ENDBRANCH  10  13
BRANCH  11  15
HETATM   15  O5  UNL     1       7.438   0.139   4.633  1.00  0.00    -0.390 OA
ATOM     16  H5  UNL     1       8.215  -0.407   4.679  1.00  0.00     0.210 HD
ENDBRANCH  11  15
BRANCH  12  17
HETATM   17  O6  UNL     1       7.939  -1.963   6.623  1.00  0.00    -0.388 OA
ATOM     18  H6  UNL     1       7.820  -2.639   7.279  1.00  0.00     0.210 HD
ENDBRANCH  12  17
ENDBRANCH   6   7
ENDBRANCH   3   6
BRANCH   4  19
HETATM   19  O7  UNL     1       7.728  -5.864   5.763  1.00  0.00    -0.388 OA
ATOM     20  H7  UNL     1       7.964  -6.721   6.098  1.00  0.00     0.210 HD
ENDBRANCH   4  19
BRANCH   1  21
HETATM   21  C2  UNL     1      10.913  -5.317   2.530  1.00  0.00    -0.003 C
HETATM   22  C1  UNL     1      11.026  -4.886   1.280  1.00  0.00     0.009 C
ENDBRANCH   1  21
BRANCH   5  23
HETATM   23  N1  UNL     1      11.058  -5.861   5.091  1.00  0.00    -0.345 N
HETATM   24  C12 UNL     1      11.501  -6.549   6.248  1.00  0.00     0.275 C
HETATM   25  O8  UNL     1      10.726  -7.359   6.814  1.00  0.00    -0.265 OA
ATOM     26  H1  UNL     1      11.680  -5.201   4.624  1.00  0.00     0.163 HD
BRANCH  24  27
HETATM   27  C13 UNL     1      12.829  -6.360   6.820  1.00  0.00     0.142 A
HETATM   28  C14 UNL     1      13.170  -5.311   7.674  1.00  0.00     0.045 A
HETATM   29  C15 UNL     1      14.499  -5.473   7.998  1.00  0.00     0.027 A
HETATM   30  C16 UNL     1      14.914  -6.614   7.330  1.00  0.00     0.143 A
HETATM   31  O9  UNL     1      13.899  -7.077   6.668  1.00  0.00    -0.317 OA
ENDBRANCH  24  27
ENDBRANCH   5  23
TORSDOF 9
ENDMDL