MODEL 1
REMARK VINA RESULT: -7.566096056      0.000      0.000
REMARK  10 active torsions:
REMARK  status: ('A' for Active; 'I' for Inactive)
REMARK    1  A    between atoms: O1_1  and  C1_3
REMARK    2  A    between atoms: C3_5  and  O2_6
REMARK    3  A    between atoms: C4_8  and  O3_9
REMARK    4  A    between atoms: C5_11  and  O4_12
REMARK    5  A    between atoms: O4_12  and  C6_13
REMARK    6  A    between atoms: C8_16  and  C9_17
REMARK    7  A    between atoms: C9_17  and  O6_18
REMARK    8  A    between atoms: O6_18  and  C10_19
REMARK    9  A    between atoms: C16_25  and  O7_26
REMARK   10  A    between atoms: C17_28  and  O8_29
ROOT
HETATM    1  C6  UNL     1      11.961  -5.342   7.807  1.00  0.00     0.179 C
HETATM    2  C7  UNL     1      10.564  -5.565   7.281  1.00  0.00     0.203 C
HETATM    3  O5  UNL     1      10.562  -6.056   5.980  1.00  0.00    -0.378 OA
HETATM    4  C8  UNL     1      11.235  -7.294   5.914  1.00  0.00     0.176 C
HETATM    5  C16 UNL     1      12.709  -6.969   6.059  1.00  0.00     0.180 C
HETATM    6  C17 UNL     1      12.918  -6.430   7.446  1.00  0.00     0.180 C
ENDROOT
BRANCH   1   7
HETATM    7  O4  UNL     1      11.868  -5.178   9.186  1.00  0.00    -0.348 OA
BRANCH   7   8
HETATM    8  C5  UNL     1      12.047  -3.852   9.580  1.00  0.00     0.294 C
HETATM    9  C4  UNL     1      10.752  -3.251  10.084  1.00  0.00     0.202 C
HETATM   10  C3  UNL     1      10.936  -2.374  11.280  1.00  0.00     0.156 C
HETATM   11  C2  UNL     1      11.794  -2.991  12.344  1.00  0.00     0.095 C
HETATM   12  C1  UNL     1      12.813  -3.935  11.758  1.00  0.00     0.262 C
HETATM   13  O9  UNL     1      13.104  -3.673  10.439  1.00  0.00    -0.329 OA
BRANCH   9  14
HETATM   14  O3  UNL     1      10.108  -2.503   9.096  1.00  0.00    -0.388 OA
ATOM     15  H3  UNL     1      10.637  -2.541   8.308  1.00  0.00     0.210 HD
ENDBRANCH   9  14
BRANCH  10  16
HETATM   16  O2  UNL     1       9.659  -2.134  11.820  1.00  0.00    -0.393 OA
ATOM     17  H2  UNL     1       9.107  -1.770  11.138  1.00  0.00     0.210 HD
ENDBRANCH  10  16
BRANCH  12  18
HETATM   18  O1  UNL     1      12.438  -5.249  11.998  1.00  0.00    -0.371 OA
ATOM     19  H1  UNL     1      12.639  -5.487  12.896  1.00  0.00     0.212 HD
ENDBRANCH  12  18
ENDBRANCH   7   8
ENDBRANCH   1   7
BRANCH   6  20
HETATM   20  O8  UNL     1      14.219  -5.897   7.595  1.00  0.00    -0.390 OA
ATOM     21  H8  UNL     1      14.826  -6.622   7.505  1.00  0.00     0.210 HD
ENDBRANCH   6  20
BRANCH   5  22
HETATM   22  O7  UNL     1      13.023  -6.024   5.079  1.00  0.00    -0.390 OA
ATOM     23  H7  UNL     1      13.153  -5.193   5.520  1.00  0.00     0.210 HD
ENDBRANCH   5  22
BRANCH   4  24
HETATM   24  C9  UNL     1      10.921  -7.868   4.550  1.00  0.00     0.202 C
BRANCH  24  25
HETATM   25  O6  UNL     1       9.821  -7.281   3.957  1.00  0.00    -0.383 OA
BRANCH  25  26
HETATM   26  C10 UNL     1      10.212  -6.612   2.831  1.00  0.00     0.121 C
HETATM   27  C11 UNL     1       9.704  -7.287   1.551  1.00  0.00     0.032 C
HETATM   28  C12 UNL     1      10.476  -6.647   0.436  1.00  0.00     0.002 C
HETATM   29  C13 UNL     1      10.572  -5.178   0.498  1.00  0.00     0.000 C
HETATM   30  C14 UNL     1       9.845  -4.476   1.567  1.00  0.00     0.002 C
HETATM   31  C15 UNL     1       9.586  -5.238   2.822  1.00  0.00     0.032 C
ENDBRANCH  25  26
ENDBRANCH  24  25
ENDBRANCH   4  24
TORSDOF 10
ENDMDL