MODEL 1
REMARK VINA RESULT: -6.702633102      0.000      0.000
REMARK  10 active torsions:
REMARK  status: ('A' for Active; 'I' for Inactive)
REMARK    1  A    between atoms: O1_2  and  C2_3
REMARK    2  A    between atoms: C2_3  and  C4_5
REMARK    3  A    between atoms: C4_5  and  O2_6
REMARK    4  A    between atoms: C5_9  and  S1_10
REMARK    5  A    between atoms: S1_10  and  N1_11
REMARK    6  A    between atoms: N1_11  and  C6_13
REMARK    7  A    between atoms: C6_13  and  N2_15
REMARK       I    between atoms: N2_15  and  C7_17
REMARK    8  A    between atoms: C7_17  and  C8_19
REMARK    9  A    between atoms: C12_24  and  O6_25
REMARK   10  A    between atoms: C13_27  and  O7_28
ROOT
HETATM    1  C4  UNL     1      10.470  -6.612   4.055  1.00  0.00     0.218 C
HETATM    2  O3  UNL     1      10.587  -6.892   5.398  1.00  0.00    -0.330 OA
HETATM    3  C5  UNL     1      11.820  -6.447   5.845  1.00  0.00     0.239 C
HETATM    4  C12 UNL     1      12.721  -6.783   4.682  1.00  0.00     0.193 C
HETATM    5  C13 UNL     1      11.847  -6.374   3.514  1.00  0.00     0.215 C
ENDROOT
BRANCH   3   6
HETATM    6  S1  UNL     1      12.235  -7.379   7.331  1.00  0.00    -0.018 SA
BRANCH   6   7
HETATM    7  N1  UNL     1      12.009  -6.515   8.794  1.00  0.00    -0.305 N
ATOM      8  H1  UNL     1      11.371  -6.939   9.468  1.00  0.00     0.176 HD
BRANCH   7   9
HETATM    9  C6  UNL     1      12.579  -5.323   9.172  1.00  0.00     0.184 C
HETATM   10  S2  UNL     1      14.024  -4.924   8.346  1.00  0.00    -0.040 SA
BRANCH   9  11
HETATM   11  N2  UNL     1      12.200  -4.391  10.096  1.00  0.00    -0.303 N
HETATM   12  C7  UNL     1      12.432  -4.194  11.456  1.00  0.00     0.230 C
HETATM   13  O4  UNL     1      13.113  -4.917  12.174  1.00  0.00    -0.273 OA
ATOM     14  H2  UNL     1      11.605  -3.666   9.694  1.00  0.00     0.171 HD
BRANCH  12  15
HETATM   15  C8  UNL     1      11.823  -3.001  12.177  1.00  0.00     0.104 C
HETATM   16  C9  UNL     1      10.857  -3.606  13.175  1.00  0.00     0.042 C
HETATM   17  C10 UNL     1       9.704  -2.628  13.070  1.00  0.00     0.168 C
HETATM   18  O5  UNL     1       9.654  -2.232  11.742  1.00  0.00    -0.390 OA
HETATM   19  C11 UNL     1      10.908  -2.328  11.212  1.00  0.00     0.181 C
ENDBRANCH  12  15
ENDBRANCH   9  11
ENDBRANCH   7   9
ENDBRANCH   6   7
ENDBRANCH   3   6
BRANCH   4  20
HETATM   20  O6  UNL     1      13.889  -6.022   4.688  1.00  0.00    -0.389 OA
ATOM     21  H6  UNL     1      14.149  -5.764   3.812  1.00  0.00     0.210 HD
ENDBRANCH   4  20
BRANCH   1  22
HETATM   22  C2  UNL     1       9.638  -5.359   3.902  1.00  0.00     0.181 C
HETATM   23  C3  UNL     1       9.390  -5.029   2.445  1.00  0.00     0.045 C
BRANCH  22  24
HETATM   24  O1  UNL     1       8.468  -5.408   4.614  1.00  0.00    -0.386 OA
HETATM   25  C1  UNL     1       8.243  -4.286   5.400  1.00  0.00     0.202 C
ENDBRANCH  22  24
ENDBRANCH   1  22
BRANCH   1  26
HETATM   26  O2  UNL     1       9.860  -7.715   3.459  1.00  0.00    -0.361 OA
ATOM     27  H2  UNL     1       9.535  -7.512   2.590  1.00  0.00     0.213 HD
ENDBRANCH   1  26
BRANCH   5  28
HETATM   28  O7  UNL     1      12.117  -7.124   2.373  1.00  0.00    -0.387 OA
ATOM     29  H7  UNL     1      11.484  -7.818   2.230  1.00  0.00     0.210 HD
ENDBRANCH   5  28
TORSDOF 10
ENDMDL