MODEL 3
REMARK VINA RESULT: -5.950347789      5.946      7.780
REMARK  10 active torsions:
REMARK  status: ('A' for Active; 'I' for Inactive)
REMARK    1  A    between atoms: N1_2  and  N2_3
REMARK       I    between atoms: N1_2  and  C2_6
REMARK    2  A    between atoms: C2_6  and  C3_8
REMARK    3  A    between atoms: C4_10  and  C5_11
REMARK    4  A    between atoms: C5_11  and  N3_12
REMARK    5  A    between atoms: N3_12  and  N4_14
REMARK    6  A    between atoms: C6_19  and  O3_20
REMARK    7  A    between atoms: C7_22  and  O4_23
REMARK    8  A    between atoms: C8_25  and  S1_26
REMARK    9  A    between atoms: S1_26  and  C9_27
REMARK   10  A    between atoms: C11_32  and  N7_33
ROOT
HETATM    1  C3  UNL     1      11.565  -7.874   4.593  1.00  0.00     0.232 C
HETATM    2  O2  UNL     1      12.015  -6.924   3.724  1.00  0.00    -0.365 OA
HETATM    3  C4  UNL     1      11.105  -6.307   2.924  1.00  0.00     0.173 C
HETATM    4  C6  UNL     1       9.962  -5.625   3.605  1.00  0.00     0.178 C
HETATM    5  C7  UNL     1       9.731  -6.315   4.954  1.00  0.00     0.166 C
HETATM    6  C8  UNL     1      10.044  -7.754   4.770  1.00  0.00     0.119 C
ENDROOT
BRANCH   6   7
HETATM    7  S1  UNL     1       9.413  -8.883   5.979  1.00  0.00    -0.125 SA
BRANCH   7   8
HETATM    8  C9  UNL     1       8.169 -10.032   5.425  1.00  0.00     0.209 C
HETATM    9  C10 UNL     1       8.330 -10.520   4.016  1.00  0.00     0.277 C
HETATM   10  N6  UNL     1       9.470 -11.383   3.813  1.00  0.00    -0.041 N
HETATM   11  C11 UNL     1       9.473 -12.499   4.733  1.00  0.00     0.403 C
ATOM     12  H62 UNL     1       9.527 -11.699   2.845  1.00  0.00     0.279 HD
ATOM     13  H61 UNL     1      10.344 -10.860   3.862  1.00  0.00     0.279 HD
HETATM   14  C12 UNL     1       9.272 -11.959   6.105  1.00  0.00     0.231 C
HETATM   15  O5  UNL     1       8.174 -11.149   6.261  1.00  0.00    -0.370 OA
BRANCH  11  16
HETATM   16  N7  UNL     1       8.494 -13.500   4.362  1.00  0.00    -0.048 N
ATOM     17  H73 UNL     1       8.801 -14.037   3.550  1.00  0.00     0.276 HD
ATOM     18  H72 UNL     1       8.456 -14.254   5.047  1.00  0.00     0.276 HD
ATOM     19  H71 UNL     1       7.574 -13.089   4.209  1.00  0.00     0.276 HD
ENDBRANCH  11  16
ENDBRANCH   7   8
ENDBRANCH   6   7
BRANCH   1  20
HETATM   20  C2  UNL     1      11.989  -9.255   4.344  1.00  0.00     0.267 C
HETATM   21  N1  UNL     1      12.689 -10.089   5.207  1.00  0.00    -0.270 N
HETATM   22  C1  UNL     1      13.108  -9.713   6.528  1.00  0.00     0.180 C
HETATM   23  O1  UNL     1      11.666  -9.719   3.193  1.00  0.00    -0.269 OA
BRANCH  21  24
HETATM   24  N2  UNL     1      13.023 -11.395   4.778  1.00  0.00    -0.341 N
ATOM     25  H22 UNL     1      13.884 -11.537   4.250  1.00  0.00     0.177 HD
ATOM     26  H21 UNL     1      12.374 -12.141   5.027  1.00  0.00     0.177 HD
ENDBRANCH  21  24
ENDBRANCH   1  20
BRANCH   5  27
HETATM   27  O4  UNL     1       8.402  -6.052   5.263  1.00  0.00    -0.392 OA
ATOM     28  H4  UNL     1       8.101  -6.830   5.718  1.00  0.00     0.210 HD
ENDBRANCH   5  27
BRANCH   4  29
HETATM   29  O3  UNL     1       8.801  -5.883   2.847  1.00  0.00    -0.390 OA
ATOM     30  H3  UNL     1       8.473  -6.735   3.107  1.00  0.00     0.210 HD
ENDBRANCH   4  29
BRANCH   3  31
HETATM   31  C5  UNL     1      11.863  -5.214   2.160  1.00  0.00     0.175 C
BRANCH  31  32
HETATM   32  N3  UNL     1      11.067  -4.781   1.010  1.00  0.00    -0.320 N
ATOM     33  H3  UNL     1      10.960  -3.787   0.808  1.00  0.00     0.181 HD
BRANCH  32  34
HETATM   34  N4  UNL     1      10.527  -5.614   0.290  1.00  0.00    -0.254 N
HETATM   35  N5  UNL     1      10.464  -6.507  -0.569  1.00  0.00    -0.331 N
ATOM     36  H52 UNL     1      11.455  -6.575  -0.800  1.00  0.00     0.178 HD
ATOM     37  H51 UNL     1      10.015  -7.200  -1.168  1.00  0.00     0.178 HD
ATOM     38  H4  UNL     1       9.547  -5.511   0.553  1.00  0.00     0.207 HD
ENDBRANCH  32  34
ENDBRANCH  31  32
ENDBRANCH   3  31
TORSDOF 10
ENDMDL