MODEL 1
REMARK VINA RESULT: -7.133279403      0.000      0.000
REMARK  9 active torsions:
REMARK  status: ('A' for Active; 'I' for Inactive)
REMARK    1  A    between atoms: C1_2  and  C2_4
REMARK    2  A    between atoms: C3_6  and  C4_7
REMARK    3  A    between atoms: C4_7  and  O4_8
REMARK    4  A    between atoms: O4_8  and  C5_9
REMARK    5  A    between atoms: C7_11  and  N1_12
REMARK    6  A    between atoms: C13_18  and  O5_19
REMARK    7  A    between atoms: C14_22  and  O7_23
REMARK    8  A    between atoms: C15_25  and  O8_26
REMARK    9  A    between atoms: C16_28  and  O9_29
ROOT
HETATM    1  C2  UNL     1       5.218   0.758   6.979  1.00  0.00     0.254 C
HETATM    2  O3  UNL     1       5.383  -0.558   6.883  1.00  0.00    -0.362 OA
HETATM    3  C3  UNL     1       5.464  -1.226   5.704  1.00  0.00     0.178 C
HETATM    4  C14 UNL     1       4.762  -0.571   4.544  1.00  0.00     0.180 C
HETATM    5  C15 UNL     1       3.860   0.588   4.991  1.00  0.00     0.181 C
HETATM    6  C16 UNL     1       4.709   1.525   5.817  1.00  0.00     0.189 C
ENDROOT
BRANCH   3   7
HETATM    7  C4  UNL     1       6.907  -1.552   5.389  1.00  0.00     0.205 C
BRANCH   7   8
HETATM    8  O4  UNL     1       7.084  -2.341   4.295  1.00  0.00    -0.358 OA
BRANCH   8   9
HETATM    9  C5  UNL     1       7.502  -3.622   4.472  1.00  0.00     0.265 C
HETATM   10  C6  UNL     1       8.331  -4.153   3.315  1.00  0.00     0.090 C
HETATM   11  C7  UNL     1       9.424  -4.899   4.009  1.00  0.00     0.138 C
HETATM   12  C13 UNL     1       8.936  -5.037   5.406  1.00  0.00     0.282 C
HETATM   13  O6  UNL     1       8.320  -3.777   5.604  1.00  0.00    -0.330 OA
BRANCH  11  14
HETATM   14  N1  UNL     1       9.853  -6.087   3.380  1.00  0.00    -0.403 N
HETATM   15  C8  UNL     1       9.855  -6.009   1.957  1.00  0.00     0.117 C
HETATM   16  C9  UNL     1      11.024  -5.177   1.477  1.00  0.00     0.019 C
HETATM   17  C10 UNL     1      12.243  -5.605   2.233  1.00  0.00     0.003 C
HETATM   18  C11 UNL     1      12.027  -6.949   2.935  1.00  0.00     0.019 C
HETATM   19  C12 UNL     1      10.913  -6.798   3.980  1.00  0.00     0.117 C
ENDBRANCH  11  14
BRANCH  12  20
HETATM   20  O5  UNL     1       8.005  -6.045   5.587  1.00  0.00    -0.369 OA
ATOM     21  H5  UNL     1       7.113  -5.795   5.375  1.00  0.00     0.212 HD
ENDBRANCH  12  20
ENDBRANCH   8   9
ENDBRANCH   7   8
ENDBRANCH   3   7
BRANCH   4  22
HETATM   22  O7  UNL     1       5.676  -0.114   3.582  1.00  0.00    -0.390 OA
ATOM     23  H7  UNL     1       5.827  -0.766   2.909  1.00  0.00     0.210 HD
ENDBRANCH   4  22
BRANCH   1  24
HETATM   24  C1  UNL     1       6.420   1.495   7.522  1.00  0.00     0.205 C
HETATM   25  O1  UNL     1       7.509   0.898   7.746  1.00  0.00    -0.646 OA
HETATM   26  O2  UNL     1       6.374   2.845   7.794  1.00  0.00    -0.646 OA
ENDBRANCH   1  24
BRANCH   5  27
HETATM   27  O8  UNL     1       3.299   1.187   3.895  1.00  0.00    -0.390 OA
ATOM     28  H8  UNL     1       3.295   2.130   4.010  1.00  0.00     0.210 HD
ENDBRANCH   5  27
BRANCH   6  29
HETATM   29  O9  UNL     1       5.712   2.123   5.054  1.00  0.00    -0.390 OA
ATOM     30  H9  UNL     1       5.433   2.909   4.601  1.00  0.00     0.210 HD
ENDBRANCH   6  29
TORSDOF 9
ENDMDL