MODEL 2
REMARK VINA RESULT: -6.900571636      2.346      4.043
REMARK  7 active torsions:
REMARK  status: ('A' for Active; 'I' for Inactive)
REMARK    1  A    between atoms: C2_2  and  N1_3
REMARK    2  A    between atoms: C2_2  and  C14_26
REMARK       I    between atoms: N1_3  and  C3_5
REMARK    3  A    between atoms: C3_5  and  C4_7
REMARK    4  A    between atoms: C4_7  and  N2_8
REMARK       I    between atoms: N2_8  and  C5_10
REMARK    5  A    between atoms: C5_10  and  O3_12
REMARK    6  A    between atoms: O3_12  and  C6_13
REMARK    7  A    between atoms: C12_21  and  O5_23
ROOT
HETATM    1  N2  UNL     1       9.468  -4.923   6.532  1.00  0.00    -0.328 N
ATOM      2  H2  UNL     1       9.987  -5.693   6.955  1.00  0.00     0.165 HD
HETATM    3  C5  UNL     1       8.806  -5.145   5.288  1.00  0.00     0.363 C
HETATM    4  O2  UNL     1       8.181  -4.186   4.776  1.00  0.00    -0.238 OA
ENDROOT
BRANCH   3   5
HETATM    5  O3  UNL     1       8.835  -6.374   4.645  1.00  0.00    -0.270 OA
BRANCH   5   6
HETATM    6  C6  UNL     1      10.018  -6.818   4.051  1.00  0.00     0.298 C
HETATM    7  C7  UNL     1      10.499  -8.096   4.751  1.00  0.00     0.231 C
HETATM    8  O4  UNL     1      11.485  -8.633   3.960  1.00  0.00    -0.359 OA
HETATM    9  C8  UNL     1      12.343  -7.732   3.398  1.00  0.00     0.164 C
HETATM   10  C9  UNL     1      13.765  -8.246   3.468  1.00  0.00     0.056 C
HETATM   11  S1  UNL     1      12.118  -7.616   1.579  1.00  0.00    -0.126 SA
HETATM   12  C12 UNL     1      12.287  -6.354   3.957  1.00  0.00     0.202 C
HETATM   13  C10 UNL     1      13.928  -9.256   2.370  1.00  0.00     0.014 C
HETATM   14  C11 UNL     1      13.655  -8.492   1.075  1.00  0.00     0.077 C
HETATM   15  C13 UNL     1      13.146  -6.194   5.207  1.00  0.00     0.083 C
HETATM   16  O6  UNL     1      11.031  -5.881   4.227  1.00  0.00    -0.319 OA
BRANCH  12  17
HETATM   17  O5  UNL     1      12.854  -5.487   2.993  1.00  0.00    -0.362 OA
ATOM     18  H5  UNL     1      12.837  -4.610   3.358  1.00  0.00     0.213 HD
ENDBRANCH  12  17
ENDBRANCH   5   6
ENDBRANCH   3   5
BRANCH   1  19
HETATM   19  C4  UNL     1       9.433  -3.672   7.207  1.00  0.00     0.227 C
BRANCH  19  20
HETATM   20  C3  UNL     1      10.358  -3.492   8.325  1.00  0.00     0.236 C
HETATM   21  N1  UNL     1      11.527  -4.226   8.528  1.00  0.00    -0.347 N
ATOM     22  H1  UNL     1      11.763  -4.943   7.842  1.00  0.00     0.163 HD
HETATM   23  O1  UNL     1      10.070  -2.597   9.169  1.00  0.00    -0.272 OA
BRANCH  21  24
HETATM   24  C2  UNL     1      12.429  -4.039   9.646  1.00  0.00     0.169 C
HETATM   25  C1  UNL     1      12.317  -5.098  10.683  1.00  0.00     0.042 C
BRANCH  24  26
HETATM   26  C14 UNL     1      13.832  -3.997   9.164  1.00  0.00     0.253 C
HETATM   27  N3  UNL     1      14.341  -5.116   8.431  1.00  0.00    -0.060 NA
HETATM   28  O7  UNL     1      14.537  -3.005   9.401  1.00  0.00    -0.275 OA
ENDBRANCH  24  26
ENDBRANCH  21  24
ENDBRANCH  19  20
ENDBRANCH   1  19
TORSDOF 7
ENDMDL