MODEL 3
REMARK VINA RESULT: -5.389194607      2.846      5.474
REMARK  10 active torsions:
REMARK  status: ('A' for Active; 'I' for Inactive)
REMARK    1  A    between atoms: N1_1  and  N2_4
REMARK    2  A    between atoms: N3_6  and  C1_8
REMARK    3  A    between atoms: C2_9  and  O1_10
REMARK    4  A    between atoms: C3_13  and  C4_14
REMARK    5  A    between atoms: C4_14  and  O3_15
REMARK    6  A    between atoms: C5_17  and  O4_18
REMARK    7  A    between atoms: O4_18  and  C6_19
REMARK    8  A    between atoms: C7_20  and  O5_21
REMARK    9  A    between atoms: C8_23  and  O6_24
REMARK   10  A    between atoms: C15_33  and  O7_34
ROOT
HETATM    1  C1  UNL     1      10.211  -7.142   1.555  1.00  0.00     0.187 C
HETATM    2  C2  UNL     1      11.298  -6.303   1.001  1.00  0.00     0.284 C
HETATM    3  O2  UNL     1      12.264  -5.906   1.892  1.00  0.00    -0.349 OA
HETATM    4  C3  UNL     1      12.777  -6.936   2.678  1.00  0.00     0.179 C
HETATM    5  C5  UNL     1      11.683  -7.385   3.579  1.00  0.00     0.184 C
HETATM    6  C15 UNL     1      10.596  -8.000   2.721  1.00  0.00     0.178 C
ENDROOT
BRANCH   5   7
HETATM    7  O4  UNL     1      11.975  -8.255   4.559  1.00  0.00    -0.370 OA
BRANCH   7   8
HETATM    8  C6  UNL     1      12.979  -7.981   5.435  1.00  0.00     0.188 C
HETATM    9  C7  UNL     1      13.190  -9.245   6.263  1.00  0.00     0.208 C
HETATM   10  C8  UNL     1      12.651  -8.923   7.638  1.00  0.00     0.388 C
HETATM   11  N4  UNL     1      12.747  -7.505   7.732  1.00  0.00     0.127 N
HETATM   12  C9  UNL     1      11.914  -6.947   8.745  1.00  0.00     0.276 C
HETATM   13  C14 UNL     1      12.638  -6.912   6.445  1.00  0.00     0.257 C
HETATM   14  C10 UNL     1      11.606  -5.484   8.551  1.00  0.00     0.030 C
HETATM   15  C11 UNL     1      12.824  -4.632   8.432  1.00  0.00     0.002 C
HETATM   16  C12 UNL     1      14.004  -5.341   7.820  1.00  0.00     0.002 C
HETATM   17  C13 UNL     1      13.688  -5.792   6.405  1.00  0.00     0.038 C
BRANCH   9  18
HETATM   18  O5  UNL     1      12.455 -10.320   5.770  1.00  0.00    -0.388 OA
ATOM     19  H5  UNL     1      12.948 -11.131   5.797  1.00  0.00     0.210 HD
ENDBRANCH   9  18
BRANCH  10  20
HETATM   20  O6  UNL     1      11.319  -9.329   7.790  1.00  0.00    -0.366 OA
ATOM     21  H6  UNL     1      11.144  -9.661   8.663  1.00  0.00     0.212 HD
ENDBRANCH  10  20
ENDBRANCH   7   8
ENDBRANCH   5   7
BRANCH   4  22
HETATM   22  C4  UNL     1      13.292  -8.010   1.756  1.00  0.00     0.198 C
BRANCH  22  23
HETATM   23  O3  UNL     1      14.009  -8.993   2.445  1.00  0.00    -0.398 OA
ATOM     24  H3  UNL     1      14.744  -9.319   1.938  1.00  0.00     0.209 HD
ENDBRANCH  22  23
ENDBRANCH   4  22
BRANCH   6  25
HETATM   25  O7  UNL     1       9.485  -8.162   3.549  1.00  0.00    -0.391 OA
ATOM     26  H7  UNL     1       9.535  -7.534   4.259  1.00  0.00     0.210 HD
ENDBRANCH   6  25
BRANCH   1  27
HETATM   27  N3  UNL     1       9.030  -6.365   1.920  1.00  0.00    -0.310 N
HETATM   28  N2  UNL     1       9.128  -5.430   2.710  1.00  0.00    -0.253 N
ATOM     29  H2  UNL     1       9.607  -5.897   3.480  1.00  0.00     0.207 HD
ATOM     30  H3  UNL     1       8.122  -6.600   1.519  1.00  0.00     0.182 HD
BRANCH  28  31
HETATM   31  N1  UNL     1       9.023  -4.297   3.177  1.00  0.00    -0.331 N
ATOM     32  H12 UNL     1       9.892  -3.926   2.792  1.00  0.00     0.178 HD
ATOM     33  H11 UNL     1       8.638  -3.504   3.689  1.00  0.00     0.178 HD
ENDBRANCH  28  31
ENDBRANCH   1  27
BRANCH   2  34
HETATM   34  O1  UNL     1      10.724  -5.133   0.489  1.00  0.00    -0.369 OA
ATOM     35  H1  UNL     1      11.266  -4.399   0.754  1.00  0.00     0.212 HD
ENDBRANCH   2  34
TORSDOF 10
ENDMDL