MODEL 4
REMARK VINA RESULT: -5.966717067      5.065      6.713
REMARK  9 active torsions:
REMARK  status: ('A' for Active; 'I' for Inactive)
REMARK    1  A    between atoms: C4_4  and  O1_5
REMARK    2  A    between atoms: C5_7  and  C6_8
REMARK    3  A    between atoms: C6_8  and  O2_9
REMARK    4  A    between atoms: O2_9  and  S1_10
REMARK    5  A    between atoms: C7_15  and  O7_16
REMARK    6  A    between atoms: O7_16  and  C8_17
REMARK    7  A    between atoms: C9_18  and  N1_19
REMARK    8  A    between atoms: C11_24  and  N2_25
REMARK    9  A    between atoms: C13_30  and  N3_31
ROOT
HETATM    1  C8  UNL     1      11.585  -6.887   3.337  1.00  0.00     0.185 C
HETATM    2  C9  UNL     1      10.102  -6.806   3.168  1.00  0.00     0.216 C
HETATM    3  C10 UNL     1       9.680  -6.888   1.699  1.00  0.00     0.068 C
HETATM    4  C11 UNL     1      10.285  -5.800   0.872  1.00  0.00     0.187 C
HETATM    5  C12 UNL     1      11.619  -5.357   1.416  1.00  0.00     0.068 C
HETATM    6  C13 UNL     1      12.303  -6.546   2.051  1.00  0.00     0.216 C
ENDROOT
BRANCH   1   7
HETATM    7  O7  UNL     1      12.081  -6.037   4.320  1.00  0.00    -0.351 OA
BRANCH   7   8
HETATM    8  C7  UNL     1      12.474  -6.708   5.461  1.00  0.00     0.264 C
HETATM    9  C2  UNL     1      12.474  -5.820   6.693  1.00  0.00     0.039 C
HETATM   10  C1  UNL     1      11.054  -5.688   7.193  1.00  0.00     0.015 C
HETATM   11  C3  UNL     1      13.297  -6.603   7.723  1.00  0.00     0.043 C
HETATM   12  C4  UNL     1      12.685  -7.962   7.896  1.00  0.00     0.149 C
HETATM   13  C5  UNL     1      12.234  -8.602   6.632  1.00  0.00     0.178 C
HETATM   14  O6  UNL     1      11.645  -7.766   5.724  1.00  0.00    -0.351 OA
BRANCH  12  15
HETATM   15  O1  UNL     1      11.671  -7.966   8.860  1.00  0.00    -0.393 OA
ATOM     16  H1  UNL     1      11.125  -8.741   8.804  1.00  0.00     0.210 HD
ENDBRANCH  12  15
BRANCH  13  17
HETATM   17  C6  UNL     1      11.334  -9.778   7.003  1.00  0.00     0.227 C
BRANCH  17  18
HETATM   18  O2  UNL     1      10.018  -9.299   7.161  1.00  0.00    -0.254 OA
BRANCH  18  19
HETATM   19  S1  UNL     1       8.986 -10.015   6.063  1.00  0.00     0.251 S
HETATM   20  O3  UNL     1       9.741 -10.423   4.807  1.00  0.00    -0.572 OA
HETATM   21  O4  UNL     1       7.915  -9.039   5.602  1.00  0.00    -0.572 OA
HETATM   22  O5  UNL     1       8.230 -11.358   6.713  1.00  0.00    -0.572 OA
ENDBRANCH  18  19
ENDBRANCH  17  18
ENDBRANCH  13  17
ENDBRANCH   7   8
ENDBRANCH   1   7
BRANCH   2  23
HETATM   23  N1  UNL     1       9.515  -5.613   3.729  1.00  0.00    -0.072 N
ATOM     24  H13 UNL     1      10.209  -4.868   3.793  1.00  0.00     0.274 HD
ATOM     25  H12 UNL     1       8.866  -5.186   3.067  1.00  0.00     0.274 HD
ATOM     26  H11 UNL     1       9.063  -5.761   4.631  1.00  0.00     0.274 HD
ENDBRANCH   2  23
BRANCH   6  27
HETATM   27  N3  UNL     1      12.408  -7.663   1.163  1.00  0.00    -0.072 N
ATOM     28  H33 UNL     1      13.245  -8.210   1.361  1.00  0.00     0.274 HD
ATOM     29  H32 UNL     1      11.698  -8.366   1.374  1.00  0.00     0.274 HD
ATOM     30  H31 UNL     1      12.372  -7.391   0.181  1.00  0.00     0.274 HD
ENDBRANCH   6  27
BRANCH   4  31
HETATM   31  N2  UNL     1      10.463  -6.229  -0.505  1.00  0.00    -0.075 N
ATOM     32  H23 UNL     1      11.438  -6.450  -0.707  1.00  0.00     0.274 HD
ATOM     33  H22 UNL     1      10.057  -7.150  -0.668  1.00  0.00     0.274 HD
ATOM     34  H21 UNL     1      10.091  -5.536  -1.155  1.00  0.00     0.274 HD
ENDBRANCH   4  31
TORSDOF 9
ENDMDL