MODEL 4
REMARK VINA RESULT: -6.769102024      1.742      7.580
REMARK  10 active torsions:
REMARK  status: ('A' for Active; 'I' for Inactive)
REMARK    1  A    between atoms: C4_5  and  O2_6
REMARK    2  A    between atoms: C5_8  and  O3_9
REMARK    3  A    between atoms: O3_9  and  C6_10
REMARK    4  A    between atoms: C7_11  and  O4_12
REMARK    5  A    between atoms: C9_15  and  O5_16
REMARK    6  A    between atoms: O5_16  and  C10_17
REMARK    7  A    between atoms: C13_20  and  C14_21
REMARK    8  A    between atoms: C14_21  and  O6_22
REMARK    9  A    between atoms: C16_25  and  O7_26
REMARK   10  A    between atoms: C17_28  and  O8_29
ROOT
HETATM    1  C6  UNL     1      12.874  -7.968   5.231  1.00  0.00     0.184 C
HETATM    2  C7  UNL     1      11.715  -7.849   6.195  1.00  0.00     0.152 C
HETATM    3  C8  UNL     1      12.446  -7.746   7.527  1.00  0.00     0.069 C
HETATM    4  C9  UNL     1      13.503  -6.714   7.205  1.00  0.00     0.155 C
HETATM    5  C17 UNL     1      13.884  -6.981   5.782  1.00  0.00     0.178 C
ENDROOT
BRANCH   4   6
HETATM    6  O5  UNL     1      13.031  -5.414   7.410  1.00  0.00    -0.375 OA
BRANCH   6   7
HETATM    7  C10 UNL     1      12.937  -5.084   8.740  1.00  0.00     0.150 C
HETATM    8  C11 UNL     1      13.785  -3.891   9.126  1.00  0.00     0.035 C
HETATM    9  C12 UNL     1      13.777  -3.821  10.641  1.00  0.00     0.009 C
HETATM   10  C13 UNL     1      12.393  -3.470  11.100  1.00  0.00     0.012 C
HETATM   11  C15 UNL     1      11.415  -3.502   9.953  1.00  0.00     0.041 C
HETATM   12  C16 UNL     1      11.513  -4.759   9.134  1.00  0.00     0.147 C
BRANCH  10  13
HETATM   13  C14 UNL     1      11.883  -4.421  12.164  1.00  0.00     0.168 C
BRANCH  13  14
HETATM   14  O6  UNL     1      12.886  -5.309  12.568  1.00  0.00    -0.400 OA
ATOM     15  H6  UNL     1      13.747  -4.921  12.463  1.00  0.00     0.209 HD
ENDBRANCH  13  14
ENDBRANCH  10  13
BRANCH  12  16
HETATM   16  O7  UNL     1      10.749  -4.555   7.976  1.00  0.00    -0.393 OA
ATOM     17  H7  UNL     1       9.830  -4.513   8.211  1.00  0.00     0.210 HD
ENDBRANCH  12  16
ENDBRANCH   6   7
ENDBRANCH   4   6
BRANCH   5  18
HETATM   18  O8  UNL     1      13.847  -5.771   5.087  1.00  0.00    -0.390 OA
ATOM     19  H8  UNL     1      14.332  -5.094   5.543  1.00  0.00     0.210 HD
ENDBRANCH   5  18
BRANCH   2  20
HETATM   20  O4  UNL     1      10.873  -8.945   6.154  1.00  0.00    -0.393 OA
ATOM     21  H4  UNL     1      10.072  -8.810   6.646  1.00  0.00     0.210 HD
ENDBRANCH   2  20
BRANCH   1  22
HETATM   22  O3  UNL     1      12.567  -7.586   3.950  1.00  0.00    -0.348 OA
BRANCH  22  23
HETATM   23  C5  UNL     1      11.238  -7.255   3.754  1.00  0.00     0.294 C
HETATM   24  C4  UNL     1      10.645  -7.982   2.545  1.00  0.00     0.197 C
HETATM   25  C3  UNL     1      11.428  -7.516   1.337  1.00  0.00     0.207 C
HETATM   26  O1  UNL     1      12.472  -6.680   1.650  1.00  0.00    -0.359 OA
HETATM   27  C2  UNL     1      12.137  -5.613   2.441  1.00  0.00     0.259 C
HETATM   28  C1  UNL     1      11.747  -4.419   1.585  1.00  0.00     0.071 C
HETATM   29  O9  UNL     1      11.209  -5.890   3.414  1.00  0.00    -0.329 OA
BRANCH  24  30
HETATM   30  O2  UNL     1       9.338  -7.492   2.418  1.00  0.00    -0.388 OA
ATOM     31  H2  UNL     1       9.148  -6.976   3.193  1.00  0.00     0.210 HD
ENDBRANCH  24  30
ENDBRANCH  22  23
ENDBRANCH   1  22
TORSDOF 10
ENDMDL