MODEL 2
REMARK VINA RESULT: -6.588770199     12.904     15.929
REMARK  8 active torsions:
REMARK  status: ('A' for Active; 'I' for Inactive)
REMARK    1  A    between atoms: O1_2  and  N1_3
REMARK    2  A    between atoms: C4_7  and  O2_8
REMARK    3  A    between atoms: C5_10  and  O3_12
REMARK    4  A    between atoms: C11_18  and  O4_19
REMARK    5  A    between atoms: C18_27  and  C19_28
REMARK    6  A    between atoms: C19_28  and  O6_33
REMARK    7  A    between atoms: N2_29  and  O5_31
REMARK    8  A    between atoms: C25_39  and  O7_41
ROOT
HETATM    1  N1  UNL     1      -9.344   6.325 -23.517  1.00  0.00    -0.272 N
ATOM      2  H1  UNL     1      -8.607   5.621 -23.576  1.00  0.00     0.193 HD
HETATM    3  C2  UNL     1      -9.607   6.754 -22.324  1.00  0.00     0.054 C
HETATM    4  C3  UNL     1      -8.736   6.076 -21.376  1.00  0.00     0.080 C
HETATM    5  C4  UNL     1      -8.382   4.632 -21.647  1.00  0.00     0.163 C
HETATM    6  C5  UNL     1      -9.235   4.217 -20.446  1.00  0.00     0.089 C
HETATM    7  C6  UNL     1     -10.438   3.487 -20.931  1.00  0.00     0.049 C
HETATM    8  C7  UNL     1      -9.308   5.625 -20.068  1.00  0.00     0.005 C
HETATM    9  C8  UNL     1      -8.287   5.960 -18.966  1.00  0.00     0.020 C
HETATM   10  C9  UNL     1     -10.617   6.303 -19.904  1.00  0.00     0.005 C
HETATM   11  C10 UNL     1     -10.324   7.769 -19.881  1.00  0.00     0.047 C
HETATM   12  C11 UNL     1     -11.058   8.401 -21.072  1.00  0.00     0.094 C
HETATM   13  C12 UNL     1     -12.500   8.421 -20.754  1.00  0.00     0.042 C
HETATM   14  C13 UNL     1     -13.141   7.186 -20.248  1.00  0.00     0.009 C
HETATM   15  C14 UNL     1     -12.745   6.774 -18.861  1.00  0.00    -0.001 C
HETATM   16  C15 UNL     1     -11.528   5.840 -18.834  1.00  0.00    -0.005 C
HETATM   17  C16 UNL     1     -11.039   5.842 -17.436  1.00  0.00     0.007 C
HETATM   18  C17 UNL     1     -12.111   5.340 -16.518  1.00  0.00     0.019 C
HETATM   19  C18 UNL     1     -13.443   6.000 -16.625  1.00  0.00     0.034 C
HETATM   20  C21 UNL     1     -14.551   4.972 -16.605  1.00  0.00     0.020 C
HETATM   21  C22 UNL     1     -14.310   4.858 -18.130  1.00  0.00     0.012 C
HETATM   22  C23 UNL     1     -13.873   6.283 -18.040  1.00  0.00    -0.025 C
HETATM   23  C24 UNL     1     -15.037   7.215 -18.092  1.00  0.00     0.016 C
HETATM   24  C25 UNL     1     -10.676   7.771 -22.356  1.00  0.00     0.125 C
HETATM   25  C26 UNL     1     -10.302   8.855 -23.350  1.00  0.00     0.056 C
ENDROOT
BRANCH  19  26
HETATM   26  C19 UNL     1     -13.598   7.145 -15.711  1.00  0.00     0.146 C
HETATM   27  N2  UNL     1     -13.017   8.265 -15.760  1.00  0.00    -0.250 N
ATOM     28  H2  UNL     1     -13.277   8.916 -15.019  1.00  0.00     0.196 HD
BRANCH  27  29
HETATM   29  O5  UNL     1     -12.110   8.736 -16.634  1.00  0.00    -0.288 OA
ATOM     30  H5  UNL     1     -11.533   9.487 -16.574  1.00  0.00     0.244 HD
ENDBRANCH  27  29
BRANCH  26  31
HETATM   31  O6  UNL     1     -14.507   6.963 -14.657  1.00  0.00    -0.342 OA
HETATM   32  C20 UNL     1     -15.336   8.047 -14.260  1.00  0.00     0.211 C
ENDBRANCH  26  31
ENDBRANCH  19  26
BRANCH  12  33
HETATM   33  O4  UNL     1     -10.610   9.746 -21.000  1.00  0.00    -0.386 OA
ATOM     34  H4  UNL     1     -11.391  10.190 -20.692  1.00  0.00     0.210 HD
ENDBRANCH  12  33
BRANCH   6  35
HETATM   35  O3  UNL     1      -8.552   3.428 -19.510  1.00  0.00    -0.387 OA
ATOM     36  H3  UNL     1      -9.106   2.809 -19.050  1.00  0.00     0.210 HD
ENDBRANCH   6  35
BRANCH  24  37
HETATM   37  O7  UNL     1     -11.864   7.201 -22.886  1.00  0.00    -0.381 OA
ATOM     38  H7  UNL     1     -12.423   6.910 -22.175  1.00  0.00     0.211 HD
ENDBRANCH  24  37
BRANCH   5  39
HETATM   39  O2  UNL     1      -8.770   4.082 -22.837  1.00  0.00    -0.392 OA
ATOM     40  H2  UNL     1      -9.426   3.395 -22.823  1.00  0.00     0.210 HD
ENDBRANCH   5  39
BRANCH   1  41
HETATM   41  O1  UNL     1      -9.899   6.672 -24.679  1.00  0.00    -0.285 OA
HETATM   42  C1  UNL     1     -10.155   5.680 -25.656  1.00  0.00     0.237 C
ENDBRANCH   1  41
TORSDOF 8
ENDMDL