MODEL 3
REMARK VINA RESULT: -5.933679063      2.601      6.997
REMARK  8 active torsions:
REMARK  status: ('A' for Active; 'I' for Inactive)
REMARK    1  A    between atoms: C2_2  and  O2_4
REMARK    2  A    between atoms: O2_4  and  C3_5
REMARK    3  A    between atoms: C4_6  and  O3_7
REMARK    4  A    between atoms: C14_18  and  C15_19
REMARK    5  A    between atoms: C15_19  and  C16_20
REMARK    6  A    between atoms: C16_20  and  O4_21
REMARK    7  A    between atoms: C20_27  and  O6_28
REMARK    8  A    between atoms: N1_33  and  O7_34
ROOT
HETATM    1  C3  UNL     1      -9.096   4.963 -21.492  1.00  0.00     0.173 C
HETATM    2  C4  UNL     1      -9.337   5.482 -22.972  1.00  0.00     0.149 C
HETATM    3  C5  UNL     1     -10.642   6.112 -22.836  1.00  0.00     0.042 C
HETATM    4  C6  UNL     1     -11.360   5.265 -21.837  1.00  0.00     0.027 C
HETATM    5  C7  UNL     1     -10.420   4.344 -21.124  1.00  0.00     0.015 C
HETATM    6  C8  UNL     1     -10.260   2.969 -21.782  1.00  0.00     0.023 C
HETATM    7  C9  UNL     1     -10.723   4.200 -19.664  1.00  0.00    -0.057 C
HETATM    8  C10 UNL     1      -9.949   4.960 -18.648  1.00  0.00    -0.080 C
HETATM    9  C11 UNL     1      -8.507   4.721 -18.450  1.00  0.00     0.043 C
HETATM   10  C12 UNL     1     -10.399   6.375 -18.461  1.00  0.00     0.034 C
HETATM   11  C13 UNL     1     -11.764   6.307 -17.886  1.00  0.00     0.013 C
HETATM   12  C14 UNL     1     -12.512   5.001 -18.061  1.00  0.00     0.039 C
HETATM   13  C21 UNL     1     -12.214   4.221 -19.281  1.00  0.00     0.001 C
HETATM   14  C22 UNL     1     -12.472   2.703 -18.990  1.00  0.00     0.022 C
HETATM   15  C23 UNL     1     -13.201   4.468 -20.325  1.00  0.00     0.135 C
HETATM   16  N1  UNL     1     -13.128   3.752 -21.565  1.00  0.00    -0.189 NA
HETATM   17  C24 UNL     1     -12.526   4.661 -22.523  1.00  0.00     0.036 C
HETATM   18  C25 UNL     1     -12.309   4.082 -23.860  1.00  0.00     0.034 C
HETATM   19  C26 UNL     1     -13.553   5.794 -22.725  1.00  0.00     0.034 C
ENDROOT
BRANCH  12  20
HETATM   20  C15 UNL     1     -13.818   5.226 -17.430  1.00  0.00     0.113 C
HETATM   21  O5  UNL     1     -13.449   6.301 -16.500  1.00  0.00    -0.370 OA
HETATM   22  C17 UNL     1     -14.300   6.314 -15.466  1.00  0.00     0.121 C
HETATM   23  C18 UNL     1     -15.080   7.601 -15.246  1.00  0.00     0.040 C
HETATM   24  C19 UNL     1     -15.130   5.081 -15.452  1.00  0.00     0.066 C
HETATM   25  C20 UNL     1     -14.233   4.231 -16.375  1.00  0.00     0.157 C
BRANCH  20  26
HETATM   26  C16 UNL     1     -14.947   5.882 -18.090  1.00  0.00     0.205 C
BRANCH  26  27
HETATM   27  O4  UNL     1     -14.807   7.056 -18.788  1.00  0.00    -0.398 OA
ATOM     28  H4  UNL     1     -14.688   7.893 -18.355  1.00  0.00     0.209 HD
ENDBRANCH  26  27
ENDBRANCH  20  26
BRANCH  25  29
HETATM   29  O6  UNL     1     -13.198   3.901 -15.487  1.00  0.00    -0.392 OA
ATOM     30  H6  UNL     1     -12.819   4.657 -15.053  1.00  0.00     0.210 HD
ENDBRANCH  25  29
ENDBRANCH  12  20
BRANCH  16  31
HETATM   31  O7  UNL     1     -14.262   3.244 -22.027  1.00  0.00    -0.312 OA
ATOM     32  H7  UNL     1     -14.210   2.388 -22.436  1.00  0.00     0.237 HD
ENDBRANCH  16  31
BRANCH   1  33
HETATM   33  O2  UNL     1      -8.077   4.038 -21.818  1.00  0.00    -0.313 OA
BRANCH  33  34
HETATM   34  C2  UNL     1      -6.761   4.341 -21.762  1.00  0.00     0.255 C
HETATM   35  C1  UNL     1      -6.026   4.468 -20.483  1.00  0.00     0.126 C
HETATM   36  O1  UNL     1      -6.130   4.522 -22.825  1.00  0.00    -0.266 OA
ENDBRANCH  33  34
ENDBRANCH   1  33
BRANCH   2  37
HETATM   37  O3  UNL     1      -8.360   6.427 -23.282  1.00  0.00    -0.393 OA
ATOM     38  H3  UNL     1      -8.767   7.285 -23.323  1.00  0.00     0.210 HD
ENDBRANCH   2  37
TORSDOF 8
ENDMDL