MODEL 3
REMARK VINA RESULT: -5.829836836     11.070     15.817
REMARK  9 active torsions:
REMARK  status: ('A' for Active; 'I' for Inactive)
REMARK    1  A    between atoms: C3_4  and  O2_5
REMARK    2  A    between atoms: C4_7  and  N1_8
REMARK       I    between atoms: N1_8  and  C5_10
REMARK    3  A    between atoms: C5_10  and  O4_12
REMARK    4  A    between atoms: O4_12  and  C6_13
REMARK    5  A    between atoms: C17_24  and  N2_25
REMARK       I    between atoms: N2_25  and  C18_27
REMARK    6  A    between atoms: C18_27  and  O6_29
REMARK    7  A    between atoms: O6_29  and  C19_30
REMARK    8  A    between atoms: C23_34  and  O7_35
REMARK    9  A    between atoms: C24_37  and  O8_38
ROOT
HETATM    1  C1  UNL     1       2.916   9.196 -16.465  1.00  0.00     0.042 C
HETATM    2  C2  UNL     1       2.493   7.748 -16.647  1.00  0.00     0.152 C
HETATM    3  O1  UNL     1       2.106   7.279 -15.426  1.00  0.00    -0.352 OA
HETATM    4  C3  UNL     1       2.751   6.194 -14.914  1.00  0.00     0.280 C
HETATM    5  C4  UNL     1       2.479   6.022 -13.410  1.00  0.00     0.141 C
HETATM    6  C10 UNL     1       3.613   5.150 -12.878  1.00  0.00     0.030 C
HETATM    7  C11 UNL     1       4.906   5.930 -12.809  1.00  0.00     0.002 C
HETATM    8  C12 UNL     1       6.031   5.207 -13.506  1.00  0.00     0.000 C
HETATM    9  C13 UNL     1       7.055   6.174 -14.070  1.00  0.00     0.000 C
HETATM   10  C14 UNL     1       7.294   5.805 -15.509  1.00  0.00     0.000 C
HETATM   11  C15 UNL     1       7.722   6.967 -16.348  1.00  0.00     0.002 C
HETATM   12  C16 UNL     1       6.582   7.819 -16.853  1.00  0.00     0.028 C
HETATM   13  C17 UNL     1       5.847   7.150 -18.002  1.00  0.00     0.118 C
HETATM   14  C23 UNL     1       4.446   7.731 -18.183  1.00  0.00     0.172 C
HETATM   15  C24 UNL     1       3.412   6.920 -17.455  1.00  0.00     0.177 C
ENDROOT
BRANCH   5  16
HETATM   16  N1  UNL     1       1.281   5.250 -13.264  1.00  0.00    -0.328 N
HETATM   17  C5  UNL     1      -0.008   5.787 -13.103  1.00  0.00     0.361 C
HETATM   18  O3  UNL     1      -0.129   7.060 -13.083  1.00  0.00    -0.238 OA
ATOM     19  H1  UNL     1       1.370   4.234 -13.279  1.00  0.00     0.165 HD
BRANCH  17  20
HETATM   20  O4  UNL     1      -1.146   5.047 -12.964  1.00  0.00    -0.294 OA
BRANCH  20  21
HETATM   21  C6  UNL     1      -1.859   4.452 -14.034  1.00  0.00     0.061 C
HETATM   22  C7  UNL     1      -2.374   3.117 -13.555  1.00  0.00     0.046 C
HETATM   23  C8  UNL     1      -3.050   5.304 -14.440  1.00  0.00     0.046 C
HETATM   24  C9  UNL     1      -0.992   4.246 -15.245  1.00  0.00     0.046 C
ENDBRANCH  20  21
ENDBRANCH  17  20
ENDBRANCH   5  16
BRANCH   4  25
HETATM   25  O2  UNL     1       2.260   5.067 -15.564  1.00  0.00    -0.369 OA
ATOM     26  H2  UNL     1       3.002   4.517 -15.786  1.00  0.00     0.212 HD
ENDBRANCH   4  25
BRANCH  15  27
HETATM   27  O8  UNL     1       2.647   6.175 -18.394  1.00  0.00    -0.390 OA
ATOM     28  H8  UNL     1       2.294   5.408 -17.958  1.00  0.00     0.210 HD
ENDBRANCH  15  27
BRANCH  14  29
HETATM   29  O7  UNL     1       4.106   7.708 -19.556  1.00  0.00    -0.391 OA
ATOM     30  H7  UNL     1       3.861   8.583 -19.832  1.00  0.00     0.210 HD
ENDBRANCH  14  29
BRANCH  13  31
HETATM   31  N2  UNL     1       6.590   7.481 -19.203  1.00  0.00    -0.330 N
HETATM   32  C18 UNL     1       7.281   6.516 -19.973  1.00  0.00     0.361 C
HETATM   33  O5  UNL     1       7.256   5.321 -19.610  1.00  0.00    -0.238 OA
ATOM     34  H2  UNL     1       6.615   8.454 -19.507  1.00  0.00     0.165 HD
BRANCH  32  35
HETATM   35  O6  UNL     1       7.958   6.888 -21.092  1.00  0.00    -0.294 OA
BRANCH  35  36
HETATM   36  C19 UNL     1       7.465   6.776 -22.411  1.00  0.00     0.061 C
HETATM   37  C20 UNL     1       8.106   7.878 -23.234  1.00  0.00     0.046 C
HETATM   38  C21 UNL     1       7.981   5.469 -22.975  1.00  0.00     0.046 C
HETATM   39  C22 UNL     1       5.982   6.814 -22.516  1.00  0.00     0.046 C
ENDBRANCH  35  36
ENDBRANCH  32  35
ENDBRANCH  13  31
TORSDOF 9
ENDMDL