MODEL 2
REMARK VINA RESULT: -6.242570712     11.070     14.930
REMARK  8 active torsions:
REMARK  status: ('A' for Active; 'I' for Inactive)
REMARK    1  A    between atoms: C2_2  and  O2_4
REMARK    2  A    between atoms: O2_4  and  C3_5
REMARK    3  A    between atoms: C4_7  and  O4_8
REMARK    4  A    between atoms: C9_14  and  O5_16
REMARK    5  A    between atoms: C17_24  and  O6_25
REMARK    6  A    between atoms: C20_29  and  C21_30
REMARK    7  A    between atoms: C21_30  and  O7_33
REMARK    8  A    between atoms: C26_37  and  O8_38
ROOT
HETATM    1  C3  UNL     1     -12.374   5.641 -17.822  1.00  0.00     0.206 C
HETATM    2  O3  UNL     1     -12.283   6.853 -17.205  1.00  0.00    -0.321 OA
HETATM    3  C4  UNL     1     -13.123   7.845 -17.591  1.00  0.00     0.266 C
HETATM    4  C5  UNL     1     -13.246   8.011 -19.081  1.00  0.00     0.064 C
HETATM    5  C6  UNL     1     -14.398   8.908 -19.354  1.00  0.00    -0.008 C
HETATM    6  C7  UNL     1     -15.658   8.646 -18.557  1.00  0.00     0.018 C
HETATM    7  C8  UNL     1     -14.018  10.310 -18.808  1.00  0.00     0.018 C
HETATM    8  C9  UNL     1     -14.656   9.159 -20.819  1.00  0.00     0.062 C
HETATM    9  C10 UNL     1     -16.137   9.246 -21.151  1.00  0.00     0.046 C
HETATM   10  C11 UNL     1     -13.955   8.192 -21.714  1.00  0.00     0.043 C
HETATM   11  C12 UNL     1     -13.874   6.765 -21.135  1.00  0.00    -0.003 C
HETATM   12  C13 UNL     1     -15.205   6.175 -21.255  1.00  0.00     0.011 C
HETATM   13  C14 UNL     1     -13.045   6.741 -19.892  1.00  0.00     0.012 C
HETATM   14  C15 UNL     1     -13.161   5.502 -19.057  1.00  0.00     0.060 C
HETATM   15  C16 UNL     1     -14.426   4.837 -18.796  1.00  0.00     0.016 C
HETATM   16  C17 UNL     1     -11.574   6.744 -20.367  1.00  0.00     0.077 C
HETATM   17  C18 UNL     1     -11.322   6.017 -21.651  1.00  0.00     0.040 C
HETATM   18  C19 UNL     1      -9.801   5.894 -21.667  1.00  0.00     0.011 C
HETATM   19  C20 UNL     1      -9.662   5.276 -20.291  1.00  0.00     0.033 C
HETATM   20  C24 UNL     1     -10.522   6.200 -19.461  1.00  0.00     0.025 C
HETATM   21  C25 UNL     1      -9.603   7.329 -18.956  1.00  0.00     0.022 C
HETATM   22  C26 UNL     1     -10.907   5.409 -18.293  1.00  0.00     0.193 C
ENDROOT
BRANCH  19  23
HETATM   23  C21 UNL     1      -8.331   4.889 -20.040  1.00  0.00     0.055 C
HETATM   24  C22 UNL     1      -7.491   5.463 -18.954  1.00  0.00     0.045 C
HETATM   25  C23 UNL     1      -7.430   4.815 -21.262  1.00  0.00     0.045 C
BRANCH  23  26
HETATM   26  O7  UNL     1      -8.391   3.502 -19.662  1.00  0.00    -0.390 OA
ATOM     27  H7  UNL     1      -7.772   3.402 -18.948  1.00  0.00     0.210 HD
ENDBRANCH  23  26
ENDBRANCH  19  23
BRANCH  16  28
HETATM   28  O6  UNL     1     -11.202   8.056 -20.668  1.00  0.00    -0.388 OA
ATOM     29  H6  UNL     1     -10.841   8.457 -19.886  1.00  0.00     0.210 HD
ENDBRANCH  16  28
BRANCH  22  30
HETATM   30  O8  UNL     1     -10.919   4.009 -18.518  1.00  0.00    -0.389 OA
ATOM     31  H8  UNL     1     -10.505   3.962 -19.372  1.00  0.00     0.210 HD
ENDBRANCH  22  30
BRANCH   1  32
HETATM   32  O2  UNL     1     -12.478   4.689 -16.809  1.00  0.00    -0.280 OA
BRANCH  32  33
HETATM   33  C2  UNL     1     -12.796   4.795 -15.504  1.00  0.00     0.257 C
HETATM   34  C1  UNL     1     -14.209   4.905 -15.026  1.00  0.00     0.126 C
HETATM   35  O1  UNL     1     -11.871   4.804 -14.655  1.00  0.00    -0.266 OA
ENDBRANCH  32  33
ENDBRANCH   1  32
BRANCH   3  36
HETATM   36  O4  UNL     1     -12.506   9.003 -17.015  1.00  0.00    -0.371 OA
ATOM     37  H4  UNL     1     -12.725   9.680 -17.644  1.00  0.00     0.212 HD
ENDBRANCH   3  36
BRANCH   8  38
HETATM   38  O5  UNL     1     -14.135  10.413 -21.246  1.00  0.00    -0.389 OA
ATOM     39  H5  UNL     1     -13.186  10.412 -21.276  1.00  0.00     0.210 HD
ENDBRANCH   8  38
TORSDOF 8
ENDMDL