MODEL 5
REMARK VINA RESULT: -5.972598097      3.307      6.753
REMARK  8 active torsions:
REMARK  status: ('A' for Active; 'I' for Inactive)
REMARK    1  A    between atoms: C2_2  and  C3_3
REMARK    2  A    between atoms: C3_3  and  O1_5
REMARK    3  A    between atoms: C3_3  and  C5_7
REMARK    4  A    between atoms: C8_10  and  C9_11
REMARK    5  A    between atoms: C9_11  and  O2_12
REMARK    6  A    between atoms: C11_15  and  O3_16
REMARK    7  A    between atoms: C12_18  and  O4_19
REMARK    8  A    between atoms: C20_29  and  O5_31
ROOT
HETATM    1  C5  UNL     1     -11.781   6.948 -18.586  1.00  0.00     0.025 C
HETATM    2  C6  UNL     1     -11.616   5.452 -18.760  1.00  0.00     0.022 C
HETATM    3  C7  UNL     1     -13.008   4.849 -18.997  1.00  0.00     0.010 C
HETATM    4  C8  UNL     1     -12.994   3.637 -19.863  1.00  0.00     0.024 C
HETATM    5  C10 UNL     1     -13.918   3.622 -21.025  1.00  0.00     0.042 C
HETATM    6  C11 UNL     1     -14.980   4.631 -21.151  1.00  0.00     0.148 C
HETATM    7  C12 UNL     1     -14.945   5.777 -20.146  1.00  0.00     0.156 C
HETATM    8  C13 UNL     1     -13.531   6.034 -19.838  1.00  0.00    -0.000 C
HETATM    9  C14 UNL     1     -12.939   6.173 -21.179  1.00  0.00     0.019 C
HETATM   10  C15 UNL     1     -13.133   7.283 -19.071  1.00  0.00     0.008 C
HETATM   11  C16 UNL     1     -14.147   7.928 -18.236  1.00  0.00     0.063 C
HETATM   12  C17 UNL     1     -14.079   7.808 -16.744  1.00  0.00     0.187 C
HETATM   13  C18 UNL     1     -13.319   8.814 -16.068  1.00  0.00     0.101 C
HETATM   14  N1  UNL     1     -12.729   9.624 -15.518  1.00  0.00    -0.194 NA
HETATM   15  C19 UNL     1     -15.461   7.612 -16.076  1.00  0.00     0.098 C
HETATM   16  C20 UNL     1     -15.199   6.912 -14.737  1.00  0.00     0.076 C
HETATM   17  C21 UNL     1     -16.002   7.753 -13.721  1.00  0.00     0.050 C
HETATM   18  C22 UNL     1     -15.663   5.525 -14.691  1.00  0.00     0.010 C
HETATM   19  C23 UNL     1     -14.965   4.405 -14.893  1.00  0.00    -0.005 C
HETATM   20  C24 UNL     1     -13.579   4.195 -15.209  1.00  0.00    -0.024 C
HETATM   21  C25 UNL     1     -12.917   4.343 -16.492  1.00  0.00     0.069 C
HETATM   22  C26 UNL     1     -13.770   4.612 -17.736  1.00  0.00     0.104 C
HETATM   23  C27 UNL     1     -14.809   3.576 -17.669  1.00  0.00     0.050 C
HETATM   24  O6  UNL     1     -14.380   5.823 -17.367  1.00  0.00    -0.227 OA
HETATM   25  O7  UNL     1     -13.620   6.504 -16.574  1.00  0.00    -0.213 OA
ENDROOT
BRANCH  16  26
HETATM   26  O5  UNL     1     -13.891   7.044 -14.300  1.00  0.00    -0.386 OA
ATOM     27  H5  UNL     1     -13.311   6.379 -14.652  1.00  0.00     0.211 HD
ENDBRANCH  16  26
BRANCH   1  28
HETATM   28  C3  UNL     1     -10.599   7.750 -19.089  1.00  0.00     0.058 C
HETATM   29  C4  UNL     1     -11.090   8.763 -20.178  1.00  0.00     0.046 C
BRANCH  28  30
HETATM   30  C2  UNL     1      -9.614   6.959 -19.895  1.00  0.00     0.033 C
HETATM   31  C1  UNL     1      -9.737   7.473 -21.336  1.00  0.00     0.008 C
ENDBRANCH  28  30
BRANCH  28  32
HETATM   32  O1  UNL     1     -10.028   8.614 -18.180  1.00  0.00    -0.390 OA
ATOM     33  H1  UNL     1     -10.512   9.421 -18.048  1.00  0.00     0.210 HD
ENDBRANCH  28  32
ENDBRANCH   1  28
BRANCH   7  34
HETATM   34  O4  UNL     1     -15.425   6.903 -20.866  1.00  0.00    -0.392 OA
ATOM     35  H4  UNL     1     -16.271   6.632 -21.203  1.00  0.00     0.210 HD
ENDBRANCH   7  34
BRANCH   4  36
HETATM   36  C9  UNL     1     -11.621   3.095 -20.226  1.00  0.00     0.169 C
BRANCH  36  37
HETATM   37  O2  UNL     1     -11.687   1.701 -19.921  1.00  0.00    -0.400 OA
ATOM     38  H2  UNL     1     -11.351   1.632 -19.034  1.00  0.00     0.209 HD
ENDBRANCH  36  37
ENDBRANCH   4  36
BRANCH   6  39
HETATM   39  O3  UNL     1     -16.235   3.971 -20.964  1.00  0.00    -0.393 OA
ATOM     40  H3  UNL     1     -16.921   4.571 -21.233  1.00  0.00     0.210 HD
ENDBRANCH   6  39
TORSDOF 8
ENDMDL