MODEL 3
REMARK VINA RESULT: -6.703369280      4.428      7.392
REMARK  9 active torsions:
REMARK  status: ('A' for Active; 'I' for Inactive)
REMARK    1  A    between atoms: C2_2  and  O2_4
REMARK    2  A    between atoms: O2_4  and  C3_5
REMARK    3  A    between atoms: C8_10  and  O3_11
REMARK    4  A    between atoms: O3_11  and  C9_12
REMARK    5  A    between atoms: C10_13  and  O4_14
REMARK    6  A    between atoms: C11_16  and  O5_17
REMARK    7  A    between atoms: C12_19  and  O6_20
REMARK    8  A    between atoms: C13_22  and  O7_23
REMARK    9  A    between atoms: N1_27  and  O8_29
ROOT
HETATM    1  C9  UNL     1       3.488   8.266 -16.834  1.00  0.00     0.164 C
HETATM    2  C10 UNL     1       4.896   7.641 -16.809  1.00  0.00     0.179 C
HETATM    3  C11 UNL     1       5.895   8.206 -17.728  1.00  0.00     0.181 C
HETATM    4  C12 UNL     1       5.693   9.655 -18.002  1.00  0.00     0.185 C
HETATM    5  C13 UNL     1       4.335   9.933 -18.568  1.00  0.00     0.101 C
HETATM    6  C14 UNL     1       4.383   9.808 -20.079  1.00  0.00     0.096 C
HETATM    7  C15 UNL     1       3.036  10.112 -20.592  1.00  0.00     0.013 C
HETATM    8  N1  UNL     1       2.843  11.093 -21.368  1.00  0.00    -0.277 N
ATOM      9  H1  UNL     1       1.905  11.292 -21.716  1.00  0.00     0.193 HD
HETATM   10  C16 UNL     1       1.943   9.219 -20.157  1.00  0.00     0.055 C
HETATM   11  C17 UNL     1       2.506   8.306 -19.089  1.00  0.00     0.020 C
HETATM   12  C18 UNL     1       3.212   9.118 -17.992  1.00  0.00     0.019 C
HETATM   13  C19 UNL     1       2.152  10.175 -17.616  1.00  0.00     0.021 C
ENDROOT
BRANCH   1  14
HETATM   14  O3  UNL     1       2.703   7.132 -16.822  1.00  0.00    -0.376 OA
BRANCH  14  15
HETATM   15  C8  UNL     1       1.706   6.957 -15.934  1.00  0.00     0.130 C
HETATM   16  C6  UNL     1       1.474   5.543 -15.566  1.00  0.00    -0.013 C
HETATM   17  C5  UNL     1       0.923   4.807 -16.799  1.00  0.00     0.014 C
HETATM   18  C7  UNL     1       2.744   4.818 -15.164  1.00  0.00     0.018 C
HETATM   19  C25 UNL     1       0.397   5.354 -14.514  1.00  0.00     0.006 C
HETATM   20  C4  UNL     1      -0.094   3.771 -16.481  1.00  0.00     0.033 C
HETATM   21  C3  UNL     1       0.222   2.987 -15.251  1.00  0.00     0.132 C
HETATM   22  C26 UNL     1       0.358   3.903 -14.073  1.00  0.00     0.038 C
HETATM   23  C22 UNL     1       0.394   6.259 -13.360  1.00  0.00    -0.043 C
HETATM   24  C21 UNL     1       0.691   7.650 -13.823  1.00  0.00     0.011 C
HETATM   25  C23 UNL     1       1.308   5.912 -12.224  1.00  0.00     0.015 C
HETATM   26  C24 UNL     1      -1.047   6.301 -12.821  1.00  0.00     0.015 C
HETATM   27  C20 UNL     1       1.977   7.707 -14.619  1.00  0.00     0.033 C
BRANCH  21  28
HETATM   28  O2  UNL     1      -0.773   1.997 -15.052  1.00  0.00    -0.316 OA
BRANCH  28  29
HETATM   29  C2  UNL     1      -1.464   1.811 -13.884  1.00  0.00     0.255 C
HETATM   30  C1  UNL     1      -2.626   2.636 -13.462  1.00  0.00     0.126 C
HETATM   31  O1  UNL     1      -1.105   0.891 -13.115  1.00  0.00    -0.266 OA
ENDBRANCH  28  29
ENDBRANCH  21  28
ENDBRANCH  14  15
ENDBRANCH   1  14
BRANCH   2  32
HETATM   32  O4  UNL     1       5.393   7.847 -15.501  1.00  0.00    -0.390 OA
ATOM     33  H4  UNL     1       5.406   6.992 -15.087  1.00  0.00     0.210 HD
ENDBRANCH   2  32
BRANCH   3  34
HETATM   34  O5  UNL     1       6.022   7.432 -18.896  1.00  0.00    -0.390 OA
ATOM     35  H5  UNL     1       6.923   7.394 -19.195  1.00  0.00     0.210 HD
ENDBRANCH   3  34
BRANCH   5  36
HETATM   36  O7  UNL     1       4.171  11.329 -18.360  1.00  0.00    -0.386 OA
ATOM     37  H7  UNL     1       3.453  11.556 -18.940  1.00  0.00     0.210 HD
ENDBRANCH   5  36
BRANCH   4  38
HETATM   38  O6  UNL     1       6.654  10.109 -18.900  1.00  0.00    -0.390 OA
ATOM     39  H6  UNL     1       7.400   9.521 -18.904  1.00  0.00     0.210 HD
ENDBRANCH   4  38
BRANCH   8  40
HETATM   40  O8  UNL     1       3.897  11.889 -21.740  1.00  0.00    -0.290 OA
ATOM     41  H8  UNL     1       4.050  12.713 -21.294  1.00  0.00     0.244 HD
ENDBRANCH   8  40
TORSDOF 9
ENDMDL