MODEL 4
REMARK VINA RESULT: -7.026677281      1.245      1.561
REMARK  8 active torsions:
REMARK  status: ('A' for Active; 'I' for Inactive)
REMARK    1  A    between atoms: C2_2  and  O2_4
REMARK    2  A    between atoms: O2_4  and  C3_5
REMARK    3  A    between atoms: C4_6  and  O3_7
REMARK    4  A    between atoms: C15_19  and  O4_20
REMARK    5  A    between atoms: O4_20  and  C16_21
REMARK    6  A    between atoms: C19_25  and  O6_26
REMARK    7  A    between atoms: C20_28  and  O7_29
REMARK    8  A    between atoms: C21_31  and  O8_32
ROOT
HETATM    1  C3  UNL     1       0.432   4.209 -16.657  1.00  0.00     0.168 C
HETATM    2  C4  UNL     1      -0.271   5.502 -16.506  1.00  0.00     0.149 C
HETATM    3  C5  UNL     1       0.066   6.143 -15.246  1.00  0.00     0.046 C
HETATM    4  C6  UNL     1       1.528   6.068 -14.768  1.00  0.00    -0.007 C
HETATM    5  C7  UNL     1       1.535   6.885 -13.486  1.00  0.00     0.013 C
HETATM    6  C8  UNL     1       2.047   6.288 -12.247  1.00  0.00     0.006 C
HETATM    7  C9  UNL     1       3.281   5.523 -12.203  1.00  0.00    -0.010 C
HETATM    8  C10 UNL     1       4.339   6.257 -11.397  1.00  0.00     0.011 C
HETATM    9  C11 UNL     1       3.932   5.131 -13.484  1.00  0.00    -0.040 C
HETATM   10  C12 UNL     1       5.171   4.326 -13.018  1.00  0.00     0.015 C
HETATM   11  C13 UNL     1       4.449   6.179 -14.358  1.00  0.00     0.012 C
HETATM   12  C14 UNL     1       3.868   6.354 -15.704  1.00  0.00     0.034 C
HETATM   13  C15 UNL     1       2.407   6.775 -15.736  1.00  0.00     0.133 C
HETATM   14  C22 UNL     1       3.139   4.143 -14.280  1.00  0.00     0.015 C
HETATM   15  C23 UNL     1       1.750   4.620 -14.529  1.00  0.00     0.008 C
HETATM   16  C24 UNL     1       0.997   3.645 -15.387  1.00  0.00    -0.014 C
HETATM   17  C25 UNL     1      -0.138   2.935 -14.681  1.00  0.00     0.018 C
HETATM   18  C26 UNL     1       1.912   2.505 -15.809  1.00  0.00     0.018 C
ENDROOT
BRANCH  13  19
HETATM   19  O4  UNL     1       2.415   8.090 -15.810  1.00  0.00    -0.352 OA
BRANCH  19  20
HETATM   20  C16 UNL     1       2.868   8.967 -16.634  1.00  0.00     0.291 C
HETATM   21  O5  UNL     1       2.922  10.156 -15.873  1.00  0.00    -0.351 OA
HETATM   22  C17 UNL     1       3.152  11.325 -16.418  1.00  0.00     0.152 C
HETATM   23  C18 UNL     1       2.290  12.380 -15.697  1.00  0.00     0.042 C
HETATM   24  C19 UNL     1       3.095  11.526 -17.886  1.00  0.00     0.178 C
HETATM   25  C20 UNL     1       2.916  10.322 -18.717  1.00  0.00     0.183 C
HETATM   26  C21 UNL     1       2.109   9.305 -17.899  1.00  0.00     0.204 C
BRANCH  24  27
HETATM   27  O6  UNL     1       4.196  12.233 -18.409  1.00  0.00    -0.390 OA
ATOM     28  H6  UNL     1       4.330  12.103 -19.340  1.00  0.00     0.210 HD
ENDBRANCH  24  27
BRANCH  25  29
HETATM   29  O7  UNL     1       4.106   9.698 -19.086  1.00  0.00    -0.390 OA
ATOM     30  H7  UNL     1       4.105   9.344 -19.968  1.00  0.00     0.210 HD
ENDBRANCH  25  29
BRANCH  26  31
HETATM   31  O8  UNL     1       1.971   8.252 -18.785  1.00  0.00    -0.388 OA
ATOM     32  H8  UNL     1       2.361   8.400 -19.638  1.00  0.00     0.210 HD
ENDBRANCH  26  31
ENDBRANCH  19  20
ENDBRANCH  13  19
BRANCH   2  33
HETATM   33  O3  UNL     1      -0.142   6.240 -17.666  1.00  0.00    -0.393 OA
ATOM     34  H3  UNL     1      -0.574   5.791 -18.382  1.00  0.00     0.210 HD
ENDBRANCH   2  33
BRANCH   1  35
HETATM   35  O2  UNL     1      -0.498   3.285 -17.238  1.00  0.00    -0.313 OA
BRANCH  35  36
HETATM   36  C2  UNL     1      -0.458   2.841 -18.529  1.00  0.00     0.255 C
HETATM   37  C1  UNL     1      -1.358   3.402 -19.602  1.00  0.00     0.126 C
HETATM   38  O1  UNL     1       0.359   1.932 -18.825  1.00  0.00    -0.266 OA
ENDBRANCH  35  36
ENDBRANCH   1  35
TORSDOF 8
ENDMDL