MODEL 3
REMARK VINA RESULT: -6.919005126      1.463      2.207
REMARK  9 active torsions:
REMARK  status: ('A' for Active; 'I' for Inactive)
REMARK    1  A    between atoms: N1_6  and  O1_8
REMARK    2  A    between atoms: C7_11  and  O2_13
REMARK    3  A    between atoms: C12_18  and  C13_19
REMARK    4  A    between atoms: C13_19  and  C14_20
REMARK    5  A    between atoms: C18_24  and  O3_25
REMARK    6  A    between atoms: O3_25  and  C19_26
REMARK    7  A    between atoms: C22_30  and  O5_31
REMARK    8  A    between atoms: C23_33  and  O6_34
REMARK    9  A    between atoms: C24_36  and  O7_37
ROOT
HETATM    1  C14 UNL     1       3.653   8.550 -17.389  1.00  0.00     0.041 C
HETATM    2  C15 UNL     1       2.908   8.996 -16.111  1.00  0.00    -0.004 C
HETATM    3  C16 UNL     1       2.515  10.431 -16.176  1.00  0.00     0.011 C
HETATM    4  C17 UNL     1       1.669   8.166 -15.893  1.00  0.00     0.066 C
HETATM    5  C18 UNL     1       2.106   6.733 -15.619  1.00  0.00     0.264 C
HETATM    6  O8  UNL     1       3.364   6.483 -16.147  1.00  0.00    -0.356 OA
HETATM    7  C25 UNL     1       3.577   7.022 -17.387  1.00  0.00     0.128 C
HETATM    8  C26 UNL     1       2.627   6.500 -18.446  1.00  0.00     0.040 C
ENDROOT
BRANCH   1   9
HETATM    9  C13 UNL     1       2.953   9.141 -18.523  1.00  0.00    -0.011 C
BRANCH   9  10
HETATM   10  C12 UNL     1       3.382   9.863 -19.516  1.00  0.00    -0.047 C
HETATM   11  C2  UNL     1       3.921  11.191 -19.481  1.00  0.00    -0.060 C
HETATM   12  C1  UNL     1       4.556  11.824 -18.556  1.00  0.00     0.019 C
HETATM   13  C3  UNL     1       3.621  11.796 -20.866  1.00  0.00     0.050 C
HETATM   14  C4  UNL     1       4.111  10.606 -21.632  1.00  0.00     0.050 C
HETATM   15  C5  UNL     1       3.781  10.504 -23.036  1.00  0.00     0.018 C
HETATM   16  C10 UNL     1       3.351   9.468 -20.949  1.00  0.00    -0.005 C
HETATM   17  N1  UNL     1       3.311  11.429 -23.774  1.00  0.00    -0.277 N
HETATM   18  C6  UNL     1       4.022   9.170 -23.666  1.00  0.00     0.092 C
ATOM     19  H1  UNL     1       3.119  11.226 -24.755  1.00  0.00     0.193 HD
HETATM   20  C7  UNL     1       4.525   8.145 -22.713  1.00  0.00     0.060 C
HETATM   21  C8  UNL     1       4.066   6.781 -23.235  1.00  0.00     0.046 C
HETATM   22  C9  UNL     1       4.118   8.246 -21.291  1.00  0.00     0.052 C
HETATM   23  C11 UNL     1       1.913   9.426 -21.417  1.00  0.00     0.021 C
BRANCH  17  24
HETATM   24  O1  UNL     1       3.052  12.691 -23.296  1.00  0.00    -0.290 OA
ATOM     25  H1  UNL     1       2.856  13.422 -23.871  1.00  0.00     0.244 HD
ENDBRANCH  17  24
BRANCH  20  26
HETATM   26  O2  UNL     1       5.932   8.110 -22.784  1.00  0.00    -0.390 OA
ATOM     27  H2  UNL     1       6.286   8.735 -22.162  1.00  0.00     0.210 HD
ENDBRANCH  20  26
ENDBRANCH   9  10
ENDBRANCH   1   9
BRANCH   5  28
HETATM   28  O3  UNL     1       2.039   6.528 -14.269  1.00  0.00    -0.329 OA
BRANCH  28  29
HETATM   29  C19 UNL     1       1.189   5.529 -13.863  1.00  0.00     0.294 C
HETATM   30  O4  UNL     1       1.581   4.977 -12.651  1.00  0.00    -0.351 OA
HETATM   31  C20 UNL     1       1.663   5.910 -11.632  1.00  0.00     0.152 C
HETATM   32  C21 UNL     1       3.121   6.293 -11.477  1.00  0.00     0.042 C
HETATM   33  C22 UNL     1       0.877   7.151 -11.877  1.00  0.00     0.178 C
HETATM   34  C23 UNL     1      -0.387   6.946 -12.641  1.00  0.00     0.183 C
HETATM   35  C24 UNL     1      -0.227   6.059 -13.827  1.00  0.00     0.204 C
BRANCH  33  36
HETATM   36  O5  UNL     1       0.511   7.669 -10.612  1.00  0.00    -0.390 OA
ATOM     37  H5  UNL     1      -0.027   8.437 -10.768  1.00  0.00     0.210 HD
ENDBRANCH  33  36
BRANCH  34  38
HETATM   38  O6  UNL     1      -1.431   6.495 -11.809  1.00  0.00    -0.390 OA
ATOM     39  H6  UNL     1      -1.487   7.004 -11.008  1.00  0.00     0.210 HD
ENDBRANCH  34  38
BRANCH  35  40
HETATM   40  O7  UNL     1      -1.081   4.958 -13.803  1.00  0.00    -0.388 OA
ATOM     41  H7  UNL     1      -1.256   4.716 -14.704  1.00  0.00     0.210 HD
ENDBRANCH  35  40
ENDBRANCH  28  29
ENDBRANCH   5  28
TORSDOF 9
ENDMDL