MODEL 2
REMARK VINA RESULT: -6.821300199      5.202      7.878
REMARK  7 active torsions:
REMARK  status: ('A' for Active; 'I' for Inactive)
REMARK    1  A    between atoms: C3_4  and  O2_5
REMARK    2  A    between atoms: O2_5  and  C4_6
REMARK    3  A    between atoms: C16_20  and  O3_22
REMARK    4  A    between atoms: C18_24  and  O4_25
REMARK    5  A    between atoms: C21_29  and  O5_30
REMARK    6  A    between atoms: C22_32  and  O6_33
REMARK    7  A    between atoms: C23_35  and  O7_36
ROOT
HETATM    1  C4  UNL     1       2.753   6.450 -17.432  1.00  0.00     0.125 C
HETATM    2  C5  UNL     1       1.905   7.114 -16.371  1.00  0.00     0.034 C
HETATM    3  C6  UNL     1       2.281   8.548 -16.140  1.00  0.00     0.024 C
HETATM    4  C7  UNL     1       2.930   9.164 -17.375  1.00  0.00     0.019 C
HETATM    5  C8  UNL     1       4.402   8.922 -17.283  1.00  0.00     0.028 C
HETATM    6  S1  UNL     1       2.730  10.999 -17.317  1.00  0.00    -0.087 SA
HETATM    7  S2  UNL     1       3.833  11.515 -19.103  1.00  0.00    -0.088 SA
HETATM    8  C9  UNL     1       3.452  10.104 -20.227  1.00  0.00     0.105 C
HETATM    9  C10 UNL     1       2.229   9.396 -19.815  1.00  0.00     0.009 C
HETATM   10  C11 UNL     1       1.881   8.405 -20.934  1.00  0.00     0.011 C
HETATM   11  C12 UNL     1       1.488   9.082 -22.201  1.00  0.00     0.037 C
HETATM   12  C13 UNL     1       2.529  10.060 -22.570  1.00  0.00    -0.045 C
HETATM   13  C14 UNL     1       2.940  10.457 -23.767  1.00  0.00    -0.018 C
HETATM   14  C15 UNL     1       4.037  11.483 -23.615  1.00  0.00     0.068 C
HETATM   15  C16 UNL     1       4.584  11.094 -22.231  1.00  0.00     0.093 C
HETATM   16  C17 UNL     1       5.463   9.905 -22.458  1.00  0.00     0.050 C
HETATM   17  C18 UNL     1       3.278  10.764 -21.553  1.00  0.00     0.125 C
HETATM   18  C19 UNL     1       2.252   8.602 -18.564  1.00  0.00     0.012 C
HETATM   19  C20 UNL     1       2.714   7.173 -18.754  1.00  0.00     0.038 C
ENDROOT
BRANCH   1  20
HETATM   20  O2  UNL     1       2.239   5.137 -17.553  1.00  0.00    -0.353 OA
BRANCH  20  21
HETATM   21  C3  UNL     1       1.220   4.870 -16.692  1.00  0.00     0.291 C
HETATM   22  O1  UNL     1       0.083   4.339 -17.289  1.00  0.00    -0.351 OA
HETATM   23  C2  UNL     1      -0.993   4.444 -16.418  1.00  0.00     0.152 C
HETATM   24  C1  UNL     1      -1.475   5.872 -16.269  1.00  0.00     0.042 C
HETATM   25  C23 UNL     1      -0.752   3.781 -15.096  1.00  0.00     0.178 C
HETATM   26  C22 UNL     1       0.589   4.075 -14.499  1.00  0.00     0.183 C
HETATM   27  C21 UNL     1       1.621   3.884 -15.591  1.00  0.00     0.204 C
BRANCH  25  28
HETATM   28  O7  UNL     1      -1.724   4.193 -14.193  1.00  0.00    -0.390 OA
ATOM     29  H7  UNL     1      -1.430   4.007 -13.309  1.00  0.00     0.210 HD
ENDBRANCH  25  28
BRANCH  26  30
HETATM   30  O6  UNL     1       0.707   5.366 -14.000  1.00  0.00    -0.390 OA
ATOM     31  H6  UNL     1       0.311   5.393 -13.137  1.00  0.00     0.210 HD
ENDBRANCH  26  30
BRANCH  27  32
HETATM   32  O5  UNL     1       1.436   2.587 -16.083  1.00  0.00    -0.388 OA
ATOM     33  H5  UNL     1       1.291   2.009 -15.342  1.00  0.00     0.210 HD
ENDBRANCH  27  32
ENDBRANCH  20  21
ENDBRANCH   1  20
BRANCH  17  34
HETATM   34  O4  UNL     1       2.640  12.013 -21.350  1.00  0.00    -0.381 OA
ATOM     35  H4  UNL     1       2.585  12.460 -22.186  1.00  0.00     0.211 HD
ENDBRANCH  17  34
BRANCH  15  36
HETATM   36  O3  UNL     1       5.262  12.144 -21.638  1.00  0.00    -0.386 OA
ATOM     37  H3  UNL     1       5.439  11.972 -20.721  1.00  0.00     0.210 HD
ENDBRANCH  15  36
TORSDOF 7
ENDMDL