MODEL 3
REMARK VINA RESULT: -7.160714100      0.576      1.011
REMARK  2 active torsions:
REMARK  status: ('A' for Active; 'I' for Inactive)
REMARK    1  A    between atoms: N1_2  and  C3_4
REMARK    2  A    between atoms: C5_10  and  N4_11
ROOT
HETATM    1  C3  UNL     1     120.406  -4.594 -59.549  1.00  0.00     0.682 A
HETATM    2  N2  UNL     1     120.144  -5.722 -58.867  1.00  0.00    -0.172 N
ATOM      3  H2  UNL     1     120.389  -6.664 -59.172  1.00  0.00     0.186 HD
HETATM    4  C4  UNL     1     119.509  -5.419 -57.716  1.00  0.00     0.181 A
HETATM    5  N3  UNL     1     118.949  -5.850 -56.578  1.00  0.00    -0.171 N
ATOM      6  H3  UNL     1     118.890  -6.829 -56.296  1.00  0.00     0.186 HD
HETATM    7  C5  UNL     1     118.478  -4.821 -55.859  1.00  0.00     0.702 A
HETATM    8  N8  UNL     1     118.751  -3.711 -56.563  1.00  0.00    -0.171 N
ATOM      9  H8  UNL     1     118.513  -2.763 -56.271  1.00  0.00     0.186 HD
HETATM   10  C9  UNL     1     119.387  -4.027 -57.717  1.00  0.00     0.181 A
HETATM   11  N9  UNL     1     119.942  -3.558 -58.842  1.00  0.00    -0.172 N
ATOM     12  H9  UNL     1     120.000  -2.576 -59.113  1.00  0.00     0.186 HD
ENDROOT
BRANCH   7  13
HETATM   13  N4  UNL     1     117.816  -4.889 -54.580  1.00  0.00    -0.120 N
HETATM   14  C6  UNL     1     118.182  -3.912 -53.568  1.00  0.00     0.188 C
HETATM   15  C7  UNL     1     118.569  -4.712 -52.339  1.00  0.00     0.144 C
HETATM   16  N5  UNL     1     117.492  -5.618 -52.026  1.00  0.00    -0.362 N
HETATM   17  C8  UNL     1     116.697  -6.211 -53.036  1.00  0.00     0.203 C
ATOM     18  H5  UNL     1     117.297  -5.839 -51.049  1.00  0.00     0.162 HD
HETATM   19  N6  UNL     1     115.719  -7.200 -52.698  1.00  0.00    -0.062 NA
HETATM   20  N7  UNL     1     116.865  -5.845 -54.284  1.00  0.00    -0.257 N
ATOM     21  H7  UNL     1     116.300  -6.261 -55.025  1.00  0.00     0.190 HD
ENDBRANCH   7  13
BRANCH   1  22
HETATM   22  N1  UNL     1     121.043  -4.483 -60.799  1.00  0.00    -0.226 N
HETATM   23  C1  UNL     1     121.691  -5.622 -61.382  1.00  0.00     0.168 C
HETATM   24  C2  UNL     1     121.056  -3.223 -61.493  1.00  0.00     0.168 C
ENDBRANCH   1  22
TORSDOF 2
ENDMDL