MODEL 3
REMARK VINA RESULT: -7.630209892      1.463      1.754
REMARK  3 active torsions:
REMARK  status: ('A' for Active; 'I' for Inactive)
REMARK    1  A    between atoms: N1_1  and  C1_4
REMARK    2  A    between atoms: C2_7  and  N3_8
REMARK    3  A    between atoms: C5_13  and  C6_14
ROOT
HETATM    1  C1  UNL     1     121.794  -6.785 -57.063  1.00  0.00     0.678 A
HETATM    2  N2  UNL     1     120.757  -6.203 -56.439  1.00  0.00    -0.176 N
ATOM      3  H2  UNL     1     120.950  -5.581 -55.654  1.00  0.00     0.186 HD
HETATM    4  C2  UNL     1     119.468  -6.402 -56.801  1.00  0.00     0.133 A
HETATM    5  C8  UNL     1     119.200  -7.251 -57.874  1.00  0.00     0.095 A
HETATM    6  C9  UNL     1     120.293  -7.826 -58.485  1.00  0.00     0.135 A
HETATM    7  N6  UNL     1     120.041  -8.694 -59.580  1.00  0.00    -0.082 NA
HETATM    8  N7  UNL     1     121.553  -7.614 -58.110  1.00  0.00    -0.179 N
ATOM      9  H7  UNL     1     122.324  -8.067 -58.601  1.00  0.00     0.185 HD
ENDROOT
BRANCH   4  10
HETATM   10  N3  UNL     1     118.385  -5.782 -56.133  1.00  0.00    -0.271 N
HETATM   11  C3  UNL     1     117.738  -4.779 -56.750  1.00  0.00     0.119 A
HETATM   12  C4  UNL     1     116.668  -4.124 -56.160  1.00  0.00     0.106 A
HETATM   13  N4  UNL     1     116.294  -4.516 -54.952  1.00  0.00    -0.356 N
HETATM   14  C5  UNL     1     116.933  -5.524 -54.312  1.00  0.00     0.167 A
ATOM     15  H4  UNL     1     115.510  -4.051 -54.495  1.00  0.00     0.165 HD
HETATM   16  C7  UNL     1     118.002  -6.174 -54.911  1.00  0.00     0.285 A
HETATM   17  O2  UNL     1     118.544  -7.092 -54.268  1.00  0.00    -0.265 OA
BRANCH  14  18
HETATM   18  C6  UNL     1     116.453  -5.885 -52.995  1.00  0.00     0.287 C
HETATM   19  N5  UNL     1     115.780  -7.112 -52.756  1.00  0.00    -0.056 NA
HETATM   20  O1  UNL     1     116.641  -5.084 -52.038  1.00  0.00    -0.269 OA
ENDBRANCH  14  18
ENDBRANCH   4  10
BRANCH   1  21
HETATM   21  N1  UNL     1     122.975  -6.543 -56.658  1.00  0.00    -0.234 N
ATOM     22  H12 UNL     1     123.173  -6.318 -55.682  1.00  0.00     0.174 HD
ATOM     23  H11 UNL     1     123.745  -6.575 -57.325  1.00  0.00     0.174 HD
ENDBRANCH   1  21
TORSDOF 3
ENDMDL