MODEL 3
REMARK VINA RESULT: -7.409462504      1.138      1.570
REMARK  4 active torsions:
REMARK  status: ('A' for Active; 'I' for Inactive)
REMARK    1  A    between atoms: N1_2  and  C3_4
REMARK    2  A    between atoms: C5_6  and  N2_7
REMARK    3  A    between atoms: C6_12  and  N4_13
REMARK    4  A    between atoms: C8_17  and  N6_18
ROOT
HETATM    1  C3  UNL     1     118.782  -4.764 -56.182  1.00  0.00     0.121 A
HETATM    2  C4  UNL     1     117.853  -3.810 -56.535  1.00  0.00     0.097 A
HETATM    3  C5  UNL     1     116.656  -3.811 -55.853  1.00  0.00     0.118 A
HETATM    4  N3  UNL     1     116.447  -4.733 -54.878  1.00  0.00    -0.176 N
ATOM      5  H3  UNL     1     115.555  -4.719 -54.382  1.00  0.00     0.186 HD
HETATM    6  C6  UNL     1     117.353  -5.661 -54.534  1.00  0.00     0.697 A
HETATM    7  N8  UNL     1     118.521  -5.668 -55.195  1.00  0.00    -0.176 N
ATOM      8  H8  UNL     1     119.227  -6.364 -54.955  1.00  0.00     0.186 HD
ENDROOT
BRANCH   6   9
HETATM    9  N4  UNL     1     117.084  -6.602 -53.477  1.00  0.00    -0.091 N
HETATM   10  C7  UNL     1     117.792  -6.465 -52.338  1.00  0.00     0.229 A
HETATM   11  N5  UNL     1     117.590  -7.301 -51.326  1.00  0.00    -0.187 N
HETATM   12  C8  UNL     1     116.691  -8.304 -51.377  1.00  0.00     0.680 A
ATOM     13  H5  UNL     1     118.138  -7.179 -50.475  1.00  0.00     0.185 HD
HETATM   14  N7  UNL     1     115.992  -8.431 -52.515  1.00  0.00    -0.141 N
HETATM   15  C9  UNL     1     116.192  -7.579 -53.560  1.00  0.00     0.360 A
ATOM     16  H7  UNL     1     115.300  -9.176 -52.600  1.00  0.00     0.189 HD
HETATM   17  O1  UNL     1     115.525  -7.717 -54.621  1.00  0.00    -0.245 OA
BRANCH  12  18
HETATM   18  N6  UNL     1     116.504  -9.110 -50.382  1.00  0.00    -0.234 N
ATOM     19  H62 UNL     1     116.303  -8.756 -49.446  1.00  0.00     0.174 HD
ATOM     20  H61 UNL     1     116.549 -10.123 -50.490  1.00  0.00     0.174 HD
ENDBRANCH  12  18
ENDBRANCH   6   9
BRANCH   3  21
HETATM   21  N2  UNL     1     115.784  -2.919 -56.181  1.00  0.00    -0.385 N
ATOM     22  H22 UNL     1     115.037  -2.613 -55.558  1.00  0.00     0.157 HD
ATOM     23  H21 UNL     1     115.860  -2.507 -57.111  1.00  0.00     0.157 HD
ENDBRANCH   3  21
BRANCH   1  24
HETATM   24  N1  UNL     1     120.032  -4.752 -56.863  1.00  0.00    -0.376 N
HETATM   25  C1  UNL     1     120.509  -3.455 -57.371  1.00  0.00     0.150 C
HETATM   26  C2  UNL     1     120.816  -5.933 -57.074  1.00  0.00     0.150 C
ENDBRANCH   1  24
TORSDOF 4
ENDMDL