MODEL 1
REMARK VINA RESULT: -7.755601298      0.000      0.000
REMARK  3 active torsions:
REMARK  status: ('A' for Active; 'I' for Inactive)
REMARK    1  A    between atoms: C3_6  and  N2_7
REMARK    2  A    between atoms: N2_7  and  C4_9
REMARK    3  A    between atoms: C5_12  and  N4_13
ROOT
HETATM    1  C4  UNL     1     118.465  -3.953 -56.157  1.00  0.00     0.699 A
HETATM    2  N3  UNL     1     118.345  -4.876 -55.185  1.00  0.00    -0.022 N
ATOM      3  H3  UNL     1     119.183  -5.346 -54.843  1.00  0.00     0.203 HD
HETATM    4  C5  UNL     1     117.140  -5.203 -54.642  1.00  0.00     0.697 A
HETATM    5  N6  UNL     1     116.076  -4.548 -55.135  1.00  0.00    -0.187 N
ATOM      6  H6  UNL     1     115.156  -4.766 -54.751  1.00  0.00     0.185 HD
HETATM    7  C9  UNL     1     116.155  -3.620 -56.106  1.00  0.00     0.215 A
HETATM    8  N7  UNL     1     117.378  -3.318 -56.626  1.00  0.00    -0.186 N
ATOM      9  H7  UNL     1     117.467  -2.617 -57.362  1.00  0.00     0.185 HD
ENDROOT
BRANCH   1  10
HETATM   10  N2  UNL     1     119.643  -3.705 -56.614  1.00  0.00    -0.176 N
ATOM     11  H2  UNL     1     120.269  -3.064 -56.127  1.00  0.00     0.186 HD
BRANCH  10  12
HETATM   12  C3  UNL     1     120.045  -4.340 -57.805  1.00  0.00     0.125 A
HETATM   13  C2  UNL     1     120.266  -3.582 -58.924  1.00  0.00     0.097 A
HETATM   14  C1  UNL     1     120.656  -4.165 -60.095  1.00  0.00     0.103 A
HETATM   15  N1  UNL     1     120.869  -3.451 -61.168  1.00  0.00    -0.385 N
HETATM   16  N9  UNL     1     120.818  -5.495 -60.129  1.00  0.00    -0.339 N
ATOM     17  H12 UNL     1     120.746  -2.439 -61.141  1.00  0.00     0.157 HD
ATOM     18  H11 UNL     1     121.160  -3.887 -62.042  1.00  0.00     0.157 HD
HETATM   19  C10 UNL     1     120.598  -6.243 -59.019  1.00  0.00     0.183 A
ATOM     20  H9  UNL     1     121.107  -5.948 -60.996  1.00  0.00     0.168 HD
HETATM   21  N8  UNL     1     120.211  -5.662 -57.854  1.00  0.00    -0.338 N
ATOM     22  H8  UNL     1     120.048  -6.233 -57.024  1.00  0.00     0.168 HD
ENDBRANCH  10  12
ENDBRANCH   1  10
BRANCH   4  23
HETATM   23  N4  UNL     1     117.036  -6.187 -53.609  1.00  0.00    -0.191 N
HETATM   24  C6  UNL     1     116.371  -7.469 -53.679  1.00  0.00     0.170 C
HETATM   25  C7  UNL     1     116.836  -8.182 -52.451  1.00  0.00     0.254 C
HETATM   26  N5  UNL     1     117.477  -7.229 -51.594  1.00  0.00    -0.057 N
HETATM   27  C8  UNL     1     117.621  -5.996 -52.300  1.00  0.00     0.374 C
ATOM     28  H52 UNL     1     116.989  -7.114 -50.706  1.00  0.00     0.279 HD
ATOM     29  H51 UNL     1     118.364  -7.572 -51.225  1.00  0.00     0.279 HD
ENDBRANCH   4  23
TORSDOF 3
ENDMDL