MODEL 4
REMARK VINA RESULT: -7.078787361      1.197      1.649
REMARK  3 active torsions:
REMARK  status: ('A' for Active; 'I' for Inactive)
REMARK    1  A    between atoms: N1_1  and  C1_4
REMARK    2  A    between atoms: C2_7  and  N3_8
REMARK    3  A    between atoms: C4_10  and  C5_11
ROOT
HETATM    1  N3  UNL     1     119.052  -5.295 -56.105  1.00  0.00    -0.280 N
HETATM    2  C3  UNL     1     118.493  -5.621 -54.928  1.00  0.00     0.123 A
HETATM    3  C4  UNL     1     117.486  -4.908 -54.342  1.00  0.00     0.113 A
HETATM    4  C6  UNL     1     117.045  -3.794 -55.030  1.00  0.00     0.264 A
HETATM    5  O2  UNL     1     116.118  -3.099 -54.532  1.00  0.00    -0.267 OA
HETATM    6  N5  UNL     1     117.614  -3.495 -56.187  1.00  0.00    -0.296 N
ATOM      7  H5  UNL     1     117.283  -2.671 -56.688  1.00  0.00     0.171 HD
HETATM    8  C7  UNL     1     118.605  -4.219 -56.740  1.00  0.00     0.203 A
HETATM    9  N6  UNL     1     119.139  -3.793 -57.997  1.00  0.00    -0.062 NA
ENDROOT
BRANCH   1  10
HETATM   10  C2  UNL     1     120.098  -6.083 -56.661  1.00  0.00     0.131 A
HETATM   11  N2  UNL     1     119.935  -7.409 -56.913  1.00  0.00    -0.176 N
HETATM   12  C1  UNL     1     120.918  -8.159 -57.437  1.00  0.00     0.677 A
ATOM     13  H2  UNL     1     119.039  -7.847 -56.697  1.00  0.00     0.186 HD
HETATM   14  N7  UNL     1     122.117  -7.636 -57.741  1.00  0.00    -0.202 N
HETATM   15  C9  UNL     1     122.343  -6.325 -57.515  1.00  0.00     0.110 A
ATOM     16  H7  UNL     1     122.849  -8.223 -58.138  1.00  0.00     0.183 HD
HETATM   17  C8  UNL     1     121.328  -5.549 -56.973  1.00  0.00     0.067 A
BRANCH  12  18
HETATM   18  N1  UNL     1     120.732  -9.410 -57.664  1.00  0.00    -0.234 N
ATOM     19  H12 UNL     1     121.195  -9.823 -58.474  1.00  0.00     0.174 HD
ATOM     20  H11 UNL     1     120.137  -9.965 -57.048  1.00  0.00     0.174 HD
ENDBRANCH  12  18
ENDBRANCH   1  10
BRANCH   3  21
HETATM   21  C5  UNL     1     116.898  -5.280 -53.071  1.00  0.00     0.271 C
HETATM   22  N4  UNL     1     116.149  -6.481 -52.960  1.00  0.00    -0.057 NA
HETATM   23  O1  UNL     1     117.049  -4.545 -52.069  1.00  0.00    -0.271 OA
ENDBRANCH   3  21
TORSDOF 3
ENDMDL