MODEL 1
REMARK VINA RESULT: -8.023716979      0.000      0.000
REMARK  4 active torsions:
REMARK  status: ('A' for Active; 'I' for Inactive)
REMARK    1  A    between atoms: C4_5  and  N1_6
REMARK    2  A    between atoms: N1_6  and  N2_8
REMARK    3  A    between atoms: C5_10  and  C6_11
REMARK    4  A    between atoms: N5_21  and  O3_22
ROOT
HETATM    1  O1  UNL     1     116.909  -3.391 -53.614  1.00  0.00    -0.266 OA
HETATM    2  C1  UNL     1     117.506  -4.291 -54.262  1.00  0.00     0.275 C
HETATM    3  C2  UNL     1     118.386  -3.908 -55.256  1.00  0.00     0.080 C
HETATM    4  C3  UNL     1     119.039  -4.735 -56.167  1.00  0.00     0.055 C
HETATM    5  C4  UNL     1     119.025  -6.113 -56.263  1.00  0.00     0.123 C
HETATM    6  N4  UNL     1     118.561  -6.940 -55.294  1.00  0.00    -0.291 N
ATOM      7  H4  UNL     1     118.904  -7.899 -55.348  1.00  0.00     0.172 HD
HETATM    8  C10 UNL     1     117.720  -6.698 -54.271  1.00  0.00     0.355 C
HETATM    9  O2  UNL     1     117.364  -7.676 -53.565  1.00  0.00    -0.244 OA
HETATM   10  N5  UNL     1     117.176  -5.537 -53.864  1.00  0.00    -0.134 N
ENDROOT
BRANCH   5  11
HETATM   11  N1  UNL     1     119.487  -6.650 -57.348  1.00  0.00    -0.286 N
ATOM     12  H1  UNL     1     119.600  -7.661 -57.433  1.00  0.00     0.188 HD
BRANCH  11  13
HETATM   13  N2  UNL     1     119.824  -5.795 -58.394  1.00  0.00    -0.308 N
HETATM   14  C5  UNL     1     120.755  -6.067 -59.243  1.00  0.00     0.136 C
ATOM     15  H2  UNL     1     119.313  -4.918 -58.493  1.00  0.00     0.186 HD
BRANCH  14  16
HETATM   16  C6  UNL     1     121.037  -5.110 -60.306  1.00  0.00     0.049 A
HETATM   17  C7  UNL     1     120.660  -3.776 -60.372  1.00  0.00     0.032 A
HETATM   18  C8  UNL     1     121.125  -3.221 -61.544  1.00  0.00     0.019 A
HETATM   19  C9  UNL     1     121.790  -4.223 -62.196  1.00  0.00     0.088 A
HETATM   20  N3  UNL     1     121.725  -5.336 -61.444  1.00  0.00    -0.365 N
ATOM     21  H3  UNL     1     122.140  -6.232 -61.700  1.00  0.00     0.165 HD
ENDBRANCH  14  16
ENDBRANCH  11  13
ENDBRANCH   5  11
BRANCH  10  22
HETATM   22  O3  UNL     1     116.153  -5.636 -52.922  1.00  0.00    -0.276 OA
ATOM     23  H3  UNL     1     115.472  -4.974 -52.967  1.00  0.00     0.245 HD
ENDBRANCH  10  22
TORSDOF 4
ENDMDL