MODEL 1
REMARK VINA RESULT: -7.194719523      0.000      0.000
REMARK  4 active torsions:
REMARK  status: ('A' for Active; 'I' for Inactive)
REMARK    1  A    between atoms: N1_1  and  C1_4
REMARK    2  A    between atoms: C2_9  and  S1_10
REMARK    3  A    between atoms: S1_10  and  C3_13
REMARK    4  A    between atoms: C7_23  and  N7_24
ROOT
HETATM    1  C1  UNL     1     119.611  -4.142 -57.876  1.00  0.00     0.158 A
HETATM    2  N2  UNL     1     118.926  -5.222 -57.467  1.00  0.00    -0.281 N
ATOM      3  H2  UNL     1     118.847  -6.023 -58.093  1.00  0.00     0.188 HD
HETATM    4  N3  UNL     1     118.345  -5.276 -56.263  1.00  0.00    -0.274 N
ATOM      5  H3  UNL     1     117.834  -6.115 -55.988  1.00  0.00     0.189 HD
HETATM    6  C2  UNL     1     118.426  -4.240 -55.409  1.00  0.00     0.226 A
HETATM    7  N6  UNL     1     119.109  -3.159 -55.816  1.00  0.00    -0.315 N
ATOM      8  H6  UNL     1     119.181  -2.364 -55.182  1.00  0.00     0.169 HD
HETATM    9  C7  UNL     1     119.704  -3.071 -57.016  1.00  0.00     0.146 A
ENDROOT
BRANCH   6  10
HETATM   10  S1  UNL     1     117.678  -4.279 -53.827  1.00  0.00     0.256 S
HETATM   11  O1  UNL     1     118.512  -3.455 -52.882  1.00  0.00    -0.213 OA
HETATM   12  O2  UNL     1     116.326  -3.612 -53.932  1.00  0.00    -0.213 OA
BRANCH  10  13
HETATM   13  C3  UNL     1     117.449  -5.885 -53.252  1.00  0.00     0.151 A
HETATM   14  C4  UNL     1     118.538  -6.683 -52.998  1.00  0.00     0.130 A
HETATM   15  N4  UNL     1     118.427  -7.948 -52.546  1.00  0.00    -0.371 N
HETATM   16  C5  UNL     1     117.179  -8.413 -52.346  1.00  0.00     0.104 A
ATOM     17  H4  UNL     1     119.248  -8.526 -52.364  1.00  0.00     0.164 HD
HETATM   18  C6  UNL     1     116.046  -7.660 -52.583  1.00  0.00     0.106 A
HETATM   19  N5  UNL     1     116.227  -6.388 -53.040  1.00  0.00    -0.354 N
ATOM     20  H5  UNL     1     115.410  -5.805 -53.225  1.00  0.00     0.166 HD
ENDBRANCH  10  13
ENDBRANCH   6  10
BRANCH   9  21
HETATM   21  N7  UNL     1     120.366  -2.016 -57.399  1.00  0.00    -0.382 N
ATOM     22  H72 UNL     1     120.293  -1.631 -58.340  1.00  0.00     0.157 HD
ATOM     23  H71 UNL     1     120.983  -1.555 -56.731  1.00  0.00     0.157 HD
ENDBRANCH   9  21
BRANCH   1  24
HETATM   24  N1  UNL     1     120.169  -4.101 -59.044  1.00  0.00    -0.381 N
ATOM     25  H12 UNL     1     121.111  -4.465 -59.183  1.00  0.00     0.157 HD
ATOM     26  H11 UNL     1     119.683  -3.706 -59.850  1.00  0.00     0.157 HD
ENDBRANCH   1  24
TORSDOF 4
ENDMDL