MODEL 3
REMARK VINA RESULT: -7.254012742      1.012      1.198
REMARK  2 active torsions:
REMARK  status: ('A' for Active; 'I' for Inactive)
REMARK    1  A    between atoms: N3_11  and  N4_13
REMARK    2  A    between atoms: C6_15  and  C7_17
ROOT
HETATM    1  N1  UNL     1     123.386  -6.651 -56.460  1.00  0.00    -0.385 N
ATOM      2  H11 UNL     1     123.209  -6.886 -55.483  1.00  0.00     0.157 HD
ATOM      3  H12 UNL     1     124.281  -6.701 -56.948  1.00  0.00     0.157 HD
HETATM    4  C1  UNL     1     122.380  -6.251 -57.150  1.00  0.00     0.101 C
HETATM    5  C2  UNL     1     122.619  -5.934 -58.471  1.00  0.00     0.065 C
HETATM    6  C3  UNL     1     121.727  -5.499 -59.448  1.00  0.00     0.091 C
HETATM    7  N2  UNL     1     120.441  -5.232 -59.270  1.00  0.00    -0.372 N
ATOM      8  H2  UNL     1     119.954  -4.948 -60.121  1.00  0.00     0.164 HD
HETATM    9  C4  UNL     1     119.655  -5.265 -58.172  1.00  0.00     0.137 C
HETATM   10  C5  UNL     1     120.063  -5.593 -56.911  1.00  0.00     0.137 C
HETATM   11  N3  UNL     1     119.251  -5.290 -55.978  1.00  0.00    -0.283 N
ATOM     12  H3  UNL     1     119.485  -5.502 -55.009  1.00  0.00     0.188 HD
HETATM   13  N8  UNL     1     121.186  -6.185 -56.500  1.00  0.00    -0.327 N
ATOM     14  H8  UNL     1     121.146  -6.643 -55.589  1.00  0.00     0.169 HD
ENDROOT
BRANCH  11  15
HETATM   15  N4  UNL     1     118.058  -4.676 -56.281  1.00  0.00    -0.284 N
HETATM   16  C6  UNL     1     116.983  -4.698 -55.597  1.00  0.00     0.157 C
HETATM   17  N5  UNL     1     115.853  -4.009 -56.061  1.00  0.00    -0.079 NA
ATOM     18  H4  UNL     1     118.032  -4.143 -57.150  1.00  0.00     0.188 HD
BRANCH  16  19
HETATM   19  C7  UNL     1     116.948  -5.432 -54.361  1.00  0.00     0.077 A
HETATM   20  C8  UNL     1     116.550  -6.759 -54.408  1.00  0.00     0.050 A
HETATM   21  C9  UNL     1     116.484  -7.544 -53.275  1.00  0.00     0.091 A
HETATM   22  N6  UNL     1     116.823  -6.966 -52.108  1.00  0.00    -0.362 N
HETATM   23  C10 UNL     1     117.207  -5.674 -52.083  1.00  0.00     0.180 A
ATOM     24  H6  UNL     1     116.790  -7.506 -51.243  1.00  0.00     0.165 HD
HETATM   25  N7  UNL     1     117.278  -4.898 -53.166  1.00  0.00    -0.350 N
ATOM     26  H7  UNL     1     117.576  -3.926 -53.093  1.00  0.00     0.166 HD
ENDBRANCH  16  19
ENDBRANCH  11  15
TORSDOF 2
ENDMDL