MODEL 4
REMARK VINA RESULT: -6.220488710      2.154      3.372
REMARK  2 active torsions:
REMARK  status: ('A' for Active; 'I' for Inactive)
REMARK    1  A    between atoms: O1_2  and  C2_3
REMARK    2  A    between atoms: C3_4  and  N1_5
ROOT
HETATM    1  N1  UNL     1     120.428  -4.232 -58.420  1.00  0.00    -0.257 N
HETATM    2  C4  UNL     1     119.972  -5.459 -58.008  1.00  0.00     0.161 A
HETATM    3  N2  UNL     1     120.168  -6.674 -58.714  1.00  0.00    -0.079 NA
HETATM    4  C5  UNL     1     119.308  -5.289 -56.816  1.00  0.00     0.171 A
HETATM    5  C6  UNL     1     118.648  -6.149 -55.941  1.00  0.00     0.280 A
HETATM    6  O2  UNL     1     118.608  -7.369 -56.243  1.00  0.00    -0.265 OA
HETATM    7  N3  UNL     1     118.074  -5.688 -54.813  1.00  0.00    -0.297 N
ATOM      8  H3  UNL     1     117.595  -6.331 -54.183  1.00  0.00     0.171 HD
HETATM    9  C7  UNL     1     118.135  -4.377 -54.520  1.00  0.00     0.194 A
HETATM   10  S1  UNL     1     117.430  -3.818 -53.137  1.00  0.00    -0.039 SA
HETATM   11  N4  UNL     1     118.771  -3.544 -55.361  1.00  0.00    -0.265 N
ATOM     12  H4  UNL     1     118.817  -2.549 -55.139  1.00  0.00     0.190 HD
HETATM   13  N5  UNL     1     119.341  -3.993 -56.479  1.00  0.00    -0.194 N
HETATM   14  C8  UNL     1     120.029  -3.376 -57.475  1.00  0.00     0.354 A
HETATM   15  O3  UNL     1     120.240  -2.127 -57.460  1.00  0.00    -0.244 OA
ENDROOT
BRANCH   1  16
HETATM   16  C3  UNL     1     121.159  -4.034 -59.617  1.00  0.00     0.127 C
HETATM   17  C2  UNL     1     120.620  -3.700 -60.761  1.00  0.00     0.151 C
BRANCH  17  18
HETATM   18  O1  UNL     1     121.430  -3.528 -61.890  1.00  0.00    -0.366 OA
HETATM   19  C1  UNL     1     121.470  -2.232 -62.450  1.00  0.00     0.209 C
ENDBRANCH  17  18
ENDBRANCH   1  16
TORSDOF 2
ENDMDL