MODEL 5
REMARK VINA RESULT: -7.179106662      2.579      3.618
REMARK  3 active torsions:
REMARK  status: ('A' for Active; 'I' for Inactive)
REMARK    1  A    between atoms: N1_1  and  C1_4
REMARK    2  A    between atoms: C2_7  and  N3_8
REMARK    3  A    between atoms: C5_13  and  N5_14
ROOT
HETATM    1  N3  UNL     1     119.162  -5.406 -56.650  1.00  0.00    -0.125 N
HETATM    2  C3  UNL     1     119.397  -6.730 -56.631  1.00  0.00     0.209 A
HETATM    3  N4  UNL     1     118.621  -7.239 -55.656  1.00  0.00    -0.345 N
ATOM      4  H4  UNL     1     118.573  -8.224 -55.393  1.00  0.00     0.167 HD
HETATM    5  C4  UNL     1     117.920  -6.247 -55.084  1.00  0.00     0.123 A
HETATM    6  C5  UNL     1     117.000  -6.213 -54.062  1.00  0.00     0.134 A
HETATM    7  N6  UNL     1     116.451  -5.022 -53.701  1.00  0.00    -0.293 N
ATOM      8  H6  UNL     1     115.767  -4.973 -52.947  1.00  0.00     0.172 HD
HETATM    9  C6  UNL     1     116.826  -3.911 -54.356  1.00  0.00     0.327 A
HETATM   10  O1  UNL     1     116.292  -2.828 -53.988  1.00  0.00    -0.247 OA
HETATM   11  N7  UNL     1     117.724  -3.898 -55.362  1.00  0.00    -0.291 N
ATOM     12  H7  UNL     1     117.980  -3.031 -55.834  1.00  0.00     0.172 HD
HETATM   13  C7  UNL     1     118.266  -5.076 -55.718  1.00  0.00     0.164 A
ENDROOT
BRANCH   1  14
HETATM   14  C2  UNL     1     119.800  -4.483 -57.559  1.00  0.00     0.706 A
HETATM   15  N2  UNL     1     120.280  -3.299 -57.146  1.00  0.00    -0.022 N
HETATM   16  C1  UNL     1     120.874  -2.413 -57.941  1.00  0.00     0.691 A
ATOM     17  H2  UNL     1     120.182  -3.064 -56.159  1.00  0.00     0.203 HD
HETATM   18  N9  UNL     1     121.005  -2.721 -59.245  1.00  0.00    -0.187 N
HETATM   19  C8  UNL     1     120.535  -3.903 -59.703  1.00  0.00     0.215 A
ATOM     20  H9  UNL     1     121.457  -2.066 -59.884  1.00  0.00     0.185 HD
HETATM   21  N8  UNL     1     119.931  -4.787 -58.862  1.00  0.00    -0.186 N
ATOM     22  H8  UNL     1     119.580  -5.676 -59.219  1.00  0.00     0.185 HD
BRANCH  16  23
HETATM   23  N1  UNL     1     121.339  -1.272 -57.553  1.00  0.00    -0.234 N
ATOM     24  H12 UNL     1     122.216  -0.959 -57.970  1.00  0.00     0.174 HD
ATOM     25  H11 UNL     1     120.893  -0.667 -56.864  1.00  0.00     0.174 HD
ENDBRANCH  16  23
ENDBRANCH   1  14
BRANCH   6  26
HETATM   26  N5  UNL     1     116.668  -7.303 -53.460  1.00  0.00    -0.383 N
ATOM     27  H52 UNL     1     115.688  -7.539 -53.307  1.00  0.00     0.157 HD
ATOM     28  H51 UNL     1     117.391  -7.942 -53.131  1.00  0.00     0.157 HD
ENDBRANCH   6  26
TORSDOF 3
ENDMDL