MODEL 2
REMARK VINA RESULT: -5.044981050      1.387      1.917
REMARK  10 active torsions:
REMARK  status: ('A' for Active; 'I' for Inactive)
REMARK    1  A    between atoms: C2_2  and  C3_3
REMARK    2  A    between atoms: C6_6  and  C7_7
REMARK    3  A    between atoms: C8_8  and  C9_9
REMARK    4  A    between atoms: C11_11  and  C12_12
REMARK    5  A    between atoms: C13_13  and  C15_15
REMARK    6  A    between atoms: C15_15  and  C16_16
REMARK    7  A    between atoms: C16_16  and  C17_17
REMARK    8  A    between atoms: C17_17  and  C18_18
REMARK    9  A    between atoms: C18_18  and  C20_20
REMARK   10  A    between atoms: C25_25  and  C27_27
ROOT
HETATM    1  C7  UNL     1      -8.057  14.301  -4.210  1.00  0.00    -0.018 C
HETATM    2  C8  UNL     1      -7.698  14.951  -3.157  1.00  0.00     0.003 C
ENDROOT
BRANCH   2   3
HETATM    3  C9  UNL     1      -8.104  14.474  -1.801  1.00  0.00    -0.062 C
HETATM    4  C10 UNL     1      -9.230  15.181  -1.185  1.00  0.00     0.048 C
HETATM    5  C11 UNL     1      -7.435  13.495  -1.283  1.00  0.00     0.007 C
BRANCH   5   6
HETATM    6  C12 UNL     1      -7.628  12.829   0.018  1.00  0.00     0.007 C
HETATM    7  C13 UNL     1      -6.884  11.910   0.578  1.00  0.00    -0.062 C
HETATM    8  C14 UNL     1      -5.764  11.739  -0.918  1.00  0.00     0.048 C
BRANCH   7   9
HETATM    9  C15 UNL     1      -6.101  10.945   1.166  1.00  0.00     0.007 C
BRANCH   9  10
HETATM   10  C16 UNL     1      -6.765  10.140   2.226  1.00  0.00     0.001 C
BRANCH  10  11
HETATM   11  C17 UNL     1      -7.965   9.668   2.007  1.00  0.00     0.007 C
BRANCH  11  12
HETATM   12  C18 UNL     1      -8.170   8.279   1.620  1.00  0.00    -0.060 C
HETATM   13  C19 UNL     1      -7.238   7.524   0.734  1.00  0.00     0.048 C
BRANCH  12  14
HETATM   14  C20 UNL     1      -9.259   7.641   2.083  1.00  0.00    -0.082 C
HETATM   15  C21 UNL     1      -9.995   6.748   1.155  1.00  0.00     0.043 C
HETATM   16  C22 UNL     1      -9.750   7.821   3.453  1.00  0.00     0.043 C
ENDBRANCH  12  14
ENDBRANCH  11  12
ENDBRANCH  10  11
ENDBRANCH   9  10
ENDBRANCH   7   9
ENDBRANCH   5   6
ENDBRANCH   2   3
BRANCH   1  17
HETATM   17  C6  UNL     1      -7.654  14.741  -5.581  1.00  0.00     0.031 C
HETATM   18  C5  UNL     1      -7.694  13.440  -6.386  1.00  0.00     0.027 C
HETATM   19  C3  UNL     1      -7.508  13.630  -7.864  1.00  0.00    -0.005 C
HETATM   20  C4  UNL     1      -6.098  13.151  -8.168  1.00  0.00     0.021 C
HETATM   21  C25 UNL     1      -7.854  14.966  -8.435  1.00  0.00     0.073 C
HETATM   22  C24 UNL     1      -8.764  15.704  -7.507  1.00  0.00    -0.009 C
HETATM   23  C26 UNL     1      -8.799  14.721  -9.680  1.00  0.00     0.032 C
HETATM   24  C23 UNL     1      -8.663  15.596  -6.206  1.00  0.00    -0.021 C
BRANCH  19  25
HETATM   25  C2  UNL     1      -8.442  12.617  -8.488  1.00  0.00    -0.026 C
HETATM   26  C1  UNL     1      -9.069  11.731  -7.793  1.00  0.00     0.008 C
ENDBRANCH  19  25
BRANCH  21  27
HETATM   27  C27 UNL     1      -6.833  15.812  -8.878  1.00  0.00     0.186 C
HETATM   28  O1  UNL     1      -5.904  16.606  -8.770  1.00  0.00    -0.647 OA
HETATM   29  O2  UNL     1      -6.853  15.771 -10.478  1.00  0.00    -0.647 OA
ENDBRANCH  21  27
ENDBRANCH   1  17
TORSDOF 10
ENDMDL