MODEL 1
REMARK VINA RESULT: -8.432916196      0.000      0.000
REMARK  9 active torsions:
REMARK  status: ('A' for Active; 'I' for Inactive)
REMARK    1  A    between atoms: C2_2  and  C3_3
REMARK    2  A    between atoms: C3_3  and  C10_10
REMARK    3  A    between atoms: C4_4  and  C5_5
REMARK    4  A    between atoms: C5_5  and  C6_6
REMARK    5  A    between atoms: C13_13  and  O1_14
REMARK    6  A    between atoms: C17_19  and  C18_20
REMARK    7  A    between atoms: C19_21  and  C20_22
REMARK    8  A    between atoms: C21_23  and  C23_25
REMARK    9  A    between atoms: C24_26  and  C25_27
ROOT
HETATM    1  C10 UNL     1      -7.799  16.617 -10.132  1.00  0.00     0.027 C
HETATM    2  C11 UNL     1      -7.722  17.238 -11.499  1.00  0.00     0.017 C
HETATM    3  C12 UNL     1      -8.614  18.457 -11.441  1.00  0.00     0.020 C
HETATM    4  C13 UNL     1      -9.778  18.516 -12.363  1.00  0.00     0.126 C
HETATM    5  C14 UNL     1     -10.726  18.128 -11.224  1.00  0.00     0.016 C
HETATM    6  C15 UNL     1     -11.785  19.201 -11.040  1.00  0.00     0.013 C
HETATM    7  C16 UNL     1      -9.572  18.235 -10.291  1.00  0.00     0.006 C
HETATM    8  C17 UNL     1      -9.131  16.977  -9.572  1.00  0.00     0.021 C
ENDROOT
BRANCH   8   9
HETATM    9  C18 UNL     1      -8.978  17.376  -8.121  1.00  0.00    -0.021 C
HETATM   10  C19 UNL     1      -8.951  16.493  -7.151  1.00  0.00    -0.003 C
BRANCH  10  11
HETATM   11  C20 UNL     1      -8.804  16.916  -5.790  1.00  0.00     0.006 C
HETATM   12  C21 UNL     1      -7.701  16.848  -5.037  1.00  0.00    -0.062 C
HETATM   13  C22 UNL     1      -6.466  16.287  -5.612  1.00  0.00     0.048 C
BRANCH  12  14
HETATM   14  C23 UNL     1      -7.783  17.329  -3.668  1.00  0.00     0.003 C
HETATM   15  C24 UNL     1      -8.331  16.826  -2.623  1.00  0.00    -0.022 C
BRANCH  15  16
HETATM   16  C25 UNL     1      -9.076  15.611  -2.350  1.00  0.00    -0.000 C
HETATM   17  C26 UNL     1      -8.075  14.426  -2.484  1.00  0.00     0.013 C
HETATM   18  C27 UNL     1      -9.420  15.596  -0.848  1.00  0.00     0.013 C
ENDBRANCH  15  16
ENDBRANCH  12  14
ENDBRANCH  10  11
ENDBRANCH   8   9
BRANCH   1  19
HETATM   19  C3  UNL     1      -7.450  15.169 -10.096  1.00  0.00    -0.058 C
HETATM   20  C4  UNL     1      -8.395  14.338  -9.725  1.00  0.00    -0.015 C
BRANCH  19  21
HETATM   21  C2  UNL     1      -6.142  14.665 -10.436  1.00  0.00    -0.003 C
HETATM   22  C1  UNL     1      -5.073  14.626  -9.690  1.00  0.00     0.012 C
ENDBRANCH  19  21
BRANCH  20  23
HETATM   23  C5  UNL     1      -8.276  12.903  -9.612  1.00  0.00     0.055 C
BRANCH  23  24
HETATM   24  C6  UNL     1      -8.978  12.378  -8.387  1.00  0.00    -0.021 C
HETATM   25  C7  UNL     1      -8.371  12.425  -7.234  1.00  0.00    -0.091 C
HETATM   26  C8  UNL     1      -7.011  12.985  -7.117  1.00  0.00     0.042 C
HETATM   27  C9  UNL     1      -9.042  11.910  -6.003  1.00  0.00     0.042 C
ENDBRANCH  23  24
ENDBRANCH  20  23
ENDBRANCH   1  19
BRANCH   4  28
HETATM   28  O1  UNL     1      -9.865  17.609 -13.387  1.00  0.00    -0.395 OA
ATOM     29  H1  UNL     1     -10.393  17.820 -14.149  1.00  0.00     0.210 HD
ENDBRANCH   4  28
TORSDOF 9
ENDMDL