MODEL 2
REMARK VINA RESULT: -7.528033521      1.828      4.115
REMARK  12 active torsions:
REMARK  status: ('A' for Active; 'I' for Inactive)
REMARK    1  A    between atoms: C2_2  and  C21_21
REMARK    2  A    between atoms: C3_3  and  C4_4
REMARK    3  A    between atoms: C5_5  and  C6_6
REMARK    4  A    between atoms: C6_6  and  C7_7
REMARK    5  A    between atoms: C7_7  and  C8_8
REMARK    6  A    between atoms: C8_8  and  C10_10
REMARK    7  A    between atoms: C10_10  and  C11_11
REMARK    8  A    between atoms: C11_11  and  C12_12
REMARK    9  A    between atoms: C21_21  and  C22_22
REMARK   10  A    between atoms: C22_22  and  C23_23
REMARK   11  A    between atoms: C23_23  and  C24_24
REMARK       I    between atoms: C24_24  and  N1_26
REMARK   12  A    between atoms: N1_26  and  C25_28
ROOT
HETATM    1  C4  UNL     1      -6.870  17.699  -5.925  1.00  0.00     0.001 C
HETATM    2  C5  UNL     1      -8.035  18.081  -5.197  1.00  0.00     0.000 C
ENDROOT
BRANCH   2   3
HETATM    3  C6  UNL     1      -8.267  17.658  -3.942  1.00  0.00     0.001 C
BRANCH   3   4
HETATM    4  C7  UNL     1      -7.631  16.508  -3.407  1.00  0.00     0.007 C
BRANCH   4   5
HETATM    5  C8  UNL     1      -8.052  15.205  -3.541  1.00  0.00    -0.062 C
HETATM    6  C9  UNL     1      -8.434  14.629  -2.217  1.00  0.00     0.048 C
BRANCH   5   7
HETATM    7  C10 UNL     1      -8.080  14.627  -4.820  1.00  0.00     0.007 C
BRANCH   7   8
HETATM    8  C11 UNL     1      -8.541  14.542  -5.993  1.00  0.00     0.009 C
BRANCH   8   9
HETATM    9  C12 UNL     1      -8.355  14.198  -7.370  1.00  0.00    -0.048 C
HETATM   10  C13 UNL     1      -8.889  15.061  -8.267  1.00  0.00    -0.077 C
HETATM   11  C14 UNL     1      -9.627  16.294  -7.873  1.00  0.00     0.044 C
HETATM   12  C15 UNL     1      -8.755  14.811  -9.721  1.00  0.00     0.034 C
HETATM   13  C16 UNL     1      -7.309  14.322  -9.890  1.00  0.00     0.005 C
HETATM   14  C17 UNL     1      -7.376  12.927  -9.328  1.00  0.00     0.014 C
HETATM   15  C18 UNL     1      -7.646  12.991  -7.817  1.00  0.00    -0.020 C
HETATM   16  C19 UNL     1      -6.305  12.746  -7.202  1.00  0.00     0.020 C
HETATM   17  C20 UNL     1      -8.559  11.785  -7.515  1.00  0.00     0.020 C
ENDBRANCH   8   9
ENDBRANCH   7   8
ENDBRANCH   5   7
ENDBRANCH   4   5
ENDBRANCH   3   4
ENDBRANCH   2   3
BRANCH   1  18
HETATM   18  C3  UNL     1      -6.482  18.011  -7.110  1.00  0.00     0.007 C
HETATM   19  C2  UNL     1      -5.545  17.368  -7.977  1.00  0.00    -0.054 C
HETATM   20  C1  UNL     1      -4.850  16.114  -7.706  1.00  0.00     0.049 C
BRANCH  19  21
HETATM   21  C21 UNL     1      -5.342  17.982  -9.167  1.00  0.00     0.062 C
BRANCH  21  22
HETATM   22  C22 UNL     1      -6.380  17.908 -10.182  1.00  0.00    -0.122 C
BRANCH  22  23
HETATM   23  C23 UNL     1      -7.210  17.855 -10.980  1.00  0.00     0.129 C
BRANCH  23  24
HETATM   24  C24 UNL     1      -8.640  18.143 -11.015  1.00  0.00     0.249 C
HETATM   25  O1  UNL     1      -9.127  19.006 -10.202  1.00  0.00    -0.268 OA
HETATM   26  N1  UNL     1      -9.528  17.518 -11.893  1.00  0.00    -0.353 N
ATOM     27  H1  UNL     1      -9.206  16.819 -12.562  1.00  0.00     0.163 HD
BRANCH  26  28
HETATM   28  C25 UNL     1     -10.954  17.906 -11.818  1.00  0.00     0.076 C
HETATM   29  C26 UNL     1     -11.696  16.577 -11.503  1.00  0.00     0.032 C
HETATM   30  C27 UNL     1     -11.458  18.456 -13.103  1.00  0.00     0.032 C
ENDBRANCH  26  28
ENDBRANCH  23  24
ENDBRANCH  22  23
ENDBRANCH  21  22
ENDBRANCH  19  21
ENDBRANCH   1  18
TORSDOF 12
ENDMDL