MODEL 3
REMARK VINA RESULT: -7.223946232      1.810      3.078
REMARK  8 active torsions:
REMARK  status: ('A' for Active; 'I' for Inactive)
REMARK    1  A    between atoms: C4_4  and  C5_5
REMARK    2  A    between atoms: C5_5  and  C6_6
REMARK    3  A    between atoms: C6_6  and  C7_7
REMARK    4  A    between atoms: C7_7  and  C9_9
REMARK    5  A    between atoms: C10_10  and  C11_11
REMARK    6  A    between atoms: C13_13  and  C14_14
REMARK    7  A    between atoms: C15_15  and  C16_16
REMARK    8  A    between atoms: C22_22  and  C23_23
ROOT
HETATM    1  C14 UNL     1      -8.683  17.611  -7.340  1.00  0.00    -0.003 C
HETATM    2  C15 UNL     1      -8.070  16.642  -8.006  1.00  0.00    -0.014 C
ENDROOT
BRANCH   1   3
HETATM    3  C13 UNL     1      -8.954  17.520  -5.943  1.00  0.00     0.006 C
HETATM    4  C11 UNL     1      -8.033  17.315  -4.985  1.00  0.00    -0.062 C
HETATM    5  C12 UNL     1      -6.626  17.166  -5.369  1.00  0.00     0.048 C
BRANCH   4   6
HETATM    6  C10 UNL     1      -8.447  17.243  -3.606  1.00  0.00     0.003 C
HETATM    7  C9  UNL     1      -8.450  16.324  -2.717  1.00  0.00    -0.022 C
BRANCH   7   8
HETATM    8  C7  UNL     1      -8.042  14.927  -2.677  1.00  0.00     0.004 C
HETATM    9  C8  UNL     1      -8.426  14.368  -1.296  1.00  0.00     0.014 C
BRANCH   8  10
HETATM   10  C6  UNL     1      -8.762  14.086  -3.729  1.00  0.00     0.012 C
BRANCH  10  11
HETATM   11  C5  UNL     1      -7.717  13.793  -4.814  1.00  0.00     0.028 C
BRANCH  11  12
HETATM   12  C4  UNL     1      -8.420  13.487  -6.103  1.00  0.00    -0.025 C
HETATM   13  C2  UNL     1      -7.778  12.963  -7.139  1.00  0.00    -0.091 C
HETATM   14  C1  UNL     1      -6.319  12.668  -7.029  1.00  0.00     0.042 C
HETATM   15  C3  UNL     1      -8.528  12.684  -8.384  1.00  0.00     0.042 C
ENDBRANCH  11  12
ENDBRANCH  10  11
ENDBRANCH   8  10
ENDBRANCH   7   8
ENDBRANCH   4   6
ENDBRANCH   1   3
BRANCH   2  16
HETATM   16  C16 UNL     1      -7.748  16.639  -9.430  1.00  0.00     0.018 A
HETATM   17  C17 UNL     1      -8.846  16.727 -10.465  1.00  0.00    -0.017 A
HETATM   18  C18 UNL     1     -10.006  17.578 -10.041  1.00  0.00     0.020 C
HETATM   19  C19 UNL     1      -9.402  15.365 -10.829  1.00  0.00     0.020 C
HETATM   20  C20 UNL     1      -8.232  17.376 -11.656  1.00  0.00    -0.019 A
HETATM   21  C21 UNL     1      -6.991  17.714 -11.437  1.00  0.00    -0.007 A
HETATM   22  C22 UNL     1      -6.614  17.328 -10.049  1.00  0.00     0.086 A
HETATM   23  C24 UNL     1      -6.525  15.877  -9.787  1.00  0.00    -0.012 A
HETATM   24  C25 UNL     1      -6.443  14.920 -10.920  1.00  0.00     0.018 C
HETATM   25  C26 UNL     1      -5.572  15.528  -8.631  1.00  0.00     0.018 C
BRANCH  22  26
HETATM   26  C23 UNL     1      -5.745  18.295  -9.385  1.00  0.00     0.187 C
HETATM   27  O1  UNL     1      -6.190  19.093  -8.526  1.00  0.00    -0.647 OA
HETATM   28  O2  UNL     1      -4.399  18.349  -9.694  1.00  0.00    -0.647 OA
ENDBRANCH  22  26
ENDBRANCH   2  16
TORSDOF 8
ENDMDL