MODEL 5
REMARK VINA RESULT: -7.438668885      1.899      3.653
REMARK  11 active torsions:
REMARK  status: ('A' for Active; 'I' for Inactive)
REMARK    1  A    between atoms: C2_2  and  C13_16
REMARK    2  A    between atoms: C3_3  and  C4_4
REMARK    3  A    between atoms: C4_4  and  C5_5
REMARK    4  A    between atoms: C5_5  and  C6_6
REMARK    5  A    between atoms: C6_6  and  C8_8
REMARK    6  A    between atoms: C8_8  and  N1_9
REMARK    7  A    between atoms: N1_9  and  C9_12
REMARK    8  A    between atoms: C9_12  and  C10_13
REMARK    9  A    between atoms: C13_16  and  C14_17
REMARK   10  A    between atoms: C14_17  and  C15_18
REMARK   11  A    between atoms: C15_18  and  C16_19
ROOT
HETATM    1  C1  UNL     1     -10.304  19.106 -11.528  1.00  0.00     0.048 C
HETATM    2  C2  UNL     1      -9.277  18.261 -10.825  1.00  0.00    -0.062 C
HETATM    3  C3  UNL     1      -9.029  18.359  -9.444  1.00  0.00     0.007 C
ENDROOT
BRANCH   2   4
HETATM    4  C13 UNL     1      -8.604  17.386 -11.588  1.00  0.00     0.006 C
BRANCH   4   5
HETATM    5  C14 UNL     1      -7.362  16.773 -11.242  1.00  0.00    -0.003 C
BRANCH   5   6
HETATM    6  C15 UNL     1      -7.276  15.487 -10.871  1.00  0.00    -0.021 C
BRANCH   6   7
HETATM    7  C16 UNL     1      -6.806  15.061  -9.568  1.00  0.00     0.022 C
HETATM    8  C17 UNL     1      -7.844  14.472  -8.628  1.00  0.00     0.010 C
HETATM    9  C18 UNL     1      -8.049  13.061  -8.934  1.00  0.00    -0.038 C
HETATM   10  C25 UNL     1      -6.955  14.103  -7.465  1.00  0.00    -0.038 C
HETATM   11  C19 UNL     1      -8.212  12.327 -10.197  1.00  0.00     0.015 C
HETATM   12  C20 UNL     1      -9.141  12.607  -8.030  1.00  0.00     0.015 C
HETATM   13  C21 UNL     1      -6.572  13.090  -8.499  1.00  0.00     0.010 C
HETATM   14  C22 UNL     1      -5.838  13.909  -9.520  1.00  0.00    -0.035 C
HETATM   15  C23 UNL     1      -4.487  14.269  -8.891  1.00  0.00     0.016 C
HETATM   16  C24 UNL     1      -5.509  13.330 -10.832  1.00  0.00     0.016 C
HETATM   17  C26 UNL     1      -7.319  13.299  -6.270  1.00  0.00     0.015 C
HETATM   18  C27 UNL     1      -6.242  15.250  -6.951  1.00  0.00     0.015 C
ENDBRANCH   6   7
ENDBRANCH   5   6
ENDBRANCH   4   5
ENDBRANCH   2   4
BRANCH   3  19
HETATM   19  C4  UNL     1      -9.513  19.091  -8.512  1.00  0.00     0.001 C
BRANCH  19  20
HETATM   20  C5  UNL     1      -8.877  19.653  -7.363  1.00  0.00     0.004 C
BRANCH  20  21
HETATM   21  C6  UNL     1      -7.962  18.926  -6.662  1.00  0.00    -0.059 C
HETATM   22  C7  UNL     1      -8.449  17.849  -5.777  1.00  0.00     0.045 C
BRANCH  21  23
HETATM   23  C8  UNL     1      -6.528  19.217  -6.800  1.00  0.00     0.266 C
BRANCH  23  24
HETATM   24  N1  UNL     1      -5.965  18.652  -7.995  1.00  0.00    -0.071 N
ATOM     25  H12 UNL     1      -6.036  17.635  -7.982  1.00  0.00     0.277 HD
ATOM     26  H11 UNL     1      -6.556  18.852  -8.802  1.00  0.00     0.277 HD
BRANCH  24  27
HETATM   27  C9  UNL     1      -4.618  19.061  -8.241  1.00  0.00     0.236 C
BRANCH  27  28
HETATM   28  C10 UNL     1      -3.783  17.971  -8.869  1.00  0.00     0.003 C
HETATM   29  C11 UNL     1      -2.764  18.662  -9.782  1.00  0.00     0.011 C
HETATM   30  C12 UNL     1      -3.050  17.151  -7.835  1.00  0.00     0.011 C
ENDBRANCH  27  28
ENDBRANCH  24  27
ENDBRANCH  23  24
ENDBRANCH  21  23
ENDBRANCH  20  21
ENDBRANCH  19  20
ENDBRANCH   3  19
TORSDOF 11
ENDMDL