MODEL 2
REMARK VINA RESULT: -7.978715105      1.883      4.449
REMARK  8 active torsions:
REMARK  status: ('A' for Active; 'I' for Inactive)
REMARK    1  A    between atoms: C4_4  and  C5_5
REMARK    2  A    between atoms: C5_5  and  C6_6
REMARK    3  A    between atoms: C11_11  and  C12_12
REMARK    4  A    between atoms: C13_13  and  C14_14
REMARK    5  A    between atoms: C15_15  and  C16_16
REMARK    6  A    between atoms: C17_17  and  C18_18
REMARK    7  A    between atoms: C19_19  and  C20_20
REMARK    8  A    between atoms: C21_21  and  C22_22
ROOT
HETATM    1  C6  UNL     1      -6.025  14.067  -9.721  1.00  0.00    -0.016 C
HETATM    2  C7  UNL     1      -5.473  13.276 -10.880  1.00  0.00     0.020 C
HETATM    3  C8  UNL     1      -5.744  13.258  -8.450  1.00  0.00    -0.016 C
HETATM    4  C9  UNL     1      -5.830  13.586  -7.148  1.00  0.00     0.004 C
HETATM    5  C10 UNL     1      -6.265  14.961  -6.733  1.00  0.00    -0.058 C
HETATM    6  C11 UNL     1      -6.870  14.943  -5.584  1.00  0.00     0.007 C
HETATM    7  C23 UNL     1      -6.133  16.257  -7.343  1.00  0.00     0.039 C
HETATM    8  C24 UNL     1      -5.132  16.369  -8.543  1.00  0.00     0.014 C
HETATM    9  C25 UNL     1      -5.481  15.300  -9.342  1.00  0.00    -0.036 C
HETATM   10  C26 UNL     1      -4.115  14.820  -9.487  1.00  0.00     0.016 C
HETATM   11  C27 UNL     1      -6.429  16.078 -10.120  1.00  0.00     0.016 C
ENDROOT
BRANCH   6  12
HETATM   12  C12 UNL     1      -7.380  16.181  -4.990  1.00  0.00     0.001 C
HETATM   13  C13 UNL     1      -8.509  16.677  -5.520  1.00  0.00     0.000 C
BRANCH  13  14
HETATM   14  C14 UNL     1      -9.055  17.890  -4.975  1.00  0.00     0.000 C
HETATM   15  C15 UNL     1      -8.611  19.071  -5.301  1.00  0.00     0.000 C
BRANCH  15  16
HETATM   16  C16 UNL     1      -7.528  19.319  -6.238  1.00  0.00     0.000 C
HETATM   17  C17 UNL     1      -7.629  19.331  -7.532  1.00  0.00     0.000 C
BRANCH  17  18
HETATM   18  C18 UNL     1      -8.891  19.085  -8.238  1.00  0.00     0.000 C
HETATM   19  C19 UNL     1      -8.843  18.509  -9.432  1.00  0.00     0.000 C
BRANCH  19  20
HETATM   20  C20 UNL     1     -10.063  18.247 -10.163  1.00  0.00     0.007 C
HETATM   21  C21 UNL     1     -10.025  18.190 -11.485  1.00  0.00     0.084 C
BRANCH  21  22
HETATM   22  C22 UNL     1     -11.251  17.928 -12.214  1.00  0.00     0.198 C
HETATM   23  O1  UNL     1     -11.823  16.823 -12.056  1.00  0.00    -0.645 OA
HETATM   24  O2  UNL     1     -11.773  18.868 -13.061  1.00  0.00    -0.645 OA
ENDBRANCH  21  22
ENDBRANCH  19  20
ENDBRANCH  17  18
ENDBRANCH  15  16
ENDBRANCH  13  14
ENDBRANCH   6  12
BRANCH   1  25
HETATM   25  C5  UNL     1      -7.525  13.887  -9.998  1.00  0.00     0.041 C
BRANCH  25  26
HETATM   26  C4  UNL     1      -8.020  12.521  -9.828  1.00  0.00    -0.024 C
HETATM   27  C2  UNL     1      -8.853  12.250  -8.837  1.00  0.00    -0.091 C
HETATM   28  C1  UNL     1      -9.392  10.854  -8.622  1.00  0.00     0.042 C
HETATM   29  C3  UNL     1      -9.313  13.280  -7.863  1.00  0.00     0.042 C
ENDBRANCH  25  26
ENDBRANCH   1  25
TORSDOF 8
ENDMDL