MODEL 5
REMARK VINA RESULT: -7.822002290      1.580      2.775
REMARK  11 active torsions:
REMARK  status: ('A' for Active; 'I' for Inactive)
REMARK    1  A    between atoms: C2_2  and  C21_21
REMARK    2  A    between atoms: C3_3  and  C4_4
REMARK    3  A    between atoms: C4_4  and  C5_5
REMARK    4  A    between atoms: C5_5  and  C6_6
REMARK    5  A    between atoms: C6_6  and  C8_8
REMARK    6  A    between atoms: C15_15  and  C16_16
REMARK    7  A    between atoms: C17_17  and  C18_18
REMARK    8  A    between atoms: C21_21  and  C22_22
REMARK    9  A    between atoms: C22_22  and  C23_23
REMARK   10  A    between atoms: C23_23  and  C24_24
REMARK   11  A    between atoms: C24_24  and  C26_26
ROOT
HETATM    1  C6  UNL     1      -6.352  13.154  -8.086  1.00  0.00    -0.075 C
HETATM    2  C7  UNL     1      -4.972  12.686  -7.844  1.00  0.00     0.044 C
ENDROOT
BRANCH   1   3
HETATM    3  C5  UNL     1      -6.929  12.891  -9.232  1.00  0.00     0.003 C
BRANCH   3   4
HETATM    4  C4  UNL     1      -6.331  13.467 -10.459  1.00  0.00     0.001 C
BRANCH   4   5
HETATM    5  C3  UNL     1      -6.288  14.761 -10.641  1.00  0.00     0.007 C
HETATM    6  C2  UNL     1      -7.436  15.613 -10.825  1.00  0.00    -0.062 C
HETATM    7  C1  UNL     1      -8.839  15.136 -10.832  1.00  0.00     0.048 C
BRANCH   6   8
HETATM    8  C21 UNL     1      -7.233  16.949 -11.003  1.00  0.00     0.006 C
BRANCH   8   9
HETATM    9  C22 UNL     1      -8.348  17.803 -11.358  1.00  0.00    -0.003 C
BRANCH   9  10
HETATM   10  C23 UNL     1      -9.030  18.524 -10.506  1.00  0.00    -0.012 C
BRANCH  10  11
HETATM   11  C24 UNL     1     -10.488  18.594 -10.407  1.00  0.00     0.105 C
HETATM   12  C25 UNL     1     -11.179  17.941 -11.594  1.00  0.00     0.025 C
BRANCH  11  13
HETATM   13  C26 UNL     1     -10.927  20.017 -10.341  1.00  0.00     0.180 C
HETATM   14  O1  UNL     1     -11.889  20.389 -11.049  1.00  0.00    -0.647 OA
HETATM   15  O2  UNL     1     -10.271  20.905  -9.504  1.00  0.00    -0.647 OA
ENDBRANCH  11  13
ENDBRANCH  10  11
ENDBRANCH   9  10
ENDBRANCH   8   9
ENDBRANCH   6   8
ENDBRANCH   4   5
ENDBRANCH   3   4
ENDBRANCH   1   3
BRANCH   1  16
HETATM   16  C8  UNL     1      -7.106  13.916  -7.091  1.00  0.00     0.045 C
HETATM   17  C9  UNL     1      -8.385  14.409  -7.666  1.00  0.00    -0.015 C
HETATM   18  C10 UNL     1      -9.019  15.464  -7.188  1.00  0.00    -0.086 C
HETATM   19  C11 UNL     1     -10.318  15.923  -7.810  1.00  0.00     0.043 C
HETATM   20  C12 UNL     1      -8.552  16.283  -6.039  1.00  0.00     0.038 C
HETATM   21  C13 UNL     1      -7.388  15.605  -5.402  1.00  0.00    -0.006 C
HETATM   22  C14 UNL     1      -6.663  16.477  -4.406  1.00  0.00     0.011 C
HETATM   23  C15 UNL     1      -6.414  15.079  -6.470  1.00  0.00     0.024 C
BRANCH  23  24
HETATM   24  C16 UNL     1      -5.993  16.152  -7.372  1.00  0.00    -0.024 C
HETATM   25  C17 UNL     1      -4.753  16.381  -7.756  1.00  0.00    -0.026 C
BRANCH  25  26
HETATM   26  C18 UNL     1      -4.402  17.488  -8.672  1.00  0.00    -0.001 C
HETATM   27  C19 UNL     1      -5.224  18.727  -8.423  1.00  0.00     0.013 C
HETATM   28  C20 UNL     1      -2.934  17.876  -8.556  1.00  0.00     0.013 C
ENDBRANCH  25  26
ENDBRANCH  23  24
ENDBRANCH   1  16
TORSDOF 11
ENDMDL