MODEL 5
REMARK VINA RESULT: -7.625824774      1.794      5.029
REMARK  8 active torsions:
REMARK  status: ('A' for Active; 'I' for Inactive)
REMARK    1  A    between atoms: C3_3  and  C4_4
REMARK    2  A    between atoms: C3_3  and  C14_14
REMARK    3  A    between atoms: C4_4  and  C5_5
REMARK    4  A    between atoms: C6_6  and  C8_8
REMARK    5  A    between atoms: C8_8  and  C9_9
REMARK    6  A    between atoms: C9_9  and  C10_10
REMARK    7  A    between atoms: C16_16  and  C17_17
REMARK    8  A    between atoms: C21_23  and  O1_24
ROOT
HETATM    1  C14 UNL     1      -7.663  13.110  -9.564  1.00  0.00    -0.054 C
HETATM    2  C15 UNL     1      -8.459  11.980 -10.365  1.00  0.00     0.049 C
HETATM    3  C16 UNL     1      -8.391  13.596  -8.656  1.00  0.00     0.037 C
ENDROOT
BRANCH   1   4
HETATM    4  C3  UNL     1      -6.334  13.237 -10.077  1.00  0.00    -0.053 C
HETATM    5  C2  UNL     1      -6.164  13.227 -11.429  1.00  0.00    -0.023 C
HETATM    6  C1  UNL     1      -4.782  13.356 -12.020  1.00  0.00     0.036 C
BRANCH   4   7
HETATM    7  C4  UNL     1      -5.062  13.380  -9.330  1.00  0.00     0.066 C
BRANCH   7   8
HETATM    8  C5  UNL     1      -5.154  14.361  -8.248  1.00  0.00    -0.020 C
HETATM    9  C6  UNL     1      -5.112  15.664  -8.275  1.00  0.00    -0.087 C
HETATM   10  C7  UNL     1      -5.235  16.426  -6.965  1.00  0.00     0.043 C
BRANCH   9  11
HETATM   11  C8  UNL     1      -4.986  16.498  -9.490  1.00  0.00     0.037 C
BRANCH  11  12
HETATM   12  C9  UNL     1      -6.171  17.349  -9.802  1.00  0.00     0.031 C
BRANCH  12  13
HETATM   13  C10 UNL     1      -7.310  16.694 -10.431  1.00  0.00    -0.024 C
HETATM   14  C11 UNL     1      -8.532  17.130 -10.574  1.00  0.00    -0.091 C
HETATM   15  C12 UNL     1      -9.542  16.237 -11.266  1.00  0.00     0.042 C
HETATM   16  C13 UNL     1      -9.001  18.438 -10.139  1.00  0.00     0.042 C
ENDBRANCH  12  13
ENDBRANCH  11  12
ENDBRANCH   9  11
ENDBRANCH   7   8
ENDBRANCH   4   7
ENDBRANCH   1   4
BRANCH   3  17
HETATM   17  C17 UNL     1      -8.474  14.531  -7.577  1.00  0.00     0.041 A
HETATM   18  N1  UNL     1      -8.808  15.797  -7.508  1.00  0.00    -0.341 N
HETATM   19  C18 UNL     1      -8.713  16.264  -6.224  1.00  0.00     0.118 A
ATOM     20  H1  UNL     1      -9.100  16.361  -8.306  1.00  0.00     0.167 HD
HETATM   21  C19 UNL     1      -8.296  15.205  -5.459  1.00  0.00     0.019 A
HETATM   22  N2  UNL     1      -8.930  17.475  -5.659  1.00  0.00    -0.344 N
HETATM   23  C20 UNL     1      -8.091  15.384  -4.086  1.00  0.00     0.054 A
HETATM   24  C25 UNL     1      -8.132  14.111  -6.255  1.00  0.00    -0.021 A
HETATM   25  C21 UNL     1      -8.316  16.622  -3.515  1.00  0.00     0.084 A
HETATM   26  C23 UNL     1      -8.737  17.658  -4.323  1.00  0.00     0.128 A
HETATM   27  C26 UNL     1      -7.691  12.768  -5.875  1.00  0.00     0.052 C
HETATM   28  C24 UNL     1      -9.356  18.566  -6.497  1.00  0.00     0.157 C
BRANCH  25  29
HETATM   29  O1  UNL     1      -8.102  16.767  -2.154  1.00  0.00    -0.355 OA
HETATM   30  C22 UNL     1      -9.088  16.482  -1.191  1.00  0.00     0.210 C
ENDBRANCH  25  29
ENDBRANCH   3  17
TORSDOF 8
ENDMDL