MODEL 4
REMARK VINA RESULT: -6.981239593      1.054      1.261
REMARK  10 active torsions:
REMARK  status: ('A' for Active; 'I' for Inactive)
REMARK    1  A    between atoms: C2_2  and  C3_3
REMARK    2  A    between atoms: C4_4  and  C5_5
REMARK    3  A    between atoms: C6_6  and  C8_8
REMARK    4  A    between atoms: C8_8  and  C9_9
REMARK    5  A    between atoms: C9_9  and  C10_10
REMARK    6  A    between atoms: C16_17  and  C17_18
REMARK    7  A    between atoms: C17_18  and  C18_19
REMARK    8  A    between atoms: C18_19  and  C19_20
REMARK    9  A    between atoms: C21_22  and  C22_23
REMARK   10  A    between atoms: C23_24  and  C24_25
ROOT
HETATM    1  C1  UNL     1      -8.644  11.747  -7.408  1.00  0.00     0.049 C
HETATM    2  C2  UNL     1      -8.209  12.958  -6.733  1.00  0.00    -0.054 C
HETATM    3  C16 UNL     1      -7.574  13.973  -7.317  1.00  0.00     0.062 C
ENDROOT
BRANCH   2   4
HETATM    4  C3  UNL     1      -8.519  13.121  -5.323  1.00  0.00     0.007 C
HETATM    5  C4  UNL     1      -8.126  14.158  -4.606  1.00  0.00     0.001 C
BRANCH   5   6
HETATM    6  C5  UNL     1      -8.496  14.211  -3.208  1.00  0.00     0.002 C
HETATM    7  C6  UNL     1      -8.478  15.313  -2.487  1.00  0.00    -0.084 C
HETATM    8  C7  UNL     1      -8.896  15.129  -1.062  1.00  0.00     0.043 C
BRANCH   7   9
HETATM    9  C8  UNL     1      -8.027  16.574  -3.090  1.00  0.00     0.034 C
BRANCH   9  10
HETATM   10  C9  UNL     1      -8.824  16.986  -4.277  1.00  0.00     0.016 C
BRANCH  10  11
HETATM   11  C10 UNL     1      -8.075  17.715  -5.315  1.00  0.00     0.055 C
HETATM   12  C11 UNL     1      -6.646  17.184  -5.414  1.00  0.00     0.012 C
HETATM   13  C12 UNL     1      -6.233  17.216  -6.868  1.00  0.00     0.001 C
HETATM   14  C13 UNL     1      -6.724  18.464  -7.586  1.00  0.00     0.007 C
HETATM   15  C14 UNL     1      -8.234  18.417  -7.761  1.00  0.00     0.079 C
HETATM   16  C15 UNL     1      -8.737  17.537  -6.676  1.00  0.00     0.131 C
HETATM   17  O1  UNL     1      -9.609  16.720  -6.806  1.00  0.00    -0.298 OA
ENDBRANCH  10  11
ENDBRANCH   9  10
ENDBRANCH   7   9
ENDBRANCH   5   6
ENDBRANCH   2   4
BRANCH   3  18
HETATM   18  C17 UNL     1      -7.155  14.227  -8.600  1.00  0.00    -0.127 C
BRANCH  18  19
HETATM   19  C18 UNL     1      -6.779  14.455  -9.750  1.00  0.00     0.062 C
BRANCH  19  20
HETATM   20  C19 UNL     1      -7.262  15.458 -10.724  1.00  0.00    -0.055 C
HETATM   21  C20 UNL     1      -6.440  15.855 -11.863  1.00  0.00     0.049 C
HETATM   22  C21 UNL     1      -8.488  15.935 -10.515  1.00  0.00     0.007 C
BRANCH  22  23
HETATM   23  C22 UNL     1      -9.083  16.918 -11.382  1.00  0.00    -0.003 C
HETATM   24  C23 UNL     1     -10.115  17.675 -10.956  1.00  0.00    -0.018 C
BRANCH  24  25
HETATM   25  C24 UNL     1     -10.693  18.663 -11.868  1.00  0.00    -0.034 C
HETATM   26  C25 UNL     1      -9.918  18.767 -13.164  1.00  0.00     0.018 C
HETATM   27  C26 UNL     1     -10.609  20.016 -11.165  1.00  0.00     0.018 C
HETATM   28  C27 UNL     1     -12.118  18.309 -12.173  1.00  0.00     0.018 C
ENDBRANCH  24  25
ENDBRANCH  22  23
ENDBRANCH  19  20
ENDBRANCH  18  19
ENDBRANCH   3  18
TORSDOF 10
ENDMDL