MODEL 5
REMARK VINA RESULT: -4.851831075      1.597      8.378
REMARK  10 active torsions:
REMARK  status: ('A' for Active; 'I' for Inactive)
REMARK    1  A    between atoms: C2_2  and  C3_3
REMARK    2  A    between atoms: C4_4  and  C5_5
REMARK    3  A    between atoms: C5_5  and  C6_6
REMARK    4  A    between atoms: C8_8  and  C9_9
REMARK    5  A    between atoms: C9_9  and  C11_11
REMARK    6  A    between atoms: C12_12  and  C14_14
REMARK    7  A    between atoms: C15_15  and  C16_16
REMARK    8  A    between atoms: C16_16  and  C17_17
REMARK    9  A    between atoms: C17_17  and  C19_19
REMARK   10  A    between atoms: C20_22  and  C21_23
ROOT
HETATM    1  C6  UNL     1      -7.264  13.758  -7.159  1.00  0.00    -0.020 C
HETATM    2  C7  UNL     1      -6.171  12.780  -7.251  1.00  0.00     0.057 C
HETATM    3  C8  UNL     1      -7.975  13.847  -6.058  1.00  0.00    -0.004 C
ENDROOT
BRANCH   1   4
HETATM    4  C5  UNL     1      -7.589  14.694  -8.152  1.00  0.00    -0.122 C
BRANCH   4   5
HETATM    5  C4  UNL     1      -7.882  15.534  -9.041  1.00  0.00     0.056 C
HETATM    6  C3  UNL     1      -7.130  16.267  -9.997  1.00  0.00     0.015 C
BRANCH   6   7
HETATM    7  C2  UNL     1      -7.640  17.064 -10.929  1.00  0.00    -0.061 C
HETATM    8  C1  UNL     1      -6.690  17.519 -11.978  1.00  0.00     0.048 C
HETATM    9  C20 UNL     1      -9.065  17.214 -10.981  1.00  0.00     0.013 C
BRANCH   9  10
HETATM   10  C21 UNL     1      -9.739  18.044 -11.725  1.00  0.00    -0.058 C
HETATM   11  C22 UNL     1     -10.824  18.820 -11.028  1.00  0.00     0.003 C
HETATM   12  C23 UNL     1     -11.879  19.126 -11.786  1.00  0.00    -0.026 C
HETATM   13  C24 UNL     1     -11.940  18.710 -13.214  1.00  0.00     0.031 C
HETATM   14  C25 UNL     1     -10.656  18.767 -13.941  1.00  0.00    -0.011 C
HETATM   15  C26 UNL     1     -10.662  17.915 -15.208  1.00  0.00     0.010 C
HETATM   16  C27 UNL     1      -9.478  18.507 -13.092  1.00  0.00     0.043 C
ENDBRANCH   9  10
ENDBRANCH   6   7
ENDBRANCH   4   5
ENDBRANCH   1   4
BRANCH   3  17
HETATM   17  C9  UNL     1      -8.066  13.114  -4.766  1.00  0.00     0.028 C
HETATM   18  C10 UNL     1      -9.310  12.230  -4.944  1.00  0.00     0.018 C
BRANCH  17  19
HETATM   19  C11 UNL     1      -8.328  14.172  -3.794  1.00  0.00    -0.012 C
HETATM   20  C12 UNL     1      -8.226  14.545  -2.563  1.00  0.00    -0.065 C
HETATM   21  C13 UNL     1      -7.625  13.726  -1.472  1.00  0.00     0.048 C
BRANCH  20  22
HETATM   22  C14 UNL     1      -8.735  15.901  -2.301  1.00  0.00     0.006 C
HETATM   23  C15 UNL     1      -8.594  17.075  -2.737  1.00  0.00     0.001 C
BRANCH  23  24
HETATM   24  C16 UNL     1      -7.825  17.726  -3.754  1.00  0.00     0.013 C
BRANCH  24  25
HETATM   25  C17 UNL     1      -7.765  17.476  -5.035  1.00  0.00     0.015 C
HETATM   26  C18 UNL     1      -9.057  17.479  -5.828  1.00  0.00     0.055 C
BRANCH  25  27
HETATM   27  C19 UNL     1      -6.569  17.203  -5.774  1.00  0.00     0.204 C
HETATM   28  O1  UNL     1      -5.663  16.385  -5.593  1.00  0.00    -0.644 OA
HETATM   29  O2  UNL     1      -6.359  18.006  -6.948  1.00  0.00    -0.644 OA
ENDBRANCH  25  27
ENDBRANCH  24  25
ENDBRANCH  23  24
ENDBRANCH  20  22
ENDBRANCH  17  19
ENDBRANCH   3  17
TORSDOF 10
ENDMDL