MODEL 4
REMARK VINA RESULT: -6.414407530      1.071      1.229
REMARK  5 active torsions:
REMARK  status: ('A' for Active; 'I' for Inactive)
REMARK    1  A    between atoms: C2_2  and  C3_3
REMARK    2  A    between atoms: C4_4  and  C5_5
REMARK    3  A    between atoms: C5_5  and  C6_6
REMARK    4  A    between atoms: C16_22  and  C17_23
REMARK    5  A    between atoms: C17_23  and  C20_26
ROOT
HETATM    1  C6  UNL     1      18.619  -7.192  10.160  1.00  0.00     0.133 C
HETATM    2  O1  UNL     1      18.547  -7.509   8.843  1.00  0.00    -0.349 OA
HETATM    3  C7  UNL     1      17.256  -7.553   8.366  1.00  0.00     0.334 C
HETATM    4  O2  UNL     1      17.288  -8.129   7.091  1.00  0.00    -0.293 OA
HETATM    5  C8  UNL     1      16.345  -7.434   6.332  1.00  0.00     0.337 C
HETATM    6  C9  UNL     1      15.892  -8.162   5.113  1.00  0.00     0.120 C
HETATM    7  O3  UNL     1      15.260  -7.175   7.170  1.00  0.00    -0.166 OA
HETATM    8  O4  UNL     1      15.541  -6.077   7.841  1.00  0.00    -0.187 OA
HETATM    9  C10 UNL     1      16.916  -6.069   8.164  1.00  0.00     0.282 C
HETATM   10  O5  UNL     1      17.558  -5.708   6.980  1.00  0.00    -0.187 OA
HETATM   11  O6  UNL     1      16.843  -6.178   5.953  1.00  0.00    -0.166 OA
HETATM   12  C11 UNL     1      17.259  -5.246   9.350  1.00  0.00     0.066 C
HETATM   13  C12 UNL     1      18.270  -4.207   8.939  1.00  0.00     0.011 C
HETATM   14  C13 UNL     1      19.603  -4.382   9.578  1.00  0.00     0.005 C
HETATM   15  C14 UNL     1      19.521  -4.415  11.083  1.00  0.00    -0.013 C
HETATM   16  C15 UNL     1      20.857  -4.948  11.562  1.00  0.00     0.010 C
HETATM   17  C16 UNL     1      18.328  -5.195  11.627  1.00  0.00     0.005 C
HETATM   18  C24 UNL     1      17.691  -6.033  10.569  1.00  0.00     0.030 C
ENDROOT
BRANCH  17  19
HETATM   19  C17 UNL     1      17.576  -4.485  12.660  1.00  0.00    -0.037 C
HETATM   20  C18 UNL     1      16.099  -4.867  12.733  1.00  0.00     0.016 C
HETATM   21  C19 UNL     1      17.431  -2.982  12.286  1.00  0.00     0.016 C
BRANCH  19  22
HETATM   22  C20 UNL     1      18.097  -4.443  14.062  1.00  0.00    -0.044 C
HETATM   23  C21 UNL     1      16.945  -4.403  15.087  1.00  0.00     0.015 C
HETATM   24  C22 UNL     1      18.884  -3.215  14.396  1.00  0.00     0.015 C
HETATM   25  C23 UNL     1      18.810  -5.694  14.530  1.00  0.00     0.015 C
ENDBRANCH  19  22
ENDBRANCH  17  19
BRANCH   1  26
HETATM   26  C5  UNL     1      18.239  -8.490  10.898  1.00  0.00     0.059 C
BRANCH  26  27
HETATM   27  C4  UNL     1      19.406  -9.373  10.809  1.00  0.00    -0.028 C
HETATM   28  C3  UNL     1      19.329 -10.698  10.760  1.00  0.00    -0.031 C
BRANCH  28  29
HETATM   29  C2  UNL     1      20.537 -11.552  10.669  1.00  0.00     0.022 C
HETATM   30  C1  UNL     1      20.180 -13.017  10.547  1.00  0.00     0.009 C
ENDBRANCH  28  29
ENDBRANCH  26  27
ENDBRANCH   1  26
TORSDOF 5
ENDMDL