MODEL 4
REMARK VINA RESULT: -6.519295942      6.566      9.502
REMARK  4 active torsions:
REMARK  status: ('A' for Active; 'I' for Inactive)
REMARK    1  A    between atoms: C11_13  and  C12_14
REMARK    2  A    between atoms: C20_23  and  C21_24
REMARK    3  A    between atoms: C21_24  and  C22_29
REMARK    4  A    between atoms: N1_25  and  O4_27
ROOT
HETATM    1  C22 UNL     1      24.539   0.448   7.991  1.00  0.00     0.083 C
HETATM    2  C23 UNL     1      23.273   1.238   8.282  1.00  0.00     0.037 C
HETATM    3  C24 UNL     1      25.252   1.423   7.073  1.00  0.00     0.037 C
HETATM    4  C25 UNL     1      25.347   0.535   9.218  1.00  0.00     0.074 C
HETATM    5  N2  UNL     1      26.007   0.642  10.203  1.00  0.00    -0.196 NA
ENDROOT
BRANCH   1   6
HETATM    6  C21 UNL     1      24.328  -0.885   7.587  1.00  0.00     0.041 C
HETATM    7  N1  UNL     1      24.013  -1.656   8.549  1.00  0.00    -0.275 N
ATOM      8  H1  UNL     1      23.826  -2.589   8.182  1.00  0.00     0.193 HD
BRANCH   6   9
HETATM    9  C20 UNL     1      24.305  -1.633   6.277  1.00  0.00     0.011 C
HETATM   10  C7  UNL     1      23.506  -1.004   5.192  1.00  0.00    -0.018 C
HETATM   11  C6  UNL     1      23.959  -1.773   3.911  1.00  0.00     0.011 C
HETATM   12  C8  UNL     1      23.734   0.390   4.775  1.00  0.00     0.017 C
HETATM   13  C9  UNL     1      22.008  -1.148   5.225  1.00  0.00     0.105 C
HETATM   14  C5  UNL     1      25.067  -1.141   3.152  1.00  0.00     0.002 C
HETATM   15  C4  UNL     1      26.431  -1.611   3.580  1.00  0.00     0.009 C
HETATM   16  C2  UNL     1      26.653  -1.632   5.065  1.00  0.00    -0.047 C
HETATM   17  C1  UNL     1      27.791  -2.727   5.186  1.00  0.00     0.015 C
HETATM   18  C3  UNL     1      27.516  -0.463   5.500  1.00  0.00     0.015 C
HETATM   19  C26 UNL     1      25.642  -2.165   5.931  1.00  0.00     0.025 C
HETATM   20  C10 UNL     1      21.167  -0.130   5.797  1.00  0.00     0.265 C
HETATM   21  C16 UNL     1      21.422  -2.412   5.724  1.00  0.00     0.001 C
HETATM   22  O1  UNL     1      20.947   1.106   5.754  1.00  0.00    -0.265 OA
HETATM   23  O2  UNL     1      20.299  -0.788   6.722  1.00  0.00    -0.310 OA
HETATM   24  C11 UNL     1      20.005  -2.062   6.103  1.00  0.00     0.175 C
HETATM   25  C17 UNL     1      21.285  -3.519   4.749  1.00  0.00     0.019 C
HETATM   26  C18 UNL     1      22.139  -2.745   6.979  1.00  0.00     0.014 C
HETATM   27  C19 UNL     1      23.553  -2.960   6.579  1.00  0.00     0.017 C
BRANCH  24  28
HETATM   28  C12 UNL     1      19.315  -2.957   7.003  1.00  0.00    -0.004 A
HETATM   29  C13 UNL     1      18.398  -3.932   6.587  1.00  0.00     0.036 A
HETATM   30  C14 UNL     1      17.930  -4.573   7.706  1.00  0.00     0.142 A
HETATM   31  O3  UNL     1      18.515  -4.035   8.750  1.00  0.00    -0.334 OA
HETATM   32  C15 UNL     1      19.334  -3.084   8.373  1.00  0.00     0.151 A
ENDBRANCH  24  28
ENDBRANCH   6   9
BRANCH   7  33
HETATM   33  O4  UNL     1      23.849  -1.665   9.826  1.00  0.00    -0.290 OA
ATOM     34  H4  UNL     1      24.281  -1.924  10.633  1.00  0.00     0.244 HD
ENDBRANCH   7  33
ENDBRANCH   1   6
TORSDOF 4
ENDMDL