MODEL 2
REMARK VINA RESULT: -7.475901887      2.320      7.140
REMARK  6 active torsions:
REMARK  status: ('A' for Active; 'I' for Inactive)
REMARK    1  A    between atoms: C2_2  and  S1_3
REMARK    2  A    between atoms: S1_3  and  C3_4
REMARK    3  A    between atoms: C7_8  and  C8_9
REMARK       I    between atoms: C8_9  and  N1_11
REMARK    4  A    between atoms: N1_11  and  C9_13
REMARK    5  A    between atoms: C19_26  and  C20_27
REMARK    6  A    between atoms: C20_27  and  O2_28
ROOT
HETATM    1  C3  UNL     1      15.034  -4.903   4.597  1.00  0.00     0.054 C
HETATM    2  C4  UNL     1      15.899  -4.282   5.639  1.00  0.00     0.025 C
HETATM    3  C5  UNL     1      15.981  -5.049   6.936  1.00  0.00     0.018 C
HETATM    4  C6  UNL     1      16.986  -4.388   7.797  1.00  0.00    -0.009 C
HETATM    5  C7  UNL     1      17.995  -4.974   8.403  1.00  0.00     0.007 C
HETATM    6  C14 UNL     1      18.260  -6.452   8.281  1.00  0.00     0.044 C
HETATM    7  C15 UNL     1      17.766  -6.800   6.876  1.00  0.00     0.014 C
HETATM    8  C16 UNL     1      16.294  -6.484   6.771  1.00  0.00    -0.036 C
HETATM    9  C17 UNL     1      15.541  -7.276   7.843  1.00  0.00     0.016 C
HETATM   10  C18 UNL     1      15.814  -7.041   5.439  1.00  0.00     0.017 C
HETATM   11  C19 UNL     1      14.574  -6.247   5.080  1.00  0.00     0.024 C
ENDROOT
BRANCH   5  12
HETATM   12  C8  UNL     1      18.882  -4.133   9.217  1.00  0.00     0.252 C
HETATM   13  O1  UNL     1      18.367  -3.404  10.114  1.00  0.00    -0.268 OA
HETATM   14  N1  UNL     1      20.282  -4.118   9.025  1.00  0.00    -0.311 N
ATOM     15  H1  UNL     1      20.863  -4.823   9.481  1.00  0.00     0.170 HD
BRANCH  14  16
HETATM   16  C9  UNL     1      20.828  -3.230   8.286  1.00  0.00     0.121 A
HETATM   17  S2  UNL     1      20.146  -2.235   7.104  1.00  0.00    -0.063 SA
HETATM   18  C10 UNL     1      21.355  -1.194   6.394  1.00  0.00     0.032 A
HETATM   19  C11 UNL     1      21.366  -0.231   5.433  1.00  0.00     0.028 A
HETATM   20  C13 UNL     1      22.541  -1.475   6.997  1.00  0.00     0.065 A
HETATM   21  C12 UNL     1      22.569   0.364   5.164  1.00  0.00     0.052 A
HETATM   22  S3  UNL     1      23.636  -0.413   6.233  1.00  0.00    -0.093 SA
HETATM   23  S4  UNL     1      22.438  -2.707   8.202  1.00  0.00    -0.056 SA
ENDBRANCH  14  16
ENDBRANCH   5  12
BRANCH   1  24
HETATM   24  S1  UNL     1      13.642  -3.838   4.130  1.00  0.00    -0.164 SA
BRANCH  24  25
HETATM   25  C2  UNL     1      13.895  -3.262   2.430  1.00  0.00     0.070 C
HETATM   26  C1  UNL     1      14.931  -2.147   2.476  1.00  0.00     0.016 C
ENDBRANCH  24  25
ENDBRANCH   1  24
BRANCH  11  27
HETATM   27  C20 UNL     1      13.717  -6.980   4.077  1.00  0.00     0.169 C
BRANCH  27  28
HETATM   28  O2  UNL     1      13.348  -8.190   4.634  1.00  0.00    -0.400 OA
ATOM     29  H2  UNL     1      14.032  -8.822   4.443  1.00  0.00     0.209 HD
ENDBRANCH  27  28
ENDBRANCH  11  27
TORSDOF 6
ENDMDL