MODEL 2
REMARK VINA RESULT: -9.026319299      2.872      3.625
REMARK  5 active torsions:
REMARK  status: ('A' for Active; 'I' for Inactive)
REMARK    1  A    between atoms: C5_5  and  C6_6
REMARK    2  A    between atoms: C6_6  and  O1_7
REMARK    3  A    between atoms: O1_7  and  C7_8
REMARK    4  A    between atoms: C7_8  and  O3_10
REMARK    5  A    between atoms: O3_10  and  C8_11
ROOT
HETATM    1  C1  UNL     1      19.051  -3.380   8.849  1.00  0.00     0.010 C
HETATM    2  C2  UNL     1      18.775  -4.863   8.557  1.00  0.00    -0.014 C
HETATM    3  C3  UNL     1      17.298  -5.084   8.537  1.00  0.00     0.005 C
HETATM    4  C4  UNL     1      16.840  -6.198   9.423  1.00  0.00     0.012 C
HETATM    5  C5  UNL     1      17.681  -7.471   9.211  1.00  0.00    -0.013 C
HETATM    6  C15 UNL     1      17.056  -8.638   9.892  1.00  0.00     0.012 C
HETATM    7  C16 UNL     1      17.356  -9.978   9.303  1.00  0.00     0.001 C
HETATM    8  C17 UNL     1      16.854 -11.117  10.118  1.00  0.00     0.000 C
HETATM    9  C18 UNL     1      17.624 -11.483  11.325  1.00  0.00     0.000 C
HETATM   10  C19 UNL     1      19.036 -11.960  11.068  1.00  0.00     0.000 C
HETATM   11  C20 UNL     1      19.946 -11.137  11.981  1.00  0.00     0.002 C
HETATM   12  C21 UNL     1      20.896 -10.249  11.206  1.00  0.00     0.027 C
HETATM   13  C22 UNL     1      21.226  -8.968  11.940  1.00  0.00     0.232 C
HETATM   14  N1  UNL     1      20.875  -7.769  11.186  1.00  0.00    -0.075 N
ATOM     15  H11 UNL     1      21.401  -7.686  10.316  1.00  0.00     0.277 HD
ATOM     16  H12 UNL     1      21.208  -6.914  11.631  1.00  0.00     0.277 HD
HETATM   17  C23 UNL     1      19.433  -7.764  10.970  1.00  0.00     0.238 C
HETATM   18  C24 UNL     1      19.066  -7.107   9.668  1.00  0.00     0.026 C
HETATM   19  C25 UNL     1      19.403  -5.666   9.696  1.00  0.00    -0.008 C
HETATM   20  C26 UNL     1      19.138  -4.907  10.946  1.00  0.00     0.011 C
ENDROOT
BRANCH   5  21
HETATM   21  C6  UNL     1      17.583  -7.712   7.717  1.00  0.00     0.191 C
BRANCH  21  22
HETATM   22  O1  UNL     1      16.197  -8.013   7.476  1.00  0.00    -0.297 OA
BRANCH  22  23
HETATM   23  C7  UNL     1      15.512  -7.598   6.368  1.00  0.00     0.411 C
HETATM   24  O2  UNL     1      15.651  -8.199   5.295  1.00  0.00    -0.229 OA
BRANCH  23  25
HETATM   25  O3  UNL     1      14.678  -6.518   6.462  1.00  0.00    -0.256 OA
BRANCH  25  26
HETATM   26  C8  UNL     1      14.412  -5.647   5.418  1.00  0.00     0.084 A
HETATM   27  C9  UNL     1      14.799  -4.324   5.444  1.00  0.00     0.040 A
HETATM   28  C10 UNL     1      14.536  -3.452   4.405  1.00  0.00     0.042 A
HETATM   29  C11 UNL     1      13.853  -3.925   3.288  1.00  0.00     0.105 A
HETATM   30  C12 UNL     1      13.452  -5.248   3.232  1.00  0.00     0.107 A
HETATM   31  O5  UNL     1      13.465  -3.283   2.128  1.00  0.00    -0.323 OA
HETATM   32  C13 UNL     1      13.738  -6.098   4.306  1.00  0.00     0.077 A
HETATM   33  O4  UNL     1      12.808  -5.404   2.013  1.00  0.00    -0.323 OA
HETATM   34  C14 UNL     1      13.064  -4.274   1.204  1.00  0.00     0.352 C
ENDBRANCH  25  26
ENDBRANCH  23  25
ENDBRANCH  22  23
ENDBRANCH  21  22
ENDBRANCH   5  21
TORSDOF 5
ENDMDL