MODEL 2
REMARK VINA RESULT: -6.287238563      4.081      7.531
REMARK  4 active torsions:
REMARK  status: ('A' for Active; 'I' for Inactive)
REMARK    1  A    between atoms: C2_2  and  C4_4
REMARK    2  A    between atoms: C18_21  and  O3_23
REMARK    3  A    between atoms: C20_25  and  N1_26
REMARK    4  A    between atoms: N2_28  and  C21_30
ROOT
HETATM    1  C4  UNL     1      19.738  -3.536   9.170  1.00  0.00    -0.013 A
HETATM    2  C5  UNL     1      21.102  -3.536   9.279  1.00  0.00     0.025 A
HETATM    3  C6  UNL     1      21.817  -3.157   8.201  1.00  0.00    -0.016 A
HETATM    4  C7  UNL     1      21.132  -2.801   7.078  1.00  0.00     0.005 A
HETATM    5  S1  UNL     1      19.503  -3.010   7.570  1.00  0.00    -0.097 SA
HETATM    6  C8  UNL     1      22.099  -2.402   5.985  1.00  0.00     0.050 C
HETATM    7  C9  UNL     1      22.414  -3.668   5.206  1.00  0.00     0.027 C
HETATM    8  C10 UNL     1      23.315  -1.993   6.722  1.00  0.00     0.176 C
HETATM    9  O1  UNL     1      23.558  -0.738   7.062  1.00  0.00    -0.312 OA
HETATM   10  C11 UNL     1      23.377   0.364   7.733  1.00  0.00     0.267 C
HETATM   11  O2  UNL     1      23.354   0.595   8.995  1.00  0.00    -0.264 OA
HETATM   12  C12 UNL     1      23.147   1.627   6.929  1.00  0.00     0.041 C
HETATM   13  C13 UNL     1      24.393   1.731   6.034  1.00  0.00     0.025 C
HETATM   14  C14 UNL     1      23.135   2.868   7.755  1.00  0.00     0.025 C
HETATM   15  C15 UNL     1      21.886   1.551   6.123  1.00  0.00     0.019 C
HETATM   16  C16 UNL     1      20.933   0.479   6.571  1.00  0.00     0.004 C
HETATM   17  C17 UNL     1      20.540  -0.458   5.500  1.00  0.00     0.038 C
HETATM   18  C18 UNL     1      21.517  -1.447   5.024  1.00  0.00     0.069 C
HETATM   19  C19 UNL     1      20.749  -2.261   3.956  1.00  0.00     0.047 C
HETATM   20  C20 UNL     1      23.296  -3.011   7.880  1.00  0.00     0.163 C
ENDROOT
BRANCH  20  21
HETATM   21  N1  UNL     1      24.016  -2.471   8.965  1.00  0.00    -0.328 N
HETATM   22  N2  UNL     1      25.175  -2.564   9.276  1.00  0.00    -0.331 N
ATOM     23  H2  UNL     1      25.442  -2.066  10.124  1.00  0.00     0.180 HD
ATOM     24  H1  UNL     1      23.456  -1.900   9.599  1.00  0.00     0.180 HD
BRANCH  22  25
HETATM   25  C21 UNL     1      26.217  -3.266   8.633  1.00  0.00     0.034 C
HETATM   26  C22 UNL     1      27.400  -3.367   9.609  1.00  0.00     0.039 C
HETATM   27  C23 UNL     1      25.779  -4.695   8.353  1.00  0.00     0.039 C
HETATM   28  C24 UNL     1      26.719  -2.598   7.389  1.00  0.00     0.039 C
ENDBRANCH  22  25
ENDBRANCH  20  21
BRANCH   1  29
HETATM   29  C2  UNL     1      18.692  -3.897  10.172  1.00  0.00     0.017 C
HETATM   30  C1  UNL     1      17.542  -4.588   9.501  1.00  0.00     0.015 C
HETATM   31  C3  UNL     1      19.343  -4.801  11.204  1.00  0.00     0.015 C
ENDBRANCH   1  29
BRANCH  18  32
HETATM   32  O3  UNL     1      22.583  -0.896   4.280  1.00  0.00    -0.389 OA
ATOM     33  H3  UNL     1      23.379  -1.033   4.780  1.00  0.00     0.210 HD
ENDBRANCH  18  32
TORSDOF 4
ENDMDL