MODEL 2
REMARK VINA RESULT: -6.789401468      1.537      2.630
REMARK  8 active torsions:
REMARK  status: ('A' for Active; 'I' for Inactive)
REMARK    1  A    between atoms: N1_1  and  C1_5
REMARK    2  A    between atoms: N2_12  and  C8_13
REMARK    3  A    between atoms: C8_13  and  S2_15
REMARK    4  A    between atoms: S2_15  and  S3_16
REMARK    5  A    between atoms: S3_16  and  C9_17
REMARK    6  A    between atoms: C9_17  and  C10_19
REMARK    7  A    between atoms: C10_19  and  S5_20
REMARK    8  A    between atoms: S5_20  and  C11_21
ROOT
HETATM    1  C1  UNL     1      21.407  -0.414   4.838  1.00  0.00     0.188 C
HETATM    2  C2  UNL     1      22.864  -0.603   4.614  1.00  0.00     0.033 C
HETATM    3  C3  UNL     1      23.397  -1.867   4.064  1.00  0.00     0.002 C
HETATM    4  C4  UNL     1      24.037  -2.852   5.084  1.00  0.00     0.000 C
HETATM    5  C5  UNL     1      23.258  -2.668   6.271  1.00  0.00     0.002 C
HETATM    6  C6  UNL     1      23.069  -3.378   7.520  1.00  0.00     0.020 C
HETATM    7  C7  UNL     1      22.124  -2.400   8.278  1.00  0.00     0.129 C
HETATM    8  N2  UNL     1      20.770  -2.370   7.720  1.00  0.00    -0.346 N
HETATM    9  C17 UNL     1      20.206  -1.426   6.854  1.00  0.00     0.067 C
HETATM   10  C18 UNL     1      20.904  -0.279   6.244  1.00  0.00     0.077 C
ENDROOT
BRANCH   8  11
HETATM   11  C8  UNL     1      19.985  -3.458   8.176  1.00  0.00     0.151 C
HETATM   12  S1  UNL     1      20.273  -4.152   9.662  1.00  0.00    -0.052 SA
BRANCH  11  13
HETATM   13  S2  UNL     1      18.654  -4.163   7.305  1.00  0.00    -0.022 SA
BRANCH  13  14
HETATM   14  S3  UNL     1      17.255  -5.321   8.271  1.00  0.00    -0.042 SA
BRANCH  14  15
HETATM   15  C9  UNL     1      16.748  -6.748   7.313  1.00  0.00     0.066 C
HETATM   16  S4  UNL     1      16.887  -8.051   7.881  1.00  0.00    -0.076 SA
BRANCH  15  17
HETATM   17  C10 UNL     1      16.178  -6.578   5.954  1.00  0.00     0.138 C
BRANCH  17  18
HETATM   18  S5  UNL     1      14.648  -5.649   6.071  1.00  0.00    -0.124 SA
BRANCH  18  19
HETATM   19  C11 UNL     1      14.214  -4.829   4.560  1.00  0.00     0.000 A
HETATM   20  C12 UNL     1      13.491  -5.498   3.600  1.00  0.00     0.018 A
HETATM   21  C13 UNL     1      13.112  -4.914   2.411  1.00  0.00     0.001 A
HETATM   22  C14 UNL     1      13.491  -3.597   2.203  1.00  0.00     0.000 A
HETATM   23  C15 UNL     1      14.216  -2.912   3.154  1.00  0.00     0.001 A
HETATM   24  C16 UNL     1      14.587  -3.530   4.353  1.00  0.00     0.018 A
ENDBRANCH  18  19
ENDBRANCH  17  18
ENDBRANCH  15  17
ENDBRANCH  14  15
ENDBRANCH  13  14
ENDBRANCH  11  13
ENDBRANCH   8  11
BRANCH   1  25
HETATM   25  N1  UNL     1      20.545  -1.196   3.973  1.00  0.00    -0.075 N
ATOM     26  H13 UNL     1      19.883  -0.587   3.492  1.00  0.00     0.274 HD
ATOM     27  H12 UNL     1      21.074  -1.550   3.176  1.00  0.00     0.274 HD
ATOM     28  H11 UNL     1      20.050  -1.960   4.433  1.00  0.00     0.274 HD
ENDBRANCH   1  25
TORSDOF 8
ENDMDL