MODEL 4
REMARK VINA RESULT: -7.767965052      3.461      8.818
REMARK  3 active torsions:
REMARK  status: ('A' for Active; 'I' for Inactive)
REMARK    1  A    between atoms: C4_4  and  C5_5
REMARK    2  A    between atoms: C6_6  and  C7_7
REMARK    3  A    between atoms: C8_8  and  C9_9
ROOT
HETATM    1  C9  UNL     1      21.921  -2.356   6.302  1.00  0.00     0.153 C
HETATM    2  O1  UNL     1      22.884  -1.637   5.592  1.00  0.00    -0.368 OA
HETATM    3  C10 UNL     1      22.445  -0.461   5.068  1.00  0.00     0.083 C
HETATM    4  C11 UNL     1      21.060  -0.523   4.460  1.00  0.00     0.048 C
HETATM    5  C12 UNL     1      23.391  -0.095   3.917  1.00  0.00     0.048 C
HETATM    6  C13 UNL     1      22.454   0.700   6.034  1.00  0.00     0.191 C
HETATM    7  O2  UNL     1      22.636   1.853   5.311  1.00  0.00    -0.342 OA
HETATM    8  C14 UNL     1      22.807   2.990   6.056  1.00  0.00     0.190 C
HETATM    9  C15 UNL     1      23.199   4.111   5.120  1.00  0.00     0.081 C
HETATM   10  C16 UNL     1      21.527   3.345   6.782  1.00  0.00     0.081 C
HETATM   11  O3  UNL     1      23.860   2.773   6.942  1.00  0.00    -0.201 OA
HETATM   12  O4  UNL     1      23.565   1.797   7.774  1.00  0.00    -0.230 OA
HETATM   13  C17 UNL     1      23.470   0.570   7.116  1.00  0.00     0.192 C
HETATM   14  C18 UNL     1      23.035  -0.441   8.187  1.00  0.00     0.038 C
HETATM   15  C19 UNL     1      23.639  -1.785   7.951  1.00  0.00     0.014 C
HETATM   16  C20 UNL     1      22.621  -2.835   7.558  1.00  0.00    -0.018 C
HETATM   17  C21 UNL     1      23.412  -4.073   7.164  1.00  0.00     0.018 C
HETATM   18  C22 UNL     1      21.705  -3.183   8.680  1.00  0.00     0.018 C
ENDROOT
BRANCH   1  19
HETATM   19  C8  UNL     1      21.630  -3.562   5.464  1.00  0.00     0.006 C
HETATM   20  C7  UNL     1      20.430  -3.992   5.154  1.00  0.00    -0.002 C
BRANCH  20  21
HETATM   21  C6  UNL     1      19.179  -3.390   5.559  1.00  0.00    -0.003 C
HETATM   22  C5  UNL     1      18.284  -3.925   6.324  1.00  0.00    -0.016 C
BRANCH  22  23
HETATM   23  C4  UNL     1      18.338  -5.273   6.957  1.00  0.00     0.060 C
HETATM   24  C3  UNL     1      17.817  -6.319   6.046  1.00  0.00    -0.005 C
HETATM   25  C2  UNL     1      16.529  -6.578   5.980  1.00  0.00    -0.015 C
HETATM   26  C1  UNL     1      15.958  -7.628   5.070  1.00  0.00     0.052 C
HETATM   27  C25 UNL     1      15.579  -5.838   6.824  1.00  0.00     0.141 C
HETATM   28  O5  UNL     1      16.126  -4.865   7.682  1.00  0.00    -0.330 OA
HETATM   29  N1  UNL     1      14.334  -6.096   6.750  1.00  0.00    -0.380 N
HETATM   30  C23 UNL     1      17.423  -5.168   8.179  1.00  0.00     0.137 C
HETATM   31  C24 UNL     1      17.972  -4.016   8.999  1.00  0.00     0.041 C
ATOM     32  H12 UNL     1      13.938  -6.801   6.129  1.00  0.00     0.158 HD
ATOM     33  H11 UNL     1      13.675  -5.583   7.336  1.00  0.00     0.158 HD
ENDBRANCH  22  23
ENDBRANCH  20  21
ENDBRANCH   1  19
TORSDOF 3
ENDMDL