MODEL 2
REMARK VINA RESULT: -7.708585046      2.812      6.779
REMARK  7 active torsions:
REMARK  status: ('A' for Active; 'I' for Inactive)
REMARK    1  A    between atoms: C2_2  and  O1_4
REMARK    2  A    between atoms: O1_4  and  C4_5
REMARK    3  A    between atoms: C8_9  and  C9_10
REMARK    4  A    between atoms: C11_12  and  C18_22
REMARK    5  A    between atoms: C13_14  and  C14_15
REMARK    6  A    between atoms: C16_18  and  O3_19
REMARK    7  A    between atoms: C18_22  and  C25_32
ROOT
HETATM    1  C18 UNL     1      18.949  -4.133   7.743  1.00  0.00     0.210 C
HETATM    2  O4  UNL     1      19.159  -3.033   8.529  1.00  0.00    -0.197 OA
HETATM    3  O5  UNL     1      20.232  -2.417   8.113  1.00  0.00    -0.197 OA
HETATM    4  C19 UNL     1      20.621  -2.928   6.901  1.00  0.00     0.200 C
HETATM    5  C20 UNL     1      20.147  -2.102   5.741  1.00  0.00     0.071 C
HETATM    6  C21 UNL     1      21.305  -1.401   5.047  1.00  0.00     0.006 C
HETATM    7  C22 UNL     1      22.284  -2.378   4.453  1.00  0.00     0.000 C
HETATM    8  C23 UNL     1      22.435  -3.590   5.371  1.00  0.00     0.006 C
HETATM    9  C24 UNL     1      22.101  -3.125   6.773  1.00  0.00     0.071 C
HETATM   10  O6  UNL     1      20.016  -4.179   6.853  1.00  0.00    -0.312 OA
ENDROOT
BRANCH   1  11
HETATM   11  C11 UNL     1      17.707  -3.920   6.920  1.00  0.00     0.053 C
HETATM   12  C10 UNL     1      16.442  -4.222   7.677  1.00  0.00     0.016 C
HETATM   13  C9  UNL     1      16.575  -5.753   7.779  1.00  0.00    -0.001 C
HETATM   14  C13 UNL     1      17.056  -6.133   6.417  1.00  0.00     0.025 C
HETATM   15  C12 UNL     1      17.608  -4.892   5.766  1.00  0.00     0.020 C
BRANCH  13  16
HETATM   16  C8  UNL     1      17.610  -5.924   8.870  1.00  0.00     0.002 C
HETATM   17  C7  UNL     1      17.101  -5.654  10.255  1.00  0.00     0.006 C
HETATM   18  C6  UNL     1      18.348  -5.372  11.082  1.00  0.00     0.003 C
HETATM   19  C5  UNL     1      19.596  -5.886  10.396  1.00  0.00     0.032 C
HETATM   20  C4  UNL     1      19.396  -7.281   9.834  1.00  0.00     0.131 C
HETATM   21  C25 UNL     1      18.279  -7.256   8.829  1.00  0.00     0.085 C
BRANCH  20  22
HETATM   22  O1  UNL     1      19.055  -8.086  10.887  1.00  0.00    -0.381 OA
BRANCH  22  23
HETATM   23  C2  UNL     1      19.528  -9.334  10.980  1.00  0.00     0.113 C
HETATM   24  C1  UNL     1      18.696 -10.450  10.454  1.00  0.00     0.039 C
HETATM   25  C3  UNL     1      20.867  -9.394  10.252  1.00  0.00     0.039 C
ENDBRANCH  22  23
ENDBRANCH  20  22
ENDBRANCH  13  16
BRANCH  14  26
HETATM   26  C14 UNL     1      15.951  -6.760   5.625  1.00  0.00    -0.026 A
HETATM   27  C15 UNL     1      15.637  -8.086   5.463  1.00  0.00     0.152 A
HETATM   28  O2  UNL     1      14.571  -8.190   4.669  1.00  0.00    -0.300 OA
HETATM   29  C16 UNL     1      14.165  -7.004   4.298  1.00  0.00     0.183 A
HETATM   30  C17 UNL     1      15.013  -6.069   4.882  1.00  0.00     0.073 A
BRANCH  29  31
HETATM   31  O3  UNL     1      13.076  -6.729   3.466  1.00  0.00    -0.341 OA
ATOM     32  H3  UNL     1      12.939  -5.930   2.970  1.00  0.00     0.220 HD
ENDBRANCH  29  31
ENDBRANCH  14  26
ENDBRANCH   1  11
TORSDOF 7
ENDMDL