MODEL 3
REMARK VINA RESULT: -9.433744110      1.610      2.880
REMARK  3 active torsions:
REMARK  status: ('A' for Active; 'I' for Inactive)
REMARK    1  A    between atoms: C2_9  and  S1_10
REMARK    2  A    between atoms: S1_10  and  C3_11
REMARK    3  A    between atoms: C6_15  and  C7_16
ROOT
HETATM    1  C7  UNL     1      17.844  -4.769   6.247  1.00  0.00    -0.067 C
HETATM    2  C8  UNL     1      17.888  -4.435   7.693  1.00  0.00     0.035 C
HETATM    3  C9  UNL     1      18.794  -3.281   8.005  1.00  0.00     0.010 C
HETATM    4  C10 UNL     1      20.050  -3.237   7.140  1.00  0.00    -0.004 C
HETATM    5  C11 UNL     1      19.791  -3.481   5.695  1.00  0.00    -0.005 C
HETATM    6  C12 UNL     1      19.105  -4.879   5.569  1.00  0.00     0.040 C
HETATM    7  C13 UNL     1      20.973  -3.315   4.852  1.00  0.00     0.015 C
HETATM    8  C14 UNL     1      21.541  -1.911   4.846  1.00  0.00    -0.038 C
HETATM    9  C15 UNL     1      22.142  -1.571   3.492  1.00  0.00     0.015 C
HETATM   10  C16 UNL     1      20.512  -0.833   5.108  1.00  0.00     0.010 C
HETATM   11  C17 UNL     1      20.051  -0.804   6.546  1.00  0.00     0.008 C
HETATM   12  C18 UNL     1      20.684  -1.890   7.365  1.00  0.00     0.021 C
HETATM   13  C19 UNL     1      22.193  -1.907   7.277  1.00  0.00     0.195 C
HETATM   14  N5  UNL     1      22.640  -3.157   7.833  1.00  0.00    -0.070 N
ATOM     15  H51 UNL     1      22.163  -3.942   7.388  1.00  0.00     0.277 HD
ATOM     16  H52 UNL     1      22.297  -3.272   8.787  1.00  0.00     0.277 HD
HETATM   17  C20 UNL     1      24.066  -3.331   7.779  1.00  0.00     0.232 C
HETATM   18  C21 UNL     1      24.759  -2.459   6.780  1.00  0.00     0.028 C
HETATM   19  C22 UNL     1      23.889  -2.505   5.514  1.00  0.00     0.009 C
HETATM   20  C23 UNL     1      22.646  -1.719   5.848  1.00  0.00     0.025 C
ENDROOT
BRANCH   1  21
HETATM   21  C6  UNL     1      16.639  -5.541   5.784  1.00  0.00    -0.009 A
HETATM   22  C3  UNL     1      15.428  -4.948   5.547  1.00  0.00     0.059 A
HETATM   23  S2  UNL     1      14.371  -6.250   5.348  1.00  0.00    -0.094 SA
HETATM   24  C4  UNL     1      15.418  -7.548   5.549  1.00  0.00     0.052 A
HETATM   25  C5  UNL     1      16.634  -6.913   5.793  1.00  0.00     0.021 A
BRANCH  22  26
HETATM   26  S1  UNL     1      15.009  -3.170   5.420  1.00  0.00    -0.043 SA
BRANCH  26  27
HETATM   27  C2  UNL     1      15.199  -2.763   3.679  1.00  0.00     0.183 A
HETATM   28  N1  UNL     1      14.246  -3.167   2.734  1.00  0.00    -0.258 N
HETATM   29  C1  UNL     1      12.989  -3.840   3.066  1.00  0.00     0.181 C
HETATM   30  N2  UNL     1      14.671  -2.803   1.560  1.00  0.00    -0.224 N
HETATM   31  N3  UNL     1      15.819  -2.202   1.684  1.00  0.00    -0.226 N
ATOM     32  H2  UNL     1      14.181  -2.964   0.680  1.00  0.00     0.210 HD
HETATM   33  N4  UNL     1      16.135  -2.179   2.990  1.00  0.00    -0.263 N
ATOM     34  H3  UNL     1      16.380  -1.816   0.925  1.00  0.00     0.210 HD
ATOM     35  H4  UNL     1      16.981  -1.765   3.381  1.00  0.00     0.190 HD
ENDBRANCH  26  27
ENDBRANCH  22  26
ENDBRANCH   1  21
TORSDOF 3
ENDMDL