MODEL 1
REMARK VINA RESULT: -7.515637386      0.000      0.000
REMARK  5 active torsions:
REMARK  status: ('A' for Active; 'I' for Inactive)
REMARK    1  A    between atoms: C2_2  and  C4_5
REMARK    2  A    between atoms: C16_19  and  O3_20
REMARK    3  A    between atoms: O3_20  and  C17_21
REMARK    4  A    between atoms: C21_25  and  C22_26
REMARK    5  A    between atoms: C22_26  and  O4_29
ROOT
HETATM    1  C1  UNL     1      20.797  -2.672   8.088  1.00  0.00     0.026 C
HETATM    2  C2  UNL     1      19.427  -3.312   7.759  1.00  0.00     0.095 C
HETATM    3  C3  UNL     1      19.255  -3.218   6.350  1.00  0.00     0.064 C
HETATM    4  N1  UNL     1      19.116  -3.164   5.210  1.00  0.00    -0.197 NA
ENDROOT
BRANCH   2   5
HETATM    5  C4  UNL     1      19.436  -4.637   8.405  1.00  0.00     0.033 C
HETATM    6  C5  UNL     1      20.587  -4.614   9.413  1.00  0.00     0.009 C
HETATM    7  C6  UNL     1      20.177  -4.108  10.757  1.00  0.00     0.013 C
HETATM    8  C7  UNL     1      18.795  -4.374  11.196  1.00  0.00    -0.002 C
HETATM    9  C8  UNL     1      17.963  -3.095  11.036  1.00  0.00     0.019 C
HETATM   10  C9  UNL     1      18.805  -4.615  12.681  1.00  0.00     0.206 C
HETATM   11  C14 UNL     1      18.185  -5.492  10.436  1.00  0.00    -0.007 C
HETATM   12  O1  UNL     1      19.001  -5.851  13.192  1.00  0.00    -0.231 OA
HETATM   13  C10 UNL     1      17.454  -4.848  13.238  1.00  0.00     0.122 C
HETATM   14  O2  UNL     1      17.913  -6.032  13.868  1.00  0.00    -0.227 OA
HETATM   15  C11 UNL     1      16.992  -3.907  14.321  1.00  0.00     0.052 C
HETATM   16  C12 UNL     1      16.397  -5.169  12.256  1.00  0.00     0.044 C
HETATM   17  C13 UNL     1      16.791  -5.726  10.946  1.00  0.00     0.016 C
HETATM   18  C15 UNL     1      18.982  -6.755  10.692  1.00  0.00     0.019 C
HETATM   19  C16 UNL     1      18.193  -5.276   8.913  1.00  0.00     0.137 C
BRANCH  19  20
HETATM   20  O3  UNL     1      18.063  -6.519   8.409  1.00  0.00    -0.374 OA
BRANCH  20  21
HETATM   21  C17 UNL     1      17.112  -7.148   7.818  1.00  0.00     0.058 C
HETATM   22  C18 UNL     1      16.798  -8.598   8.009  1.00  0.00     0.046 C
HETATM   23  C19 UNL     1      15.768  -6.415   7.930  1.00  0.00     0.038 C
HETATM   24  C20 UNL     1      14.952  -6.512   6.667  1.00  0.00     0.010 C
HETATM   25  C21 UNL     1      15.534  -5.737   5.522  1.00  0.00     0.019 C
HETATM   26  C25 UNL     1      17.034  -5.682   5.766  1.00  0.00     0.010 C
HETATM   27  C26 UNL     1      17.392  -7.064   6.284  1.00  0.00     0.038 C
BRANCH  25  28
HETATM   28  C22 UNL     1      14.913  -4.402   5.284  1.00  0.00     0.054 C
HETATM   29  C23 UNL     1      14.193  -3.827   6.458  1.00  0.00     0.045 C
HETATM   30  C24 UNL     1      13.987  -4.540   4.088  1.00  0.00     0.045 C
BRANCH  28  31
HETATM   31  O4  UNL     1      15.918  -3.513   4.904  1.00  0.00    -0.390 OA
ATOM     32  H4  UNL     1      15.728  -2.666   5.290  1.00  0.00     0.210 HD
ENDBRANCH  28  31
ENDBRANCH  25  28
ENDBRANCH  20  21
ENDBRANCH  19  20
ENDBRANCH   2   5
TORSDOF 5
ENDMDL