MODEL 2
REMARK VINA RESULT: -9.973023930      0.070      1.361
REMARK  7 active torsions:
REMARK  status: ('A' for Active; 'I' for Inactive)
REMARK    1  A    between atoms: C2_2  and  C3_3
REMARK    2  A    between atoms: C3_3  and  O1_4
REMARK    3  A    between atoms: C3_3  and  C4_6
REMARK    4  A    between atoms: C4_6  and  C5_7
REMARK    5  A    between atoms: C8_10  and  C9_11
REMARK    6  A    between atoms: C9_11  and  N1_12
REMARK    7  A    between atoms: N1_12  and  C10_15
ROOT
HETATM    1  C5  UNL     1      14.677   5.278  -0.610  1.00  0.00    -0.012 C
HETATM    2  C6  UNL     1      14.301   3.823  -0.688  1.00  0.00     0.005 C
HETATM    3  C7  UNL     1      14.411   3.441  -2.175  1.00  0.00     0.006 C
HETATM    4  C8  UNL     1      13.206   4.047  -2.830  1.00  0.00     0.011 C
HETATM    5  C20 UNL     1      12.856   5.408  -2.347  1.00  0.00     0.006 C
HETATM    6  C21 UNL     1      13.931   6.125  -1.613  1.00  0.00     0.005 C
ENDROOT
BRANCH   4   7
HETATM    7  C9  UNL     1      13.350   3.948  -4.337  1.00  0.00     0.237 C
BRANCH   7   8
HETATM    8  N1  UNL     1      12.095   3.422  -4.839  1.00  0.00    -0.066 N
ATOM      9  H12 UNL     1      11.563   2.973  -4.094  1.00  0.00     0.278 HD
ATOM     10  H11 UNL     1      11.449   4.178  -5.071  1.00  0.00     0.278 HD
BRANCH   8  11
HETATM   11  C10 UNL     1      12.267   2.535  -5.953  1.00  0.00     0.127 C
HETATM   12  C11 UNL     1      10.916   2.116  -6.515  1.00  0.00     0.043 C
HETATM   13  C12 UNL     1      11.171   1.106  -7.607  1.00  0.00    -0.012 C
HETATM   14  C13 UNL     1      11.877  -0.108  -7.059  1.00  0.00     0.009 C
HETATM   15  C17 UNL     1      11.953   1.748  -8.725  1.00  0.00     0.009 C
HETATM   16  C14 UNL     1      13.236   0.319  -6.558  1.00  0.00    -0.012 C
HETATM   17  C15 UNL     1      14.031   0.931  -7.691  1.00  0.00     0.009 C
HETATM   18  C19 UNL     1      13.035   1.319  -5.451  1.00  0.00     0.043 C
HETATM   19  C16 UNL     1      13.299   2.150  -8.167  1.00  0.00    -0.012 C
HETATM   20  C18 UNL     1      13.060   3.158  -7.057  1.00  0.00     0.043 C
ENDBRANCH   8  11
ENDBRANCH   7   8
ENDBRANCH   4   7
BRANCH   1  21
HETATM   21  C4  UNL     1      14.690   5.857   0.761  1.00  0.00     0.037 C
BRANCH  21  22
HETATM   22  C3  UNL     1      16.014   6.045   1.390  1.00  0.00     0.130 C
BRANCH  22  23
HETATM   23  C2  UNL     1      16.112   7.482   1.936  1.00  0.00     0.006 C
HETATM   24  C1  UNL     1      17.477   8.060   1.604  1.00  0.00     0.022 C
HETATM   25  C22 UNL     1      16.046   7.352   3.402  1.00  0.00    -0.018 C
HETATM   26  C23 UNL     1      15.642   8.324   4.174  1.00  0.00    -0.022 C
HETATM   27  C24 UNL     1      15.221   9.623   3.629  1.00  0.00     0.105 C
HETATM   28  C25 UNL     1      14.534   9.385   2.345  1.00  0.00     0.131 C
HETATM   29  O2  UNL     1      13.591  10.077   2.037  1.00  0.00    -0.298 OA
HETATM   30  C26 UNL     1      14.985   8.317   1.437  1.00  0.00     0.094 C
ENDBRANCH  22  23
BRANCH  22  31
HETATM   31  O1  UNL     1      17.099   5.920   0.553  1.00  0.00    -0.394 OA
ATOM     32  H1  UNL     1      17.316   4.995   0.581  1.00  0.00     0.210 HD
ENDBRANCH  22  31
ENDBRANCH  21  22
ENDBRANCH   1  21
TORSDOF 7
ENDMDL