MODEL 4
REMARK VINA RESULT: -8.485562942      1.835      3.795
REMARK  8 active torsions:
REMARK  status: ('A' for Active; 'I' for Inactive)
REMARK    1  A    between atoms: C7_7  and  O1_9
REMARK    2  A    between atoms: C14_16  and  C15_17
REMARK    3  A    between atoms: C15_17  and  C17_19
REMARK    4  A    between atoms: C17_19  and  C18_20
REMARK    5  A    between atoms: C18_20  and  C19_21
REMARK    6  A    between atoms: C19_21  and  O2_22
REMARK    7  A    between atoms: C20_24  and  C21_25
REMARK    8  A    between atoms: C21_25  and  N1_26
ROOT
HETATM    1  C1  UNL     1      10.930   4.456  -5.178  1.00  0.00     0.036 C
HETATM    2  C2  UNL     1      12.271   3.872  -5.451  1.00  0.00    -0.024 C
HETATM    3  C3  UNL     1      12.388   2.712  -6.076  1.00  0.00    -0.059 C
HETATM    4  C4  UNL     1      11.150   1.979  -6.515  1.00  0.00     0.039 C
HETATM    5  C5  UNL     1      11.262   1.596  -7.977  1.00  0.00     0.013 C
HETATM    6  C6  UNL     1      12.614   2.112  -8.485  1.00  0.00     0.032 C
HETATM    7  C7  UNL     1      12.717   2.102  -9.953  1.00  0.00     0.059 C
HETATM    8  C8  UNL     1      12.640   3.528 -10.529  1.00  0.00     0.046 C
HETATM    9  C9  UNL     1      13.886   1.440 -10.580  1.00  0.00     0.038 C
HETATM   10  C10 UNL     1      15.156   1.460  -9.803  1.00  0.00     0.004 C
HETATM   11  C11 UNL     1      15.026   2.021  -8.424  1.00  0.00     0.014 C
HETATM   12  C12 UNL     1      13.759   1.526  -7.704  1.00  0.00    -0.013 C
HETATM   13  C13 UNL     1      13.755   0.023  -7.707  1.00  0.00     0.021 C
HETATM   14  C14 UNL     1      13.731   2.159  -6.350  1.00  0.00    -0.061 C
ENDROOT
BRANCH  14  15
HETATM   15  C15 UNL     1      14.392   1.449  -5.235  1.00  0.00     0.012 C
HETATM   16  C16 UNL     1      13.507   0.688  -4.295  1.00  0.00     0.015 C
BRANCH  15  17
HETATM   17  C17 UNL     1      15.324   2.340  -4.444  1.00  0.00     0.015 C
BRANCH  17  18
HETATM   18  C18 UNL     1      15.676   1.786  -3.085  1.00  0.00     0.065 C
BRANCH  18  19
HETATM   19  C19 UNL     1      14.952   2.629  -2.086  1.00  0.00     0.041 C
HETATM   20  C20 UNL     1      14.588   3.870  -2.327  1.00  0.00     0.035 C
BRANCH  19  21
HETATM   21  O2  UNL     1      14.631   2.103  -0.820  1.00  0.00    -0.365 OA
ATOM     22  H2  UNL     1      15.286   2.086  -0.132  1.00  0.00     0.217 HD
ENDBRANCH  19  21
BRANCH  20  23
HETATM   23  C21 UNL     1      13.877   4.700  -1.345  1.00  0.00     0.302 C
BRANCH  23  24
HETATM   24  N1  UNL     1      14.739   5.766  -0.882  1.00  0.00     0.091 N
HETATM   25  C22 UNL     1      14.120   7.051  -0.902  1.00  0.00     0.272 C
HETATM   26  C23 UNL     1      13.674   7.472   0.479  1.00  0.00     0.030 C
HETATM   27  C24 UNL     1      14.940   7.792   1.260  1.00  0.00     0.003 C
HETATM   28  C25 UNL     1      15.939   6.651   1.070  1.00  0.00     0.030 C
HETATM   29  C26 UNL     1      15.243   5.468   0.426  1.00  0.00     0.272 C
ENDBRANCH  23  24
ENDBRANCH  20  23
ENDBRANCH  18  19
ENDBRANCH  17  18
ENDBRANCH  15  17
ENDBRANCH  14  15
BRANCH   7  30
HETATM   30  O1  UNL     1      11.566   1.427 -10.444  1.00  0.00    -0.390 OA
ATOM     31  H1  UNL     1      11.876   0.694 -10.963  1.00  0.00     0.210 HD
ENDBRANCH   7  30
TORSDOF 8
ENDMDL