MODEL 1
REMARK VINA RESULT: -8.736706172      0.000      0.000
REMARK  8 active torsions:
REMARK  status: ('A' for Active; 'I' for Inactive)
REMARK    1  A    between atoms: C2_2  and  C4_5
REMARK    2  A    between atoms: C4_5  and  C22_25
REMARK    3  A    between atoms: C5_6  and  C6_7
REMARK    4  A    between atoms: C7_8  and  C8_9
REMARK    5  A    between atoms: C8_9  and  C10_11
REMARK    6  A    between atoms: C11_12  and  O1_13
REMARK    7  A    between atoms: C22_25  and  C23_26
REMARK    8  A    between atoms: C23_26  and  C25_28
ROOT
HETATM    1  C1  UNL     1      13.161   2.610  -0.250  1.00  0.00     0.036 C
HETATM    2  C2  UNL     1      14.101   2.790  -1.146  1.00  0.00     0.042 C
HETATM    3  C3  UNL     1      15.304   2.036  -1.024  1.00  0.00     0.099 C
HETATM    4  N1  UNL     1      16.261   1.409  -0.914  1.00  0.00    -0.191 NA
ENDROOT
BRANCH   2   5
HETATM    5  C4  UNL     1      13.934   3.745  -2.240  1.00  0.00    -0.034 C
HETATM    6  C5  UNL     1      12.912   3.531  -3.097  1.00  0.00     0.009 C
BRANCH   6   7
HETATM    7  C6  UNL     1      12.620   4.365  -4.207  1.00  0.00     0.001 C
HETATM    8  C7  UNL     1      12.091   4.150  -5.337  1.00  0.00     0.007 C
BRANCH   8   9
HETATM    9  C8  UNL     1      11.530   3.045  -6.094  1.00  0.00    -0.059 C
HETATM   10  C9  UNL     1      10.384   2.579  -5.646  1.00  0.00     0.019 C
BRANCH   9  11
HETATM   11  C10 UNL     1      12.188   2.474  -7.246  1.00  0.00     0.062 C
HETATM   12  C11 UNL     1      12.017   0.926  -7.158  1.00  0.00     0.150 C
HETATM   13  C12 UNL     1      13.226   0.536  -6.418  1.00  0.00     0.009 C
HETATM   14  C13 UNL     1      14.208   1.446  -6.546  1.00  0.00    -0.064 C
HETATM   15  C14 UNL     1      15.578   1.450  -5.982  1.00  0.00    -0.024 C
HETATM   16  C20 UNL     1      13.667   2.516  -7.414  1.00  0.00    -0.010 C
HETATM   17  C15 UNL     1      16.157   0.080  -6.358  1.00  0.00     0.019 C
HETATM   18  C16 UNL     1      15.669   1.586  -4.517  1.00  0.00     0.019 C
HETATM   19  C17 UNL     1      16.441   2.483  -6.699  1.00  0.00     0.013 C
HETATM   20  C18 UNL     1      15.703   3.783  -6.591  1.00  0.00     0.002 C
HETATM   21  C19 UNL     1      14.361   3.796  -7.250  1.00  0.00     0.014 C
HETATM   22  C21 UNL     1      13.894   2.054  -8.904  1.00  0.00     0.021 C
BRANCH  12  23
HETATM   23  O1  UNL     1      11.912   0.340  -8.381  1.00  0.00    -0.391 OA
ATOM     24  H1  UNL     1      11.970  -0.607  -8.339  1.00  0.00     0.210 HD
ENDBRANCH  12  23
ENDBRANCH   9  11
ENDBRANCH   8   9
ENDBRANCH   6   7
BRANCH   5  25
HETATM   25  C22 UNL     1      14.803   4.932  -2.340  1.00  0.00     0.084 C
BRANCH  25  26
HETATM   26  C23 UNL     1      14.412   5.910  -1.287  1.00  0.00     0.013 C
HETATM   27  C24 UNL     1      13.532   6.862  -1.525  1.00  0.00     0.026 C
BRANCH  26  28
HETATM   28  C25 UNL     1      15.034   5.787   0.033  1.00  0.00     0.204 C
HETATM   29  O2  UNL     1      14.462   6.198   1.051  1.00  0.00    -0.644 OA
HETATM   30  O3  UNL     1      16.281   5.196   0.109  1.00  0.00    -0.644 OA
ENDBRANCH  26  28
ENDBRANCH  25  26
ENDBRANCH   5  25
ENDBRANCH   2   5
TORSDOF 8
ENDMDL