MODEL 3
REMARK VINA RESULT: -9.599464709      1.931      3.708
REMARK  8 active torsions:
REMARK  status: ('A' for Active; 'I' for Inactive)
REMARK    1  A    between atoms: C3_3  and  C4_4
REMARK    2  A    between atoms: C4_4  and  C6_6
REMARK    3  A    between atoms: C6_6  and  C7_7
REMARK    4  A    between atoms: C7_7  and  C8_8
REMARK    5  A    between atoms: C8_8  and  C9_10
REMARK    6  A    between atoms: C9_10  and  C10_11
REMARK    7  A    between atoms: C10_11  and  N1_12
REMARK    8  A    between atoms: C24_29  and  O2_30
ROOT
HETATM    1  C1  UNL     1      16.152   4.137  -1.608  1.00  0.00     0.015 C
HETATM    2  C2  UNL     1      14.923   4.009  -2.052  1.00  0.00    -0.073 C
HETATM    3  C3  UNL     1      13.885   4.930  -1.534  1.00  0.00     0.018 C
HETATM    4  C11 UNL     1      12.777   5.282  -2.458  1.00  0.00     0.010 C
HETATM    5  C12 UNL     1      12.480   4.325  -3.560  1.00  0.00     0.007 C
HETATM    6  C13 UNL     1      13.721   3.698  -4.095  1.00  0.00     0.009 C
HETATM    7  C14 UNL     1      13.548   2.944  -5.398  1.00  0.00    -0.035 C
HETATM    8  C15 UNL     1      14.529   3.408  -6.454  1.00  0.00     0.016 C
HETATM    9  C16 UNL     1      12.166   3.196  -5.987  1.00  0.00     0.010 C
HETATM   10  C17 UNL     1      12.032   2.512  -7.293  1.00  0.00     0.002 C
HETATM   11  C18 UNL     1      12.833   1.301  -7.545  1.00  0.00     0.009 C
HETATM   12  C19 UNL     1      13.373   0.600  -6.346  1.00  0.00    -0.043 C
HETATM   13  C20 UNL     1      12.352  -0.478  -5.993  1.00  0.00     0.015 C
HETATM   14  C21 UNL     1      14.578  -0.218  -6.772  1.00  0.00     0.015 C
HETATM   15  C22 UNL     1      13.647   1.478  -5.164  1.00  0.00     0.004 C
HETATM   16  C23 UNL     1      14.979   1.150  -4.595  1.00  0.00     0.039 C
HETATM   17  C24 UNL     1      15.554   2.112  -3.593  1.00  0.00     0.131 C
HETATM   18  C25 UNL     1      14.466   2.991  -3.019  1.00  0.00     0.009 C
HETATM   19  C26 UNL     1      13.625   2.066  -2.133  1.00  0.00     0.023 C
ENDROOT
BRANCH   3  20
HETATM   20  C4  UNL     1      14.467   6.174  -0.899  1.00  0.00    -0.010 C
HETATM   21  C5  UNL     1      13.898   7.441  -1.431  1.00  0.00     0.010 C
BRANCH  20  22
HETATM   22  C6  UNL     1      14.351   6.138   0.602  1.00  0.00     0.012 C
BRANCH  22  23
HETATM   23  C7  UNL     1      15.570   6.620   1.341  1.00  0.00     0.079 C
BRANCH  23  24
HETATM   24  C8  UNL     1      15.406   7.936   1.986  1.00  0.00     0.128 C
HETATM   25  O1  UNL     1      14.575   8.737   1.620  1.00  0.00    -0.298 OA
BRANCH  24  26
HETATM   26  C9  UNL     1      16.264   8.350   3.135  1.00  0.00     0.105 C
BRANCH  26  27
HETATM   27  C10 UNL     1      15.431   9.090   4.179  1.00  0.00     0.237 C
BRANCH  27  28
HETATM   28  N1  UNL     1      15.801   8.736   5.514  1.00  0.00    -0.079 N
ATOM     29  H13 UNL     1      15.638   7.745   5.692  1.00  0.00     0.274 HD
ATOM     30  H12 UNL     1      16.813   8.757   5.635  1.00  0.00     0.274 HD
ATOM     31  H11 UNL     1      15.334   9.317   6.210  1.00  0.00     0.274 HD
ENDBRANCH  27  28
ENDBRANCH  26  27
ENDBRANCH  24  26
ENDBRANCH  23  24
ENDBRANCH  22  23
ENDBRANCH  20  22
ENDBRANCH   3  20
BRANCH  17  32
HETATM   32  O2  UNL     1      16.587   2.856  -4.199  1.00  0.00    -0.394 OA
ATOM     33  H2  UNL     1      16.462   3.779  -4.010  1.00  0.00     0.210 HD
ENDBRANCH  17  32
TORSDOF 8
ENDMDL