MODEL 4
REMARK VINA RESULT: -9.627160192      1.996      3.839
REMARK  7 active torsions:
REMARK  status: ('A' for Active; 'I' for Inactive)
REMARK    1  A    between atoms: C4_4  and  C5_5
REMARK    2  A    between atoms: C5_5  and  C6_6
REMARK    3  A    between atoms: C6_6  and  C7_7
REMARK    4  A    between atoms: C9_9  and  C10_10
REMARK    5  A    between atoms: C11_11  and  C12_12
REMARK    6  A    between atoms: C22_22  and  O1_23
REMARK    7  A    between atoms: C25_27  and  N1_28
ROOT
HETATM    1  C12 UNL     1      14.542   2.556  -5.554  1.00  0.00     0.011 C
HETATM    2  C13 UNL     1      15.575   3.602  -5.761  1.00  0.00     0.022 C
HETATM    3  C14 UNL     1      13.225   3.182  -6.125  1.00  0.00     0.236 C
HETATM    4  C15 UNL     1      13.313   3.491  -7.555  1.00  0.00     0.051 C
HETATM    5  C16 UNL     1      13.327   2.193  -8.291  1.00  0.00     0.023 C
HETATM    6  C17 UNL     1      12.000   1.515  -8.036  1.00  0.00     0.050 C
HETATM    7  C18 UNL     1      11.862   1.242  -6.559  1.00  0.00     0.224 C
HETATM    8  C19 UNL     1      12.562  -0.018  -6.171  1.00  0.00     0.036 C
HETATM    9  C20 UNL     1      13.997   0.098  -5.848  1.00  0.00     0.011 C
HETATM   10  C21 UNL     1      14.724   1.310  -6.383  1.00  0.00     0.035 C
HETATM   11  C22 UNL     1      14.483   1.372  -7.829  1.00  0.00     0.072 C
HETATM   12  C23 UNL     1      15.597   1.706  -8.746  1.00  0.00     0.041 C
HETATM   13  C24 UNL     1      15.032   2.680  -9.794  1.00  0.00     0.036 C
HETATM   14  C25 UNL     1      13.538   2.348  -9.765  1.00  0.00     0.195 C
HETATM   15  N2  UNL     1      12.169   2.360  -5.717  1.00  0.00     0.094 N
HETATM   16  C26 UNL     1      10.972   3.187  -5.542  1.00  0.00     0.310 C
ENDROOT
BRANCH   1  17
HETATM   17  C11 UNL     1      14.191   2.367  -4.141  1.00  0.00    -0.015 C
HETATM   18  C10 UNL     1      14.703   3.022  -2.984  1.00  0.00    -0.003 C
BRANCH  18  19
HETATM   19  C9  UNL     1      14.580   4.306  -2.422  1.00  0.00     0.002 C
HETATM   20  C7  UNL     1      13.668   5.193  -2.328  1.00  0.00    -0.084 C
HETATM   21  C8  UNL     1      12.249   5.171  -2.743  1.00  0.00     0.043 C
BRANCH  20  22
HETATM   22  C6  UNL     1      14.023   6.498  -1.596  1.00  0.00     0.037 C
BRANCH  22  23
HETATM   23  C5  UNL     1      14.497   6.233  -0.200  1.00  0.00     0.031 C
BRANCH  23  24
HETATM   24  C4  UNL     1      14.094   7.425   0.612  1.00  0.00    -0.024 C
HETATM   25  C2  UNL     1      14.856   8.011   1.499  1.00  0.00    -0.091 C
HETATM   26  C1  UNL     1      16.217   7.500   1.756  1.00  0.00     0.042 C
HETATM   27  C3  UNL     1      14.338   9.206   2.247  1.00  0.00     0.042 C
ENDBRANCH  23  24
ENDBRANCH  22  23
ENDBRANCH  20  22
ENDBRANCH  18  19
ENDBRANCH   1  17
BRANCH  11  28
HETATM   28  O1  UNL     1      14.127   0.035  -8.227  1.00  0.00    -0.389 OA
ATOM     29  H1  UNL     1      13.248  -0.073  -7.884  1.00  0.00     0.210 HD
ENDBRANCH  11  28
BRANCH  14  30
HETATM   30  N1  UNL     1      12.729   3.366 -10.364  1.00  0.00    -0.074 N
ATOM     31  H13 UNL     1      12.133   2.969 -11.090  1.00  0.00     0.274 HD
ATOM     32  H12 UNL     1      12.014   3.686  -9.710  1.00  0.00     0.274 HD
ATOM     33  H11 UNL     1      13.260   4.157 -10.728  1.00  0.00     0.274 HD
ENDBRANCH  14  30
TORSDOF 7
ENDMDL