MODEL 1
REMARK VINA RESULT: -9.263973338      0.000      0.000
REMARK  9 active torsions:
REMARK  status: ('A' for Active; 'I' for Inactive)
REMARK    1  A    between atoms: C2_2  and  N1_3
REMARK    2  A    between atoms: C2_2  and  C3_7
REMARK    3  A    between atoms: C8_12  and  O1_13
REMARK    4  A    between atoms: O1_13  and  C9_14
REMARK    5  A    between atoms: C9_14  and  O2_15
REMARK    6  A    between atoms: C14_21  and  C15_22
REMARK    7  A    between atoms: C15_22  and  C16_23
REMARK    8  A    between atoms: C16_23  and  C17_24
REMARK    9  A    between atoms: C17_24  and  C19_26
ROOT
HETATM    1  C3  UNL     1      14.155   5.200  -2.163  1.00  0.00     0.024 C
HETATM    2  C4  UNL     1      12.711   4.881  -2.167  1.00  0.00     0.034 C
HETATM    3  C5  UNL     1      12.318   4.662  -3.591  1.00  0.00    -0.023 C
HETATM    4  C6  UNL     1      13.132   4.038  -4.353  1.00  0.00    -0.072 C
HETATM    5  C7  UNL     1      12.847   3.752  -5.774  1.00  0.00     0.066 C
HETATM    6  C8  UNL     1      12.625   2.222  -5.804  1.00  0.00     0.128 C
HETATM    7  C10 UNL     1      13.500   1.437  -4.920  1.00  0.00     0.033 C
HETATM    8  C11 UNL     1      13.934   2.031  -3.598  1.00  0.00     0.016 C
HETATM    9  C12 UNL     1      14.424   3.448  -3.846  1.00  0.00    -0.017 C
HETATM   10  C13 UNL     1      15.378   3.495  -5.062  1.00  0.00     0.020 C
HETATM   11  C14 UNL     1      15.080   4.183  -2.753  1.00  0.00     0.004 C
ENDROOT
BRANCH  11  12
HETATM   12  C15 UNL     1      15.813   3.391  -1.716  1.00  0.00     0.006 C
BRANCH  12  13
HETATM   13  C16 UNL     1      17.316   3.349  -1.864  1.00  0.00     0.005 C
BRANCH  13  14
HETATM   14  C17 UNL     1      17.782   2.014  -2.361  1.00  0.00    -0.014 C
HETATM   15  C18 UNL     1      18.435   1.233  -1.202  1.00  0.00     0.010 C
BRANCH  14  16
HETATM   16  C19 UNL     1      18.766   2.008  -3.468  1.00  0.00     0.001 A
HETATM   17  C20 UNL     1      20.030   1.312  -3.012  1.00  0.00     0.033 A
HETATM   18  C21 UNL     1      20.342   0.345  -4.071  1.00  0.00    -0.023 A
HETATM   19  C22 UNL     1      19.481   0.384  -5.044  1.00  0.00    -0.079 A
HETATM   20  C23 UNL     1      19.049  -0.153  -6.353  1.00  0.00     0.034 C
HETATM   21  C26 UNL     1      18.429   1.437  -4.762  1.00  0.00     0.019 A
HETATM   22  C24 UNL     1      17.577  -0.418  -6.044  1.00  0.00     0.005 C
HETATM   23  C25 UNL     1      17.212   0.595  -4.931  1.00  0.00     0.010 C
ENDBRANCH  14  16
ENDBRANCH  13  14
ENDBRANCH  12  13
ENDBRANCH  11  12
BRANCH   1  24
HETATM   24  C2  UNL     1      14.629   5.752  -0.823  1.00  0.00     0.184 C
HETATM   25  C1  UNL     1      13.874   7.068  -0.589  1.00  0.00     0.040 C
BRANCH  24  26
HETATM   26  N1  UNL     1      14.203   4.879   0.254  1.00  0.00    -0.075 N
ATOM     27  H13 UNL     1      14.871   4.814   1.022  1.00  0.00     0.274 HD
ATOM     28  H12 UNL     1      13.428   5.249   0.804  1.00  0.00     0.274 HD
ATOM     29  H11 UNL     1      14.001   3.986  -0.195  1.00  0.00     0.274 HD
ENDBRANCH  24  26
ENDBRANCH   1  24
BRANCH   6  30
HETATM   30  O1  UNL     1      11.293   2.005  -5.457  1.00  0.00    -0.362 OA
BRANCH  30  31
HETATM   31  C9  UNL     1      10.430   2.218  -6.525  1.00  0.00     0.335 C
BRANCH  31  32
HETATM   32  O2  UNL     1       9.100   2.194  -6.186  1.00  0.00    -0.377 OA
ATOM     33  H2  UNL     1       8.557   1.685  -6.776  1.00  0.00     0.212 HD
ENDBRANCH  31  32
ENDBRANCH  30  31
ENDBRANCH   6  30
TORSDOF 9
ENDMDL