MODEL 4
REMARK VINA RESULT: -7.953204988      3.129      7.917
REMARK  7 active torsions:
REMARK  status: ('A' for Active; 'I' for Inactive)
REMARK    1  A    between atoms: C2_2  and  S1_3
REMARK    2  A    between atoms: S1_3  and  C3_4
REMARK    3  A    between atoms: C3_4  and  C4_5
REMARK    4  A    between atoms: C4_5  and  O1_7
REMARK    5  A    between atoms: C4_5  and  C6_9
REMARK    6  A    between atoms: C15_18  and  O2_19
REMARK    7  A    between atoms: C23_28  and  C24_29
ROOT
HETATM    1  C6  UNL     1      15.123   5.513  -1.160  1.00  0.00     0.036 C
HETATM    2  C7  UNL     1      16.258   4.556  -0.877  1.00  0.00     0.009 C
HETATM    3  C8  UNL     1      16.252   3.554  -2.041  1.00  0.00     0.007 C
HETATM    4  C9  UNL     1      15.149   4.061  -2.897  1.00  0.00     0.006 C
HETATM    5  C10 UNL     1      14.609   3.182  -3.939  1.00  0.00    -0.001 C
HETATM    6  C11 UNL     1      15.191   3.627  -5.262  1.00  0.00     0.033 C
HETATM    7  C12 UNL     1      14.412   3.199  -6.432  1.00  0.00    -0.023 C
HETATM    8  C13 UNL     1      13.206   2.697  -6.403  1.00  0.00    -0.072 C
HETATM    9  C14 UNL     1      12.539   2.307  -7.661  1.00  0.00     0.066 C
HETATM   10  C15 UNL     1      12.129   0.862  -7.491  1.00  0.00     0.122 C
HETATM   11  C16 UNL     1      12.595   0.228  -6.227  1.00  0.00     0.033 C
HETATM   12  C17 UNL     1      12.344   0.992  -4.968  1.00  0.00     0.016 C
HETATM   13  C18 UNL     1      12.493   2.498  -5.154  1.00  0.00    -0.017 C
HETATM   14  C19 UNL     1      11.040   2.996  -5.229  1.00  0.00     0.020 C
HETATM   15  C20 UNL     1      13.109   3.146  -3.936  1.00  0.00     0.003 C
HETATM   16  C21 UNL     1      12.499   4.505  -3.733  1.00  0.00     0.007 C
HETATM   17  C22 UNL     1      13.131   5.342  -2.688  1.00  0.00     0.018 C
HETATM   18  C23 UNL     1      14.154   4.626  -1.884  1.00  0.00     0.023 C
ENDROOT
BRANCH   1  19
HETATM   19  C4  UNL     1      14.657   6.307  -0.041  1.00  0.00     0.067 C
HETATM   20  C5  UNL     1      14.336   5.602   1.234  1.00  0.00     0.047 C
BRANCH  19  21
HETATM   21  C3  UNL     1      15.791   7.291   0.311  1.00  0.00     0.111 C
BRANCH  21  22
HETATM   22  S1  UNL     1      16.173   7.209   2.071  1.00  0.00    -0.167 SA
BRANCH  22  23
HETATM   23  C2  UNL     1      15.511   8.697   2.856  1.00  0.00     0.069 C
HETATM   24  C1  UNL     1      15.746   8.719   4.338  1.00  0.00     0.016 C
ENDBRANCH  22  23
ENDBRANCH  21  22
ENDBRANCH  19  21
BRANCH  19  25
HETATM   25  O1  UNL     1      13.573   7.104  -0.375  1.00  0.00    -0.389 OA
ATOM     26  H1  UNL     1      13.729   7.934   0.059  1.00  0.00     0.210 HD
ENDBRANCH  19  25
ENDBRANCH   1  19
BRANCH  18  27
HETATM   27  C24 UNL     1      13.613   3.664  -0.936  1.00  0.00     0.241 C
HETATM   28  O3  UNL     1      14.073   2.616  -0.588  1.00  0.00    -0.306 OA
ENDBRANCH  18  27
BRANCH  10  29
HETATM   29  O2  UNL     1      12.735   0.134  -8.546  1.00  0.00    -0.395 OA
ATOM     30  H2  UNL     1      12.737   0.702  -9.308  1.00  0.00     0.210 HD
ENDBRANCH  10  29
TORSDOF 7
ENDMDL