MODEL 3
REMARK VINA RESULT: -8.831442111      1.632      2.447
REMARK  9 active torsions:
REMARK  status: ('A' for Active; 'I' for Inactive)
REMARK    1  A    between atoms: O1_2  and  C2_3
REMARK    2  A    between atoms: C2_3  and  O2_4
REMARK    3  A    between atoms: C2_3  and  C3_6
REMARK    4  A    between atoms: C3_6  and  C4_7
REMARK    5  A    between atoms: C4_7  and  C6_9
REMARK    6  A    between atoms: C14_17  and  C15_18
REMARK    7  A    between atoms: C15_18  and  O3_19
REMARK    8  A    between atoms: C15_18  and  C16_21
REMARK    9  A    between atoms: C17_22  and  C18_23
ROOT
HETATM    1  C6  UNL     1      12.571  -0.363  -6.992  1.00  0.00    -0.002 C
HETATM    2  C7  UNL     1      13.893  -0.563  -7.772  1.00  0.00     0.006 C
HETATM    3  C8  UNL     1      14.840   0.245  -6.860  1.00  0.00     0.006 C
HETATM    4  C9  UNL     1      14.046   1.491  -6.770  1.00  0.00    -0.001 C
HETATM    5  C10 UNL     1      14.492   2.531  -5.865  1.00  0.00    -0.001 C
HETATM    6  C11 UNL     1      15.909   3.014  -6.013  1.00  0.00     0.006 C
HETATM    7  C12 UNL     1      15.847   4.155  -4.976  1.00  0.00     0.006 C
HETATM    8  C13 UNL     1      15.075   3.492  -3.819  1.00  0.00     0.001 A
HETATM    9  C14 UNL     1      16.053   2.624  -3.067  1.00  0.00     0.024 A
HETATM   10  C21 UNL     1      15.378   1.436  -3.710  1.00  0.00     0.018 A
HETATM   11  C22 UNL     1      14.399   2.291  -4.396  1.00  0.00    -0.032 A
HETATM   12  C23 UNL     1      12.944   2.071  -4.112  1.00  0.00     0.011 C
HETATM   13  C24 UNL     1      12.542   0.827  -4.883  1.00  0.00     0.011 C
HETATM   14  C25 UNL     1      12.661   0.990  -6.390  1.00  0.00    -0.036 C
HETATM   15  C26 UNL     1      11.603   1.973  -6.827  1.00  0.00     0.016 C
ENDROOT
BRANCH   1  16
HETATM   16  C4  UNL     1      11.493  -0.584  -8.012  1.00  0.00    -0.009 C
HETATM   17  C5  UNL     1      10.836  -1.946  -7.929  1.00  0.00     0.010 C
BRANCH  16  18
HETATM   18  C3  UNL     1      12.080  -0.465  -9.391  1.00  0.00     0.065 C
BRANCH  18  19
HETATM   19  C2  UNL     1      11.389   0.424 -10.346  1.00  0.00     0.256 C
BRANCH  19  20
HETATM   20  O1  UNL     1      11.647   1.753 -10.341  1.00  0.00    -0.366 OA
HETATM   21  C1  UNL     1      13.021   1.969 -10.395  1.00  0.00     0.204 C
ENDBRANCH  19  20
BRANCH  19  22
HETATM   22  O2  UNL     1       9.969   0.317 -10.168  1.00  0.00    -0.371 OA
ATOM     23  H2  UNL     1       9.848  -0.407  -9.564  1.00  0.00     0.212 HD
ENDBRANCH  19  22
ENDBRANCH  18  19
ENDBRANCH  16  18
ENDBRANCH   1  16
BRANCH   9  24
HETATM   24  C15 UNL     1      15.959   2.705  -1.562  1.00  0.00     0.145 C
BRANCH  24  25
HETATM   25  O3  UNL     1      15.677   1.473  -0.964  1.00  0.00    -0.391 OA
ATOM     26  H3  UNL     1      15.402   1.553  -0.058  1.00  0.00     0.210 HD
ENDBRANCH  24  25
BRANCH  24  27
HETATM   27  C16 UNL     1      14.960   3.736  -1.170  1.00  0.00     0.001 C
HETATM   28  C17 UNL     1      15.302   4.772  -0.435  1.00  0.00    -0.024 C
BRANCH  28  29
HETATM   29  C18 UNL     1      14.351   5.832  -0.013  1.00  0.00     0.008 A
HETATM   30  C19 UNL     1      13.868   6.842  -0.986  1.00  0.00     0.009 A
HETATM   31  C20 UNL     1      14.784   7.229   0.165  1.00  0.00     0.009 A
ENDBRANCH  28  29
ENDBRANCH  24  27
ENDBRANCH   9  24
TORSDOF 9
ENDMDL