MODEL 5
REMARK VINA RESULT: -8.584601428      1.582      3.094
REMARK  6 active torsions:
REMARK  status: ('A' for Active; 'I' for Inactive)
REMARK    1  A    between atoms: C2_2  and  C3_3
REMARK    2  A    between atoms: C14_14  and  C15_15
REMARK    3  A    between atoms: C15_15  and  C16_16
REMARK    4  A    between atoms: C16_16  and  C17_17
REMARK    5  A    between atoms: C17_17  and  C18_18
REMARK    6  A    between atoms: C24_27  and  C25_28
ROOT
HETATM    1  C3  UNL     1      13.965   4.049  -1.778  1.00  0.00    -0.026 C
HETATM    2  C4  UNL     1      13.557   3.188  -0.582  1.00  0.00     0.019 C
HETATM    3  C5  UNL     1      15.225   3.550  -2.343  1.00  0.00     0.017 C
HETATM    4  C6  UNL     1      15.200   2.468  -3.366  1.00  0.00     0.037 C
HETATM    5  C7  UNL     1      13.835   2.384  -4.017  1.00  0.00    -0.058 C
HETATM    6  C8  UNL     1      13.347   3.768  -4.087  1.00  0.00     0.044 C
HETATM    7  C9  UNL     1      12.812   4.204  -2.745  1.00  0.00     0.026 C
HETATM    8  C10 UNL     1      12.448   4.013  -5.206  1.00  0.00    -0.081 C
HETATM    9  C11 UNL     1      11.257   4.511  -5.041  1.00  0.00     0.015 C
HETATM   10  C12 UNL     1      12.810   3.727  -6.629  1.00  0.00     0.035 C
HETATM   11  C13 UNL     1      14.222   3.110  -6.725  1.00  0.00     0.016 C
HETATM   12  C14 UNL     1      14.031   1.642  -6.505  1.00  0.00     0.054 C
HETATM   13  C24 UNL     1      13.674   1.422  -5.101  1.00  0.00     0.028 C
ENDROOT
BRANCH  12  14
HETATM   14  C15 UNL     1      15.103   0.762  -7.115  1.00  0.00     0.037 C
HETATM   15  C20 UNL     1      14.767   0.255  -8.495  1.00  0.00     0.032 C
HETATM   16  C21 UNL     1      15.707  -0.819  -8.967  1.00  0.00     0.007 C
HETATM   17  C22 UNL     1      15.678  -2.072  -8.123  1.00  0.00     0.044 C
HETATM   18  C23 UNL     1      15.063  -1.663  -6.818  1.00  0.00     0.056 C
HETATM   19  N1  UNL     1      15.380  -0.398  -6.340  1.00  0.00    -0.392 N
ATOM     20  H1  UNL     1      15.815  -0.300  -5.423  1.00  0.00     0.159 HD
BRANCH  14  21
HETATM   21  C16 UNL     1      16.416   1.523  -7.277  1.00  0.00     0.034 C
BRANCH  21  22
HETATM   22  C17 UNL     1      17.400   1.409  -6.204  1.00  0.00     0.036 C
BRANCH  22  23
HETATM   23  C18 UNL     1      18.568   0.485  -6.457  1.00  0.00     0.145 A
HETATM   24  C19 UNL     1      19.305  -0.121  -5.309  1.00  0.00     0.200 A
HETATM   25  O1  UNL     1      18.446  -0.858  -6.115  1.00  0.00    -0.381 OA
ENDBRANCH  22  23
ENDBRANCH  21  22
ENDBRANCH  14  21
ENDBRANCH  12  14
BRANCH  13  26
HETATM   26  C25 UNL     1      12.323   0.802  -4.983  1.00  0.00     0.205 C
HETATM   27  O2  UNL     1      11.830   0.581  -3.862  1.00  0.00    -0.644 OA
HETATM   28  O3  UNL     1      11.594   0.459  -6.101  1.00  0.00    -0.644 OA
ENDBRANCH  13  26
BRANCH   1  29
HETATM   29  C2  UNL     1      14.214   5.408  -1.209  1.00  0.00    -0.028 C
HETATM   30  C1  UNL     1      13.571   6.456  -1.659  1.00  0.00     0.007 C
ENDBRANCH   1  29
TORSDOF 6
ENDMDL