MODEL 5
REMARK VINA RESULT: -8.316989223      1.658      2.539
REMARK  10 active torsions:
REMARK  status: ('A' for Active; 'I' for Inactive)
REMARK    1  A    between atoms: C2_2  and  C4_4
REMARK    2  A    between atoms: C4_4  and  C5_5
REMARK    3  A    between atoms: C4_4  and  O3_28
REMARK    4  A    between atoms: C6_6  and  C7_7
REMARK    5  A    between atoms: C7_7  and  C8_8
REMARK    6  A    between atoms: C8_8  and  C10_10
REMARK    7  A    between atoms: C11_11  and  O1_12
REMARK    8  A    between atoms: C20_22  and  O2_23
REMARK    9  A    between atoms: C20_22  and  C21_25
REMARK   10  A    between atoms: O3_28  and  C24_29
ROOT
HETATM    1  C10 UNL     1      12.676   2.878  -5.035  1.00  0.00     0.027 C
HETATM    2  C11 UNL     1      12.412   1.577  -4.368  1.00  0.00     0.124 C
HETATM    3  C12 UNL     1      12.067   0.626  -5.530  1.00  0.00     0.045 C
HETATM    4  C13 UNL     1      11.967   1.487  -6.746  1.00  0.00    -0.003 C
HETATM    5  C14 UNL     1      10.587   2.146  -6.679  1.00  0.00     0.019 C
HETATM    6  C15 UNL     1      13.051   2.527  -6.447  1.00  0.00    -0.028 C
HETATM    7  C16 UNL     1      12.925   3.776  -7.254  1.00  0.00     0.016 C
HETATM    8  C17 UNL     1      14.410   1.930  -6.583  1.00  0.00     0.010 C
HETATM    9  C18 UNL     1      14.551   0.825  -7.565  1.00  0.00     0.004 C
HETATM   10  C19 UNL     1      13.482   0.760  -8.607  1.00  0.00     0.039 C
HETATM   11  C20 UNL     1      12.076   0.855  -8.066  1.00  0.00     0.069 C
ENDROOT
BRANCH   1  12
HETATM   12  C8  UNL     1      13.441   3.893  -4.318  1.00  0.00    -0.008 C
HETATM   13  C9  UNL     1      14.916   3.848  -4.263  1.00  0.00     0.011 C
BRANCH  12  14
HETATM   14  C7  UNL     1      13.002   4.022  -2.844  1.00  0.00     0.031 C
BRANCH  14  15
HETATM   15  C6  UNL     1      12.839   5.451  -2.478  1.00  0.00    -0.027 C
HETATM   16  C5  UNL     1      13.544   6.148  -1.636  1.00  0.00     0.006 C
BRANCH  16  17
HETATM   17  C4  UNL     1      14.679   5.718  -0.827  1.00  0.00     0.182 C
BRANCH  17  18
HETATM   18  C2  UNL     1      14.830   6.565   0.391  1.00  0.00    -0.060 C
HETATM   19  C1  UNL     1      13.924   7.496   0.625  1.00  0.00     0.017 C
HETATM   20  C3  UNL     1      15.962   6.394   1.340  1.00  0.00     0.045 C
ENDBRANCH  17  18
BRANCH  17  21
HETATM   21  O3  UNL     1      14.598   4.382  -0.382  1.00  0.00    -0.308 OA
BRANCH  21  22
HETATM   22  C24 UNL     1      15.435   3.376  -0.828  1.00  0.00     0.255 C
HETATM   23  C25 UNL     1      16.827   3.691  -1.248  1.00  0.00     0.126 C
HETATM   24  O4  UNL     1      14.962   2.211  -0.853  1.00  0.00    -0.266 OA
ENDBRANCH  21  22
ENDBRANCH  17  21
ENDBRANCH  16  17
ENDBRANCH  14  15
ENDBRANCH  12  14
ENDBRANCH   1  12
BRANCH   2  25
HETATM   25  O1  UNL     1      13.432   1.079  -3.601  1.00  0.00    -0.395 OA
ATOM     26  H1  UNL     1      14.138   0.655  -4.074  1.00  0.00     0.210 HD
ENDBRANCH   2  25
BRANCH  11  27
HETATM   27  O2  UNL     1      11.418   1.732  -8.980  1.00  0.00    -0.389 OA
ATOM     28  H2  UNL     1      10.486   1.620  -8.828  1.00  0.00     0.210 HD
ENDBRANCH  11  27
BRANCH  11  29
HETATM   29  C21 UNL     1      11.345  -0.427  -8.243  1.00  0.00     0.012 C
HETATM   30  C22 UNL     1      10.556  -0.278  -9.568  1.00  0.00     0.012 C
HETATM   31  C23 UNL     1      12.133  -1.679  -8.413  1.00  0.00     0.012 C
ENDBRANCH  11  29
TORSDOF 10
ENDMDL