MODEL 5
REMARK VINA RESULT: -10.890151320      4.920     10.338
REMARK  3 active torsions:
REMARK  status: ('A' for Active; 'I' for Inactive)
REMARK    1  A    between atoms: C6_10  and  C7_11
REMARK    2  A    between atoms: C7_11  and  O1_12
REMARK    3  A    between atoms: O1_12  and  C8_13
ROOT
HETATM    1  C1  UNL     1      15.977   8.400   4.144  1.00  0.00     0.038 C
HETATM    2  C2  UNL     1      15.867   8.128   2.863  1.00  0.00     0.006 C
HETATM    3  N1  UNL     1      16.575   7.057   2.247  1.00  0.00    -0.346 N
ATOM      4  H1  UNL     1      17.433   6.704   2.670  1.00  0.00     0.167 HD
HETATM    5  C3  UNL     1      16.091   6.478   1.045  1.00  0.00     0.112 A
HETATM    6  C4  UNL     1      16.752   5.450   0.434  1.00  0.00     0.079 A
HETATM    7  C5  UNL     1      16.284   4.875  -0.744  1.00  0.00     0.051 A
HETATM    8  N2  UNL     1      16.726   3.876  -1.538  1.00  0.00    -0.357 N
ATOM      9  H2  UNL     1      17.570   3.326  -1.377  1.00  0.00     0.166 HD
HETATM   10  C6  UNL     1      15.880   3.716  -2.581  1.00  0.00     0.035 A
HETATM   11  C16 UNL     1      14.874   4.648  -2.433  1.00  0.00     0.046 A
HETATM   12  C17 UNL     1      15.124   5.378  -1.281  1.00  0.00     0.061 A
HETATM   13  C18 UNL     1      14.482   6.410  -0.646  1.00  0.00     0.261 A
HETATM   14  O2  UNL     1      13.411   6.844  -1.181  1.00  0.00    -0.267 OA
HETATM   15  N3  UNL     1      14.959   6.959   0.509  1.00  0.00    -0.299 N
HETATM   16  C19 UNL     1      14.176   8.031   1.053  1.00  0.00     0.144 C
HETATM   17  C20 UNL     1      14.981   8.934   1.960  1.00  0.00     0.049 C
HETATM   18  C21 UNL     1      14.110   9.819   2.805  1.00  0.00     0.018 C
ENDROOT
BRANCH  10  19
HETATM   19  C7  UNL     1      16.070   2.722  -3.651  1.00  0.00     0.232 C
BRANCH  19  20
HETATM   20  O1  UNL     1      16.838   1.621  -3.380  1.00  0.00    -0.344 OA
BRANCH  20  21
HETATM   21  C8  UNL     1      17.863   1.038  -4.055  1.00  0.00     0.081 A
HETATM   22  C9  UNL     1      17.672   0.342  -5.229  1.00  0.00    -0.027 A
HETATM   23  C10 UNL     1      16.312   0.199  -5.866  1.00  0.00     0.051 C
HETATM   24  C11 UNL     1      18.764  -0.225  -5.856  1.00  0.00     0.028 A
HETATM   25  C12 UNL     1      20.023  -0.098  -5.318  1.00  0.00     0.012 A
HETATM   26 BR1  UNL     1      21.475  -0.911  -6.246  1.00  0.00    -0.051 Br
HETATM   27  C13 UNL     1      20.206   0.612  -4.125  1.00  0.00     0.028 A
HETATM   28  C14 UNL     1      19.136   1.178  -3.494  1.00  0.00    -0.027 A
HETATM   29  C15 UNL     1      19.340   1.932  -2.226  1.00  0.00     0.051 C
ENDBRANCH  20  21
ENDBRANCH  19  20
ENDBRANCH  10  19
TORSDOF 3
ENDMDL