MODEL 3
REMARK VINA RESULT: -9.191148569     14.239     17.549
REMARK  5 active torsions:
REMARK  status: ('A' for Active; 'I' for Inactive)
REMARK    1  A    between atoms: C2_2  and  C3_3
REMARK    2  A    between atoms: C3_3  and  C4_4
REMARK    3  A    between atoms: C5_5  and  C6_6
REMARK    4  A    between atoms: C17_19  and  O3_20
REMARK    5  A    between atoms: C19_23  and  O4_24
ROOT
HETATM    1  C6  UNL     1      10.673  10.563   9.020  1.00  0.00     0.120 C
HETATM    2  C7  UNL     1      10.555  12.060   8.800  1.00  0.00     0.268 C
HETATM    3  O1  UNL     1      10.868  12.618   7.741  1.00  0.00    -0.264 OA
HETATM    4  O2  UNL     1      10.071  12.592   9.938  1.00  0.00    -0.315 OA
HETATM    5  C8  UNL     1       9.593  11.572  10.802  1.00  0.00     0.143 C
HETATM    6  C9  UNL     1       8.153  11.415  10.595  1.00  0.00     0.039 C
HETATM    7  C10 UNL     1       7.790  10.320  11.592  1.00  0.00     0.009 C
HETATM    8  C11 UNL     1       6.337  10.431  11.757  1.00  0.00     0.010 C
HETATM    9  C12 UNL     1       6.077  11.709  12.579  1.00  0.00     0.014 C
HETATM   10  C13 UNL     1       5.816   9.324  12.543  1.00  0.00    -0.012 C
HETATM   11  C14 UNL     1       6.543   8.239  12.724  1.00  0.00    -0.027 C
HETATM   12  C15 UNL     1       5.931   7.182  13.526  1.00  0.00     0.008 C
HETATM   13  C16 UNL     1       6.046   5.925  13.121  1.00  0.00     0.005 C
HETATM   14  C17 UNL     1       6.802   5.730  11.862  1.00  0.00     0.144 C
HETATM   15  C18 UNL     1       8.024   6.567  11.883  1.00  0.00     0.079 C
HETATM   16  C19 UNL     1       7.920   8.002  12.226  1.00  0.00     0.097 C
HETATM   17  C20 UNL     1       8.363   8.996  11.168  1.00  0.00     0.018 C
HETATM   18  C21 UNL     1       7.553   8.607   9.927  1.00  0.00     0.021 C
HETATM   19  C22 UNL     1       9.798   9.047  10.853  1.00  0.00     0.055 C
HETATM   20  C23 UNL     1      10.741   8.392  11.809  1.00  0.00     0.034 C
HETATM   21 CL1  UNL     1      10.004   8.039   9.347  1.00  0.00    -0.118 Cl
HETATM   22  C24 UNL     1      10.453  10.356  10.481  1.00  0.00     0.021 C
HETATM   23  C25 UNL     1      11.703  10.700  11.246  1.00  0.00     0.021 C
ENDROOT
BRANCH   1  24
HETATM   24  C5  UNL     1      11.859  10.074   8.349  1.00  0.00    -0.015 C
HETATM   25  C4  UNL     1      13.106  10.387   8.293  1.00  0.00    -0.030 C
BRANCH  25  26
HETATM   26  C3  UNL     1      14.124   9.643   7.460  1.00  0.00     0.026 C
BRANCH  26  27
HETATM   27  C2  UNL     1      14.048   9.994   5.999  1.00  0.00    -0.001 C
HETATM   28  C1  UNL     1      15.122   9.278   5.258  1.00  0.00     0.005 C
ENDBRANCH  26  27
ENDBRANCH  25  26
ENDBRANCH   1  24
BRANCH  16  29
HETATM   29  O4  UNL     1       8.704   8.359  13.370  1.00  0.00    -0.384 OA
ATOM     30  H4  UNL     1       9.110   7.529  13.588  1.00  0.00     0.211 HD
ENDBRANCH  16  29
BRANCH  14  31
HETATM   31  O3  UNL     1       6.005   5.797  10.743  1.00  0.00    -0.392 OA
ATOM     32  H3  UNL     1       6.416   6.260  10.023  1.00  0.00     0.210 HD
ENDBRANCH  14  31
TORSDOF 5
ENDMDL