MODEL 1
REMARK VINA RESULT: -7.789516601      0.000      0.000
REMARK  6 active torsions:
REMARK  status: ('A' for Active; 'I' for Inactive)
REMARK    1  A    between atoms: C2_2  and  C4_4
REMARK    2  A    between atoms: C17_17  and  O1_18
REMARK    3  A    between atoms: C18_20  and  O2_21
REMARK    4  A    between atoms: C21_25  and  O3_26
REMARK    5  A    between atoms: O3_26  and  C22_27
REMARK    6  A    between atoms: C22_27  and  C23_29
ROOT
HETATM    1  C4  UNL     1      13.311   3.228  -3.044  1.00  0.00    -0.008 C
HETATM    2  C5  UNL     1      13.450   4.140  -4.244  1.00  0.00     0.010 C
HETATM    3  C6  UNL     1      13.242   3.185  -5.426  1.00  0.00    -0.000 C
HETATM    4  C7  UNL     1      12.736   3.929  -6.591  1.00  0.00     0.006 C
HETATM    5  C8  UNL     1      12.585   2.932  -7.720  1.00  0.00     0.012 C
HETATM    6  C9  UNL     1      13.849   2.218  -8.010  1.00  0.00    -0.009 C
HETATM    7  C10 UNL     1      14.855   3.100  -8.766  1.00  0.00     0.018 C
HETATM    8  C11 UNL     1      13.504   1.215  -9.114  1.00  0.00     0.013 C
HETATM    9  C12 UNL     1      12.546   0.194  -8.702  1.00  0.00     0.013 C
HETATM   10  C13 UNL     1      13.180  -0.554  -7.590  1.00  0.00    -0.010 C
HETATM   11  C14 UNL     1      12.157  -1.601  -7.113  1.00  0.00     0.018 C
HETATM   12  C15 UNL     1      14.444  -1.292  -7.923  1.00  0.00     0.015 C
HETATM   13  C16 UNL     1      14.816  -1.006  -6.484  1.00  0.00     0.042 C
HETATM   14  C17 UNL     1      13.838   0.191  -6.510  1.00  0.00     0.097 C
HETATM   15  C18 UNL     1      14.476   1.507  -6.815  1.00  0.00     0.107 C
HETATM   16  C19 UNL     1      14.561   2.453  -5.618  1.00  0.00     0.021 C
HETATM   17  C20 UNL     1      15.541   3.592  -5.922  1.00  0.00     0.021 C
HETATM   18  C21 UNL     1      15.046   1.856  -4.343  1.00  0.00     0.143 C
HETATM   19  C24 UNL     1      14.182   2.029  -3.125  1.00  0.00     0.038 C
ENDROOT
BRANCH  18  20
HETATM   20  O3  UNL     1      16.392   2.173  -4.125  1.00  0.00    -0.314 OA
BRANCH  20  21
HETATM   21  C22 UNL     1      17.494   1.425  -4.048  1.00  0.00     0.273 C
HETATM   22  O4  UNL     1      17.463   0.544  -4.921  1.00  0.00    -0.264 OA
BRANCH  21  23
HETATM   23  C23 UNL     1      18.625   1.552  -3.108  1.00  0.00     0.225 C
HETATM   24 CL1  UNL     1      18.021   2.246  -1.591  1.00  0.00    -0.120 Cl
ENDBRANCH  21  23
ENDBRANCH  20  21
ENDBRANCH  18  20
BRANCH  15  25
HETATM   25  O2  UNL     1      15.723   1.192  -7.350  1.00  0.00    -0.385 OA
ATOM     26  H2  UNL     1      15.478   0.478  -7.927  1.00  0.00     0.210 HD
ENDBRANCH  15  25
BRANCH   1  27
HETATM   27  C2  UNL     1      13.367   3.971  -1.739  1.00  0.00    -0.019 C
HETATM   28  C1  UNL     1      13.410   5.460  -2.014  1.00  0.00     0.010 C
HETATM   29  C3  UNL     1      14.528   3.626  -0.873  1.00  0.00     0.010 C
ENDBRANCH   1  27
BRANCH  14  30
HETATM   30  O1  UNL     1      12.946   0.154  -5.421  1.00  0.00    -0.386 OA
ATOM     31  H1  UNL     1      13.311   0.742  -4.769  1.00  0.00     0.210 HD
ENDBRANCH  14  30
TORSDOF 6
ENDMDL