MODEL 2
REMARK VINA RESULT: -8.811945512      4.477      7.858
REMARK  5 active torsions:
REMARK  status: ('A' for Active; 'I' for Inactive)
REMARK    1  A    between atoms: C4_5  and  O2_7
REMARK    2  A    between atoms: C8_12  and  O3_13
REMARK    3  A    between atoms: C8_12  and  C9_15
REMARK    4  A    between atoms: C10_16  and  C11_17
REMARK    5  A    between atoms: C12_18  and  C13_19
ROOT
HETATM    1  C9  UNL     1      13.204   2.778  -4.313  1.00  0.00     0.009 C
HETATM    2  C10 UNL     1      13.026   1.547  -4.706  1.00  0.00    -0.018 C
ENDROOT
BRANCH   2   3
HETATM    3  C11 UNL     1      12.338   1.210  -6.001  1.00  0.00     0.052 C
HETATM    4  C12 UNL     1      11.863   2.459  -6.584  1.00  0.00    -0.016 C
HETATM    5  C14 UNL     1      12.522   3.042  -7.551  1.00  0.00    -0.015 C
HETATM    6  C15 UNL     1      13.757   2.436  -8.060  1.00  0.00     0.034 C
HETATM    7  C16 UNL     1      13.653   0.912  -8.131  1.00  0.00     0.006 C
HETATM    8  C17 UNL     1      12.999   0.511  -9.389  1.00  0.00    -0.043 C
HETATM    9  C23 UNL     1      13.182   0.330  -6.849  1.00  0.00    -0.028 C
HETATM   10  C18 UNL     1      14.025   0.302 -10.527  1.00  0.00     0.015 C
HETATM   11  C19 UNL     1      12.025   1.520  -9.977  1.00  0.00     0.015 C
HETATM   12  C20 UNL     1      12.218  -0.778  -9.340  1.00  0.00     0.009 C
HETATM   13  C21 UNL     1      12.878  -1.659  -8.293  1.00  0.00     0.002 C
HETATM   14  C22 UNL     1      12.431  -0.979  -7.000  1.00  0.00     0.010 C
HETATM   15  C24 UNL     1      14.388  -0.090  -5.976  1.00  0.00     0.016 C
BRANCH   4  16
HETATM   16  C13 UNL     1      10.614   3.042  -6.043  1.00  0.00     0.266 C
HETATM   17  O4  UNL     1       9.578   2.345  -6.100  1.00  0.00    -0.302 OA
ENDBRANCH   4  16
ENDBRANCH   2   3
BRANCH   1  18
HETATM   18  C8  UNL     1      13.870   3.182  -3.056  1.00  0.00     0.102 C
HETATM   19  C2  UNL     1      13.643   4.650  -2.844  1.00  0.00     0.094 C
HETATM   20  C1  UNL     1      12.217   4.840  -2.373  1.00  0.00     0.021 C
HETATM   21  C3  UNL     1      14.640   5.161  -1.886  1.00  0.00     0.167 C
HETATM   22  O1  UNL     1      14.905   6.364  -1.932  1.00  0.00    -0.294 OA
HETATM   23  C4  UNL     1      15.284   4.236  -0.913  1.00  0.00     0.116 C
HETATM   24  C5  UNL     1      16.454   5.012  -0.292  1.00  0.00     0.054 C
HETATM   25  C6  UNL     1      15.753   2.957  -1.537  1.00  0.00     0.069 C
HETATM   26  C7  UNL     1      15.331   2.870  -3.011  1.00  0.00     0.124 C
HETATM   27 CL1  UNL     1      16.310   4.124  -3.851  1.00  0.00    -0.121 Cl
BRANCH  23  28
HETATM   28  O2  UNL     1      14.403   3.996   0.167  1.00  0.00    -0.382 OA
ATOM     29  H2  UNL     1      14.692   3.230   0.650  1.00  0.00     0.211 HD
ENDBRANCH  23  28
BRANCH  18  30
HETATM   30  O3  UNL     1      13.254   2.462  -2.026  1.00  0.00    -0.383 OA
ATOM     31  H3  UNL     1      12.345   2.303  -2.251  1.00  0.00     0.211 HD
ENDBRANCH  18  30
ENDBRANCH   1  18
TORSDOF 5
ENDMDL