MODEL 4
REMARK VINA RESULT: -8.458681150      1.925      2.928
REMARK  5 active torsions:
REMARK  status: ('A' for Active; 'I' for Inactive)
REMARK    1  A    between atoms: C2_2  and  C3_3
REMARK    2  A    between atoms: C3_3  and  N1_4
REMARK    3  A    between atoms: C9_12  and  C10_13
REMARK    4  A    between atoms: C16_19  and  O2_20
REMARK    5  A    between atoms: C25_30  and  O3_31
ROOT
HETATM    1  C10 UNL     1      14.890   2.674  -4.726  1.00  0.00     0.012 C
HETATM    2  C11 UNL     1      15.880   1.665  -4.212  1.00  0.00     0.020 C
HETATM    3  C12 UNL     1      15.594   3.885  -5.202  1.00  0.00     0.015 C
HETATM    4  C13 UNL     1      16.652   3.476  -6.204  1.00  0.00     0.006 C
HETATM    5  C14 UNL     1      15.965   2.944  -7.395  1.00  0.00    -0.001 C
HETATM    6  C15 UNL     1      17.018   2.447  -8.365  1.00  0.00     0.037 C
HETATM    7  C16 UNL     1      16.373   1.731  -9.512  1.00  0.00     0.123 C
HETATM    8  C17 UNL     1      14.961   2.167  -9.626  1.00  0.00     0.019 C
HETATM    9  C18 UNL     1      14.292   1.494 -10.818  1.00  0.00     0.007 C
HETATM   10  C19 UNL     1      12.868   1.996 -10.845  1.00  0.00     0.000 C
HETATM   11  C20 UNL     1      12.691   3.246 -10.032  1.00  0.00     0.000 C
HETATM   12  C21 UNL     1      12.993   2.982  -8.543  1.00  0.00     0.006 C
HETATM   13  C22 UNL     1      14.074   1.971  -8.436  1.00  0.00     0.003 C
HETATM   14  C23 UNL     1      14.865   1.936  -7.155  1.00  0.00    -0.009 C
HETATM   15  C24 UNL     1      15.454   0.510  -7.110  1.00  0.00     0.018 C
HETATM   16  C25 UNL     1      14.102   2.118  -5.920  1.00  0.00     0.138 C
ENDROOT
BRANCH   1  17
HETATM   17  C9  UNL     1      13.931   2.891  -3.572  1.00  0.00     0.169 A
HETATM   18  C2  UNL     1      14.046   3.674  -2.427  1.00  0.00     0.111 A
HETATM   19  C1  UNL     1      13.247   3.181  -1.182  1.00  0.00     0.050 C
HETATM   20  O1  UNL     1      13.155   4.047  -3.527  1.00  0.00    -0.367 OA
BRANCH  18  21
HETATM   21  C3  UNL     1      14.848   4.845  -2.033  1.00  0.00     0.312 C
BRANCH  21  22
HETATM   22  N1  UNL     1      14.375   5.402  -0.749  1.00  0.00     0.091 N
HETATM   23  C4  UNL     1      14.070   6.776  -0.829  1.00  0.00     0.275 C
HETATM   24  C5  UNL     1      14.406   7.448   0.502  1.00  0.00     0.067 C
HETATM   25  C6  UNL     1      15.946   7.426   0.561  1.00  0.00     0.173 C
HETATM   26  F1  UNL     1      16.444   8.135   1.605  1.00  0.00    -0.249 F
HETATM   27  C7  UNL     1      16.405   5.977   0.530  1.00  0.00     0.067 C
HETATM   28  C8  UNL     1      15.234   5.047   0.322  1.00  0.00     0.275 C
ENDBRANCH  21  22
ENDBRANCH  18  21
ENDBRANCH   1  17
BRANCH  16  29
HETATM   29  O3  UNL     1      12.960   2.892  -5.964  1.00  0.00    -0.394 OA
ATOM     30  H3  UNL     1      13.034   3.372  -6.781  1.00  0.00     0.210 HD
ENDBRANCH  16  29
BRANCH   7  31
HETATM   31  O2  UNL     1      17.014   2.196 -10.693  1.00  0.00    -0.395 OA
ATOM     32  H2  UNL     1      16.427   2.000 -11.415  1.00  0.00     0.210 HD
ENDBRANCH   7  31
TORSDOF 5
ENDMDL