MODEL 2
REMARK VINA RESULT: -7.828652719      2.959      5.617
REMARK  5 active torsions:
REMARK  status: ('A' for Active; 'I' for Inactive)
REMARK    1  A    between atoms: C2_2  and  C4_4
REMARK    2  A    between atoms: C20_21  and  O2_22
REMARK    3  A    between atoms: C20_21  and  C21_24
REMARK    4  A    between atoms: C21_24  and  C22_26
REMARK    5  A    between atoms: C22_26  and  O4_27
ROOT
HETATM    1  C4  UNL     1      17.929   1.975  -8.044  1.00  0.00    -0.006 C
HETATM    2  C5  UNL     1      19.313   1.389  -8.026  1.00  0.00     0.006 C
HETATM    3  C6  UNL     1      19.313   0.235  -7.089  1.00  0.00     0.010 C
HETATM    4  C7  UNL     1      17.893   0.072  -6.546  1.00  0.00    -0.040 C
HETATM    5  C8  UNL     1      17.568  -1.424  -6.710  1.00  0.00     0.015 C
HETATM    6  C9  UNL     1      17.953   0.292  -5.082  1.00  0.00     0.010 C
HETATM    7  C10 UNL     1      18.450   1.636  -4.765  1.00  0.00     0.006 C
HETATM    8  C11 UNL     1      17.392   2.421  -4.062  1.00  0.00    -0.006 C
HETATM    9  C12 UNL     1      17.213   1.716  -2.727  1.00  0.00     0.005 C
HETATM   10  C13 UNL     1      15.790   1.860  -2.414  1.00  0.00     0.001 C
HETATM   11  C14 UNL     1      15.252   2.868  -3.409  1.00  0.00     0.010 C
HETATM   12  C15 UNL     1      16.140   2.736  -4.677  1.00  0.00    -0.036 C
HETATM   13  C16 UNL     1      16.191   4.180  -5.222  1.00  0.00     0.016 C
HETATM   14  C17 UNL     1      15.396   1.945  -5.616  1.00  0.00     0.008 C
HETATM   15  C18 UNL     1      14.136   2.817  -5.920  1.00  0.00     0.088 C
HETATM   16  C19 UNL     1      13.005   1.889  -6.207  1.00  0.00     0.172 C
HETATM   17  O1  UNL     1      11.970   1.864  -5.603  1.00  0.00    -0.294 OA
HETATM   18  C20 UNL     1      13.316   0.973  -7.363  1.00  0.00     0.211 C
HETATM   19  C23 UNL     1      14.684   0.324  -7.184  1.00  0.00     0.224 C
HETATM   20  F1  UNL     1      14.915  -0.415  -8.276  1.00  0.00    -0.245 F
HETATM   21  C24 UNL     1      15.749   1.414  -6.902  1.00  0.00     0.034 C
HETATM   22  C25 UNL     1      17.045   0.944  -7.367  1.00  0.00     0.005 C
ENDROOT
BRANCH  18  23
HETATM   23  O2  UNL     1      13.408   1.787  -8.484  1.00  0.00    -0.372 OA
ATOM     24  H2  UNL     1      13.637   2.651  -8.162  1.00  0.00     0.211 HD
ENDBRANCH  18  23
BRANCH  18  25
HETATM   25  C21 UNL     1      12.331  -0.089  -7.520  1.00  0.00     0.194 C
HETATM   26  O3  UNL     1      12.383  -1.085  -6.829  1.00  0.00    -0.292 OA
BRANCH  25  27
HETATM   27  C22 UNL     1      11.253   0.044  -8.532  1.00  0.00     0.246 C
BRANCH  27  28
HETATM   28  O4  UNL     1      10.401   1.102  -8.287  1.00  0.00    -0.393 OA
ATOM     29  H4  UNL     1      10.040   1.099  -7.409  1.00  0.00     0.209 HD
ENDBRANCH  27  28
ENDBRANCH  25  27
ENDBRANCH  18  25
BRANCH   1  30
HETATM   30  C2  UNL     1      17.542   2.254  -9.484  1.00  0.00    -0.018 C
HETATM   31  C1  UNL     1      17.311   0.915 -10.179  1.00  0.00     0.010 C
HETATM   32  C3  UNL     1      16.287   3.100  -9.598  1.00  0.00     0.010 C
ENDBRANCH   1  30
TORSDOF 5
ENDMDL