MODEL 2
REMARK VINA RESULT: -10.261268495      1.957      3.066
REMARK  5 active torsions:
REMARK  status: ('A' for Active; 'I' for Inactive)
REMARK    1  A    between atoms: C3_3  and  O1_4
REMARK    2  A    between atoms: C14_17  and  C15_18
REMARK    3  A    between atoms: C15_18  and  C16_20
REMARK    4  A    between atoms: C16_20  and  C17_22
REMARK    5  A    between atoms: C17_22  and  N1_24
ROOT
HETATM    1  C1  UNL     1      12.479   2.849 -10.779  1.00  0.00     0.015 C
HETATM    2  C2  UNL     1      12.630   2.588  -9.611  1.00  0.00    -0.079 C
HETATM    3  C3  UNL     1      12.841   2.272  -8.178  1.00  0.00     0.120 C
HETATM    4  C4  UNL     1      13.360   3.546  -7.547  1.00  0.00     0.053 C
HETATM    5  C5  UNL     1      14.862   3.416  -7.493  1.00  0.00     0.030 C
HETATM    6  C6  UNL     1      15.289   2.348  -6.475  1.00  0.00     0.045 C
HETATM    7 CL1  UNL     1      17.068   2.175  -6.748  1.00  0.00    -0.118 Cl
HETATM    8  C7  UNL     1      14.564   1.096  -6.769  1.00  0.00     0.013 C
HETATM    9  C8  UNL     1      13.692   0.523  -5.730  1.00  0.00     0.007 C
HETATM   10  C9  UNL     1      13.473   1.332  -4.502  1.00  0.00     0.006 C
HETATM   11  C10 UNL     1      14.839   1.892  -4.082  1.00  0.00    -0.004 C
HETATM   12  C11 UNL     1      14.760   2.431  -2.708  1.00  0.00    -0.001 C
HETATM   13  C12 UNL     1      13.521   3.252  -2.440  1.00  0.00     0.006 C
HETATM   14  C13 UNL     1      13.948   4.378  -1.487  1.00  0.00     0.014 C
HETATM   15  C14 UNL     1      15.314   3.925  -1.046  1.00  0.00     0.072 C
HETATM   16  C19 UNL     1      15.876   3.387  -2.337  1.00  0.00    -0.029 C
HETATM   17  C20 UNL     1      17.158   2.646  -2.061  1.00  0.00     0.016 C
HETATM   18  C21 UNL     1      16.125   4.410  -3.391  1.00  0.00     0.011 C
HETATM   19  C22 UNL     1      16.377   3.654  -4.705  1.00  0.00     0.007 C
HETATM   20  C23 UNL     1      15.119   2.944  -5.133  1.00  0.00     0.014 C
HETATM   21  C24 UNL     1      13.824   1.154  -8.118  1.00  0.00     0.058 C
ENDROOT
BRANCH   3  22
HETATM   22  O1  UNL     1      11.583   1.947  -7.674  1.00  0.00    -0.378 OA
ATOM     23  H1  UNL     1      11.500   2.428  -6.859  1.00  0.00     0.211 HD
ENDBRANCH   3  22
BRANCH  15  24
HETATM   24  C15 UNL     1      16.116   4.944  -0.387  1.00  0.00     0.201 C
HETATM   25  O2  UNL     1      17.363   4.833  -0.170  1.00  0.00    -0.289 OA
BRANCH  24  26
HETATM   26  C16 UNL     1      15.487   6.167   0.060  1.00  0.00     0.225 C
HETATM   27  O3  UNL     1      14.868   6.866  -0.818  1.00  0.00    -0.287 OA
BRANCH  26  28
HETATM   28  C17 UNL     1      15.494   6.685   1.450  1.00  0.00     0.256 C
HETATM   29  C18 UNL     1      14.661   7.978   1.489  1.00  0.00     0.048 C
BRANCH  28  30
HETATM   30  N1  UNL     1      16.768   6.875   2.030  1.00  0.00    -0.068 N
ATOM     31  H13 UNL     1      17.136   5.982   2.356  1.00  0.00     0.275 HD
ATOM     32  H12 UNL     1      17.449   7.100   1.304  1.00  0.00     0.275 HD
ATOM     33  H11 UNL     1      16.818   7.566   2.779  1.00  0.00     0.275 HD
ENDBRANCH  28  30
ENDBRANCH  26  28
ENDBRANCH  24  26
ENDBRANCH  15  24
TORSDOF 5
ENDMDL