MODEL 3
REMARK VINA RESULT: -8.613102438     15.132     18.077
REMARK  3 active torsions:
REMARK  status: ('A' for Active; 'I' for Inactive)
REMARK    1  A    between atoms: C2_2  and  S1_3
REMARK    2  A    between atoms: S1_3  and  C3_4
REMARK    3  A    between atoms: C3_4  and  C4_5
ROOT
HETATM    1  C4  UNL     1      16.158   0.600  -5.157  1.00  0.00    -0.023 A
HETATM    2  C5  UNL     1      17.545   0.313  -5.301  1.00  0.00    -0.001 A
HETATM    3  C6  UNL     1      17.881  -0.659  -6.221  1.00  0.00     0.015 A
HETATM    4  C7  UNL     1      19.253  -0.991  -6.340  1.00  0.00     0.018 A
HETATM    5  C8  UNL     1      20.188  -0.348  -5.545  1.00  0.00     0.088 A
HETATM    6  N1  UNL     1      19.774   0.581  -4.665  1.00  0.00    -0.365 N
ATOM      7  H1  UNL     1      20.468   1.043  -4.078  1.00  0.00     0.165 HD
HETATM    8  C9  UNL     1      18.495   0.921  -4.528  1.00  0.00     0.045 A
HETATM    9  C10 UNL     1      18.129   1.846  -3.574  1.00  0.00     0.060 A
HETATM   10  C11 UNL     1      16.816   2.143  -3.411  1.00  0.00     0.046 A
HETATM   11  N2  UNL     1      16.210   3.065  -2.626  1.00  0.00    -0.353 N
ATOM     12  H2  UNL     1      16.671   3.676  -1.952  1.00  0.00     0.166 HD
HETATM   13  C12 UNL     1      14.895   3.032  -2.894  1.00  0.00     0.067 A
HETATM   14  C13 UNL     1      13.967   3.910  -2.333  1.00  0.00     0.044 C
HETATM   15 BR1  UNL     1      14.311   4.453  -0.565  1.00  0.00    -0.049 Br
HETATM   16  C14 UNL     1      12.837   4.402  -3.012  1.00  0.00     0.095 C
HETATM   17  C15 UNL     1      12.276   3.869  -4.191  1.00  0.00     0.249 C
HETATM   18  O1  UNL     1      11.594   4.660  -4.873  1.00  0.00    -0.268 OA
HETATM   19  N3  UNL     1      12.434   2.593  -4.602  1.00  0.00    -0.290 N
ATOM     20  H3  UNL     1      11.713   2.278  -5.250  1.00  0.00     0.172 HD
HETATM   21  C16 UNL     1      13.356   1.656  -4.323  1.00  0.00     0.261 C
HETATM   22  O2  UNL     1      13.189   0.519  -4.432  1.00  0.00    -0.267 OA
HETATM   23  C17 UNL     1      14.638   2.086  -3.851  1.00  0.00     0.073 A
HETATM   24  C18 UNL     1      15.821   1.509  -4.214  1.00  0.00     0.017 A
ENDROOT
BRANCH   1  25
HETATM   25  C3  UNL     1      15.337  -0.017  -6.212  1.00  0.00     0.114 C
BRANCH  25  26
HETATM   26  S1  UNL     1      15.039   1.177  -7.541  1.00  0.00    -0.165 SA
BRANCH  26  27
HETATM   27  C2  UNL     1      16.019   2.635  -7.499  1.00  0.00     0.069 C
HETATM   28  C1  UNL     1      15.304   3.889  -7.021  1.00  0.00     0.016 C
ENDBRANCH  26  27
ENDBRANCH  25  26
ENDBRANCH   1  25
TORSDOF 3
ENDMDL