MODEL 4
REMARK VINA RESULT: -8.632638702      1.662      2.029
REMARK  5 active torsions:
REMARK  status: ('A' for Active; 'I' for Inactive)
REMARK    1  A    between atoms: C3_3  and  C4_4
REMARK    2  A    between atoms: C13_14  and  O2_15
REMARK    3  A    between atoms: C22_25  and  O3_26
REMARK    4  A    between atoms: C22_25  and  C23_28
REMARK    5  A    between atoms: C23_28  and  C24_30
ROOT
HETATM    1  C4  UNL     1      15.403   2.221  -2.890  1.00  0.00     0.051 C
HETATM    2  C5  UNL     1      14.519   1.135  -3.449  1.00  0.00     0.018 C
HETATM    3  C6  UNL     1      13.421   1.819  -4.212  1.00  0.00     0.002 C
HETATM    4  C7  UNL     1      13.246   1.427  -5.605  1.00  0.00    -0.005 C
HETATM    5  C8  UNL     1      13.089  -0.059  -5.825  1.00  0.00     0.006 C
HETATM    6  C9  UNL     1      12.409  -0.220  -7.153  1.00  0.00     0.013 C
HETATM    7  C10 UNL     1      13.066   0.528  -8.275  1.00  0.00     0.064 C
HETATM    8  C11 UNL     1      12.124   1.381  -9.036  1.00  0.00     0.134 C
HETATM    9  O1  UNL     1      11.057   1.672  -8.584  1.00  0.00    -0.297 OA
HETATM   10  C12 UNL     1      12.545   1.860 -10.375  1.00  0.00     0.110 C
HETATM   11  C13 UNL     1      14.056   1.970 -10.342  1.00  0.00     0.126 C
HETATM   12  C14 UNL     1      14.422   2.428  -8.950  1.00  0.00     0.042 C
HETATM   13  C15 UNL     1      14.262   1.327  -7.911  1.00  0.00    -0.027 C
HETATM   14  C16 UNL     1      15.486   0.415  -8.098  1.00  0.00     0.016 C
HETATM   15  C17 UNL     1      14.300   1.910  -6.554  1.00  0.00    -0.001 C
HETATM   16  C18 UNL     1      14.148   3.438  -6.531  1.00  0.00     0.007 C
HETATM   17  C19 UNL     1      14.498   3.894  -5.126  1.00  0.00     0.013 C
HETATM   18  C20 UNL     1      13.689   3.283  -4.049  1.00  0.00    -0.001 C
HETATM   19  C21 UNL     1      12.366   4.052  -3.889  1.00  0.00     0.019 C
HETATM   20  C22 UNL     1      14.349   3.306  -2.693  1.00  0.00     0.133 C
ENDROOT
BRANCH  20  21
HETATM   21  O3  UNL     1      13.381   2.729  -1.830  1.00  0.00    -0.381 OA
ATOM     22  H3  UNL     1      12.713   2.376  -2.406  1.00  0.00     0.211 HD
ENDBRANCH  20  21
BRANCH  20  23
HETATM   23  C23 UNL     1      14.832   4.572  -2.192  1.00  0.00     0.176 C
HETATM   24  O4  UNL     1      15.762   5.091  -2.857  1.00  0.00    -0.293 OA
BRANCH  23  25
HETATM   25  C24 UNL     1      14.393   5.340  -1.026  1.00  0.00     0.196 C
HETATM   26 CL1  UNL     1      13.575   6.833  -1.586  1.00  0.00    -0.122 Cl
ENDBRANCH  23  25
ENDBRANCH  20  23
BRANCH   1  27
HETATM   27  C3  UNL     1      16.100   1.936  -1.637  1.00  0.00    -0.023 C
HETATM   28  C2  UNL     1      17.348   1.825  -1.306  1.00  0.00    -0.034 C
HETATM   29  C1  UNL     1      18.561   1.962  -2.140  1.00  0.00     0.036 C
ENDBRANCH   1  27
BRANCH  11  30
HETATM   30  O2  UNL     1      14.708   0.847 -10.758  1.00  0.00    -0.395 OA
ATOM     31  H2  UNL     1      15.630   0.825 -10.530  1.00  0.00     0.210 HD
ENDBRANCH  11  30
TORSDOF 5
ENDMDL