MODEL 5
REMARK VINA RESULT: -6.496169966      6.926     10.087
REMARK  4 active torsions:
REMARK  status: ('A' for Active; 'I' for Inactive)
REMARK    1  A    between atoms: C2_2  and  C3_3
REMARK    2  A    between atoms: C11_13  and  O3_14
REMARK    3  A    between atoms: C11_13  and  C12_16
REMARK    4  A    between atoms: C16_20  and  C17_21
ROOT
HETATM    1  C3  UNL     1      -2.857  20.777  25.467  1.00  0.00     0.062 C
HETATM    2  C4  UNL     1      -3.686  19.613  25.824  1.00  0.00     0.046 C
HETATM    3  O1  UNL     1      -3.599  21.911  25.696  1.00  0.00    -0.374 OA
HETATM    4  C5  UNL     1      -4.176  22.324  24.511  1.00  0.00     0.138 C
HETATM    5  C6  UNL     1      -3.737  21.290  23.436  1.00  0.00     0.058 C
HETATM    6  C7  UNL     1      -3.870  21.863  22.114  1.00  0.00    -0.018 A
HETATM    7  C8  UNL     1      -4.040  21.328  20.857  1.00  0.00     0.149 A
HETATM    8  O2  UNL     1      -4.140  22.249  19.949  1.00  0.00    -0.334 OA
HETATM    9  C9  UNL     1      -4.050  23.407  20.509  1.00  0.00     0.152 A
HETATM   10  C10 UNL     1      -3.880  23.237  21.868  1.00  0.00     0.007 A
HETATM   11  C11 UNL     1      -3.754  24.265  22.921  1.00  0.00     0.092 C
HETATM   12  C14 UNL     1      -3.624  23.689  24.258  1.00  0.00     0.050 C
HETATM   13  C15 UNL     1      -4.244  24.604  25.302  1.00  0.00     0.016 C
HETATM   14  C16 UNL     1      -2.447  20.924  24.011  1.00  0.00     0.034 C
ENDROOT
BRANCH  11  15
HETATM   15  O3  UNL     1      -2.548  24.951  22.613  1.00  0.00    -0.384 OA
ATOM     16  H3  UNL     1      -2.519  25.675  23.227  1.00  0.00     0.211 HD
ENDBRANCH  11  15
BRANCH  11  17
HETATM   17  C12 UNL     1      -4.815  25.342  22.755  1.00  0.00     0.039 C
HETATM   18  C13 UNL     1      -6.197  24.819  22.569  1.00  0.00     0.008 C
ENDBRANCH  11  17
BRANCH  14  19
HETATM   19  C17 UNL     1      -1.590  19.866  23.512  1.00  0.00    -0.015 C
HETATM   20  C18 UNL     1      -0.441  20.415  22.691  1.00  0.00     0.010 C
HETATM   21  C19 UNL     1      -2.211  18.678  22.833  1.00  0.00     0.010 C
ENDBRANCH  14  19
BRANCH   1  22
HETATM   22  C2  UNL     1      -1.642  20.810  26.372  1.00  0.00     0.033 C
HETATM   23  C1  UNL     1      -1.737  22.015  27.279  1.00  0.00     0.008 C
ENDBRANCH   1  22
TORSDOF 4
ENDMDL