MODEL 2
REMARK VINA RESULT: -8.612143651      1.098      2.073
REMARK  3 active torsions:
REMARK  status: ('A' for Active; 'I' for Inactive)
REMARK       I    between atoms: C1_2  and  N1_3
REMARK    1  A    between atoms: C1_2  and  C15_21
REMARK    2  A    between atoms: N1_3  and  C2_5
REMARK    3  A    between atoms: C3_8  and  C4_9
ROOT
HETATM    1  C2  UNL     1       0.754  17.788  20.374  1.00  0.00     0.151 A
HETATM    2  N2  UNL     1       0.241  17.631  19.173  1.00  0.00    -0.339 N
ATOM      3  H2  UNL     1      -0.414  18.319  18.800  1.00  0.00     0.168 HD
HETATM    4  C3  UNL     1       0.574  16.597  18.468  1.00  0.00     0.026 A
HETATM    5  C14 UNL     1       1.460  15.704  19.018  1.00  0.00     0.079 A
HETATM    6  S1  UNL     1       1.761  16.427  20.542  1.00  0.00    -0.064 SA
ENDROOT
BRANCH   4   7
HETATM    7  C4  UNL     1      -0.043  16.344  17.108  1.00  0.00     0.004 C
HETATM    8  C5  UNL     1       1.059  15.986  16.127  1.00  0.00     0.020 C
HETATM    9  C6  UNL     1       0.430  15.705  14.801  1.00  0.00    -0.013 C
HETATM   10  C7  UNL     1      -0.345  16.920  14.290  1.00  0.00     0.009 C
HETATM   11  C11 UNL     1      -0.555  14.555  14.872  1.00  0.00     0.009 C
HETATM   12  C8  UNL     1      -1.407  17.284  15.302  1.00  0.00    -0.013 C
HETATM   13  C9  UNL     1      -2.363  16.132  15.508  1.00  0.00     0.009 C
HETATM   14  C13 UNL     1      -0.731  17.573  16.621  1.00  0.00     0.020 C
HETATM   15  C10 UNL     1      -1.615  14.877  15.888  1.00  0.00    -0.013 C
HETATM   16  C12 UNL     1      -0.947  15.143  17.226  1.00  0.00     0.020 C
ENDBRANCH   4   7
BRANCH   1  17
HETATM   17  N1  UNL     1       0.522  18.849  21.319  1.00  0.00    -0.307 N
HETATM   18  C1  UNL     1      -0.678  18.902  22.059  1.00  0.00     0.227 C
HETATM   19  O1  UNL     1      -1.546  18.014  21.885  1.00  0.00    -0.273 OA
ATOM     20  H1  UNL     1       1.231  19.569  21.455  1.00  0.00     0.171 HD
BRANCH  18  21
HETATM   21  C15 UNL     1      -0.892  19.990  23.011  1.00  0.00     0.078 C
HETATM   22  C16 UNL     1      -1.828  21.111  22.506  1.00  0.00     0.014 C
HETATM   23  C17 UNL     1      -2.269  21.243  23.941  1.00  0.00     0.002 C
HETATM   24  C18 UNL     1      -2.015  19.727  24.044  1.00  0.00     0.014 C
ENDBRANCH  18  21
ENDBRANCH   1  17
TORSDOF 3
ENDMDL