MODEL 3
REMARK VINA RESULT: -7.106378211      5.449      7.610
REMARK  4 active torsions:
REMARK  status: ('A' for Active; 'I' for Inactive)
REMARK    1  A    between atoms: C2_2  and  O1_4
REMARK    2  A    between atoms: O1_4  and  C4_5
REMARK    3  A    between atoms: C9_10  and  C10_11
REMARK    4  A    between atoms: C19_21  and  O2_23
ROOT
HETATM    1  C10 UNL     1      -1.242  20.067  22.087  1.00  0.00     0.071 C
HETATM    2  C11 UNL     1      -0.196  19.301  22.914  1.00  0.00     0.036 C
HETATM    3  C12 UNL     1      -1.918  19.024  21.247  1.00  0.00     0.036 C
HETATM    4  C13 UNL     1      -0.485  21.036  21.287  1.00  0.00     0.073 C
HETATM    5  N1  UNL     1       0.101  21.799  20.640  1.00  0.00    -0.196 NA
ENDROOT
BRANCH   1   6
HETATM    6  C9  UNL     1      -2.165  20.743  23.046  1.00  0.00    -0.002 A
HETATM    7  C4  UNL     1      -3.227  21.530  22.594  1.00  0.00     0.077 A
HETATM    8  C5  UNL     1      -4.031  22.120  23.589  1.00  0.00     0.048 A
HETATM    9  C6  UNL     1      -3.831  21.966  24.932  1.00  0.00    -0.015 A
HETATM   10  C7  UNL     1      -2.783  21.189  25.372  1.00  0.00    -0.040 A
HETATM   11  C19 UNL     1      -4.717  22.620  25.941  1.00  0.00     0.082 C
HETATM   12  C8  UNL     1      -1.983  20.602  24.391  1.00  0.00     0.020 A
HETATM   13  C14 UNL     1      -2.452  20.937  26.796  1.00  0.00    -0.020 C
HETATM   14  C15 UNL     1      -2.731  19.465  27.051  1.00  0.00     0.020 C
HETATM   15  C16 UNL     1      -1.019  21.285  27.118  1.00  0.00     0.020 C
HETATM   16  C17 UNL     1      -3.336  21.722  27.709  1.00  0.00     0.017 C
HETATM   17  C18 UNL     1      -3.799  23.013  27.088  1.00  0.00     0.043 C
HETATM   18  C20 UNL     1      -5.318  23.901  25.416  1.00  0.00     0.051 C
BRANCH   7  19
HETATM   19  O1  UNL     1      -3.461  21.709  21.334  1.00  0.00    -0.346 OA
BRANCH  19  20
HETATM   20  C2  UNL     1      -3.694  21.886  20.084  1.00  0.00     0.120 C
HETATM   21  C1  UNL     1      -3.094  23.174  19.459  1.00  0.00     0.040 C
HETATM   22  C3  UNL     1      -5.164  21.908  19.638  1.00  0.00     0.040 C
ENDBRANCH  19  20
ENDBRANCH   7  19
BRANCH  11  23
HETATM   23  O2  UNL     1      -5.732  21.767  26.337  1.00  0.00    -0.385 OA
ATOM     24  H2  UNL     1      -5.633  21.521  27.250  1.00  0.00     0.211 HD
ENDBRANCH  11  23
ENDBRANCH   1   6
TORSDOF 4
ENDMDL