MODEL 5
REMARK VINA RESULT: -6.655969348      5.167      7.267
REMARK  4 active torsions:
REMARK  status: ('A' for Active; 'I' for Inactive)
REMARK    1  A    between atoms: C2_2  and  S1_3
REMARK    2  A    between atoms: S1_3  and  C3_4
REMARK    3  A    between atoms: C4_6  and  N1_7
REMARK       I    between atoms: N1_7  and  C5_9
REMARK    4  A    between atoms: C5_9  and  C6_11
ROOT
HETATM    1  N1  UNL     1       0.011  13.840  15.483  1.00  0.00    -0.307 N
ATOM      2  H1  UNL     1      -0.972  13.626  15.316  1.00  0.00     0.171 HD
HETATM    3  C5  UNL     1       0.574  15.108  15.154  1.00  0.00     0.229 C
HETATM    4  O1  UNL     1       1.769  15.222  14.777  1.00  0.00    -0.273 OA
ENDROOT
BRANCH   1   5
HETATM    5  C4  UNL     1       0.834  12.962  16.015  1.00  0.00     0.152 A
HETATM    6  S2  UNL     1       1.178  11.376  15.493  1.00  0.00    -0.045 SA
HETATM    7  C3  UNL     1       2.311  10.953  16.704  1.00  0.00     0.067 A
HETATM    8  C13 UNL     1       2.359  12.083  17.454  1.00  0.00     0.031 A
HETATM    9  N2  UNL     1       1.605  13.097  17.094  1.00  0.00    -0.339 N
HETATM   10  C14 UNL     1       3.259  12.159  18.673  1.00  0.00     0.070 C
ATOM     11  H2  UNL     1       1.608  13.967  17.628  1.00  0.00     0.168 HD
BRANCH   7  12
HETATM   12  S1  UNL     1       3.110   9.369  16.782  1.00  0.00    -0.121 SA
BRANCH  12  13
HETATM   13  C2  UNL     1       2.637   8.338  18.148  1.00  0.00     0.075 C
HETATM   14  C1  UNL     1       1.207   8.712  18.533  1.00  0.00     0.016 C
ENDBRANCH  12  13
ENDBRANCH   7  12
ENDBRANCH   1   5
BRANCH   3  15
HETATM   15  C6  UNL     1      -0.241  16.339  15.246  1.00  0.00     0.095 A
HETATM   16  C7  UNL     1      -0.657  16.843  16.628  1.00  0.00    -0.027 A
HETATM   17  C8  UNL     1      -0.039  16.099  17.761  1.00  0.00     0.016 C
HETATM   18  C9  UNL     1      -0.679  18.361  16.841  1.00  0.00     0.016 C
HETATM   19  C10 UNL     1      -1.656  16.278  15.712  1.00  0.00    -0.027 A
HETATM   20  C11 UNL     1      -2.344  14.971  15.952  1.00  0.00     0.016 C
HETATM   21  C12 UNL     1      -2.562  17.299  15.004  1.00  0.00     0.016 C
ENDBRANCH   3  15
TORSDOF 4
ENDMDL