MODEL 4
REMARK VINA RESULT: -7.799214879      4.478      7.520
REMARK  4 active torsions:
REMARK  status: ('A' for Active; 'I' for Inactive)
REMARK    1  A    between atoms: C6_9  and  C7_10
REMARK    2  A    between atoms: C7_10  and  O1_11
REMARK    3  A    between atoms: C10_15  and  C12_17
REMARK    4  A    between atoms: C12_17  and  C15_20
ROOT
HETATM    1  C7  UNL     1      -1.569  19.547  22.651  1.00  0.00     0.089 C
HETATM    2  C8  UNL     1      -0.123  19.265  22.813  1.00  0.00     0.044 C
HETATM    3  C9  UNL     1       0.548  18.277  21.949  1.00  0.00     0.013 C
HETATM    4  C10 UNL     1      -0.173  17.449  20.965  1.00  0.00    -0.037 C
HETATM    5  C11 UNL     1      -0.467  16.124  21.664  1.00  0.00     0.016 C
HETATM    6  C18 UNL     1      -1.522  18.030  20.663  1.00  0.00     0.013 C
HETATM    7  C19 UNL     1      -1.769  19.418  21.160  1.00  0.00     0.044 C
ENDROOT
BRANCH   1   8
HETATM    8  C6  UNL     1      -2.066  20.866  23.111  1.00  0.00     0.023 A
HETATM    9  C2  UNL     1      -2.342  21.077  24.472  1.00  0.00     0.033 A
HETATM   10  C1  UNL     1      -2.209  20.173  25.641  1.00  0.00     0.070 C
HETATM   11  N1  UNL     1      -2.767  22.348  24.548  1.00  0.00    -0.303 N
HETATM   12  N2  UNL     1      -2.771  22.916  23.371  1.00  0.00    -0.300 N
ATOM     13  H1  UNL     1      -3.050  22.811  25.412  1.00  0.00     0.186 HD
HETATM   14  C3  UNL     1      -3.169  24.292  23.038  1.00  0.00     0.177 C
HETATM   15  C4  UNL     1      -2.335  22.020  22.429  1.00  0.00     0.035 A
HETATM   16  C5  UNL     1      -2.204  22.352  20.987  1.00  0.00     0.070 C
ENDBRANCH   1   8
BRANCH   1  17
HETATM   17  O1  UNL     1      -2.359  18.632  23.391  1.00  0.00    -0.385 OA
ATOM     18  H1  UNL     1      -2.843  18.171  22.715  1.00  0.00     0.211 HD
ENDBRANCH   1  17
BRANCH   4  19
HETATM   19  C12 UNL     1       0.527  17.251  19.655  1.00  0.00    -0.037 C
HETATM   20  C13 UNL     1       1.531  18.405  19.408  1.00  0.00     0.016 C
HETATM   21  C14 UNL     1       1.361  16.000  19.761  1.00  0.00     0.016 C
BRANCH  19  22
HETATM   22  C15 UNL     1      -0.231  17.187  18.390  1.00  0.00    -0.014 C
HETATM   23  C16 UNL     1      -0.248  18.329  17.460  1.00  0.00     0.010 C
HETATM   24  C17 UNL     1      -0.200  15.842  17.676  1.00  0.00     0.010 C
ENDBRANCH  19  22
ENDBRANCH   4  19
TORSDOF 4
ENDMDL