MODEL 3
REMARK VINA RESULT: -7.464105691      1.707      7.644
REMARK  4 active torsions:
REMARK  status: ('A' for Active; 'I' for Inactive)
REMARK    1  A    between atoms: C2_2  and  N1_3
REMARK       I    between atoms: N2_5  and  C3_7
REMARK       I    between atoms: C3_7  and  N4_18
REMARK    2  A    between atoms: N3_8  and  C4_10
REMARK    3  A    between atoms: N6_22  and  C13_24
REMARK    4  A    between atoms: C13_24  and  C14_25
ROOT
HETATM    1  N1  UNL     1       0.063  20.506  22.073  1.00  0.00    -0.275 N
ATOM      2  H1  UNL     1       0.535  21.011  22.823  1.00  0.00     0.189 HD
HETATM    3  N2  UNL     1       0.656  19.532  21.709  1.00  0.00    -0.130 N
ATOM      4  H2  UNL     1       1.524  19.405  22.229  1.00  0.00     0.205 HD
HETATM    5  C3  UNL     1       0.473  18.525  20.761  1.00  0.00     0.706 C
HETATM    6  N3  UNL     1       0.487  18.721  19.501  1.00  0.00    -0.189 N
ATOM      7  H3  UNL     1       0.640  19.683  19.198  1.00  0.00     0.184 HD
HETATM    8  N4  UNL     1       0.276  17.186  21.259  1.00  0.00    -0.124 N
ATOM      9  H4  UNL     1      -0.415  16.575  20.825  1.00  0.00     0.197 HD
HETATM   10  C12 UNL     1       1.048  16.726  22.355  1.00  0.00     0.196 C
HETATM   11  N5  UNL     1       1.666  16.337  23.257  1.00  0.00    -0.171 NA
ENDROOT
BRANCH   6  12
HETATM   12  C4  UNL     1       0.315  17.771  18.479  1.00  0.00     0.055 A
HETATM   13  C5  UNL     1       0.989  16.575  18.389  1.00  0.00     0.031 A
HETATM   14  C6  UNL     1       0.773  15.673  17.365  1.00  0.00     0.009 A
HETATM   15  C7  UNL     1      -0.147  15.954  16.381  1.00  0.00    -0.061 A
HETATM   16  C8  UNL     1      -0.395  14.994  15.270  1.00  0.00     0.048 C
HETATM   17  C9  UNL     1      -0.834  17.149  16.454  1.00  0.00     0.015 A
HETATM   18  C10 UNL     1      -0.618  18.052  17.476  1.00  0.00    -0.034 A
HETATM   19  C11 UNL     1      -1.362  19.342  17.551  1.00  0.00     0.050 C
ENDBRANCH   6  12
BRANCH   1  20
HETATM   20  C2  UNL     1      -1.131  21.086  21.687  1.00  0.00     0.088 C
HETATM   21  C1  UNL     1      -1.204  22.017  20.546  1.00  0.00     0.090 C
HETATM   22  N6  UNL     1      -2.223  20.833  22.334  1.00  0.00    -0.378 N
ATOM     23  H6  UNL     1      -3.086  21.283  22.028  1.00  0.00     0.160 HD
BRANCH  22  24
HETATM   24  C13 UNL     1      -2.279  19.948  23.464  1.00  0.00     0.129 C
BRANCH  24  25
HETATM   25  C14 UNL     1      -2.842  20.628  24.695  1.00  0.00    -0.035 C
HETATM   26  C15 UNL     1      -3.693  21.811  24.355  1.00  0.00     0.016 C
HETATM   27  C16 UNL     1      -1.671  21.123  25.540  1.00  0.00     0.016 C
HETATM   28  C17 UNL     1      -3.613  19.653  25.552  1.00  0.00     0.016 C
ENDBRANCH  24  25
ENDBRANCH  22  24
ENDBRANCH   1  20
TORSDOF 4
ENDMDL