MODEL 1
REMARK VINA RESULT: -8.164170370      0.000      0.000
REMARK  2 active torsions:
REMARK  status: ('A' for Active; 'I' for Inactive)
REMARK    1  A    between atoms: C4_4  and  C5_5
REMARK    2  A    between atoms: C7_7  and  C8_8
ROOT
HETATM    1  C5  UNL     1       0.673  15.735  17.847  1.00  0.00    -0.009 C
HETATM    2  C6  UNL     1      -0.583  14.908  18.111  1.00  0.00     0.021 C
HETATM    3  C7  UNL     1       1.849  15.018  18.353  1.00  0.00     0.038 C
HETATM    4  C12 UNL     1       1.607  14.971  19.882  1.00  0.00     0.082 C
HETATM    5  C13 UNL     1       0.663  16.050  20.186  1.00  0.00     0.206 C
HETATM    6  O1  UNL     1      -0.557  15.672  20.673  1.00  0.00    -0.197 OA
HETATM    7  O2  UNL     1      -0.898  16.433  21.678  1.00  0.00    -0.198 OA
HETATM    8  C14 UNL     1      -0.191  17.608  21.364  1.00  0.00     0.197 C
HETATM    9  C15 UNL     1      -0.066  18.527  22.535  1.00  0.00     0.082 C
HETATM   10  C16 UNL     1      -0.863  18.253  20.234  1.00  0.00     0.072 C
HETATM   11  C17 UNL     1      -0.461  17.816  18.836  1.00  0.00     0.016 C
HETATM   12  C18 UNL     1       0.625  16.848  18.882  1.00  0.00     0.064 C
HETATM   13  O3  UNL     1       1.068  17.022  21.104  1.00  0.00    -0.313 OA
ENDROOT
BRANCH   3  14
HETATM   14  C8  UNL     1       2.173  13.671  17.907  1.00  0.00    -0.036 A
HETATM   15  C9  UNL     1       2.398  12.612  18.809  1.00  0.00     0.026 A
HETATM   16  C10 UNL     1       2.690  11.476  18.114  1.00  0.00     0.088 A
HETATM   17  N1  UNL     1       2.653  11.794  16.826  1.00  0.00    -0.375 N
HETATM   18  C11 UNL     1       2.346  13.103  16.670  1.00  0.00     0.095 A
ATOM     19  H1  UNL     1       2.831  11.143  16.061  1.00  0.00     0.164 HD
ENDBRANCH   3  14
BRANCH   1  20
HETATM   20  C4  UNL     1       0.582  16.159  16.470  1.00  0.00    -0.014 C
HETATM   21  C2  UNL     1      -0.402  15.800  15.480  1.00  0.00    -0.091 C
HETATM   22  C1  UNL     1      -1.860  16.166  15.791  1.00  0.00     0.042 C
HETATM   23  C3  UNL     1      -0.372  14.482  14.791  1.00  0.00     0.042 C
ENDBRANCH   1  20
TORSDOF 2
ENDMDL