MODEL 1
REMARK VINA RESULT: -8.233758087      0.000      0.000
REMARK  5 active torsions:
REMARK  status: ('A' for Active; 'I' for Inactive)
REMARK    1  A    between atoms: C2_2  and  C3_3
REMARK    2  A    between atoms: C2_2  and  N1_8
REMARK    3  A    between atoms: C3_3  and  C4_4
REMARK    4  A    between atoms: N1_8  and  C8_10
REMARK    5  A    between atoms: C11_18  and  C12_19
ROOT
HETATM    1  C8  UNL     1       0.560  18.419  19.869  1.00  0.00     0.115 A
HETATM    2  N2  UNL     1       1.429  18.164  20.831  1.00  0.00    -0.338 N
ATOM      3  H2  UNL     1       1.505  18.856  21.577  1.00  0.00     0.168 HD
HETATM    4  C9  UNL     1       2.213  17.096  20.926  1.00  0.00     0.182 A
HETATM    5  N3  UNL     1       2.115  16.186  19.948  1.00  0.00    -0.346 N
ATOM      6  H3  UNL     1       2.698  15.349  19.973  1.00  0.00     0.167 HD
HETATM    7  C10 UNL     1       1.239  16.375  18.914  1.00  0.00     0.089 A
HETATM    8  S1  UNL     1       0.844  15.468  17.512  1.00  0.00    -0.075 SA
HETATM    9  C11 UNL     1      -0.334  16.514  16.847  1.00  0.00    -0.007 A
HETATM   10  C16 UNL     1      -0.374  17.541  17.753  1.00  0.00     0.033 A
HETATM   11  C17 UNL     1       0.439  17.466  18.821  1.00  0.00     0.043 A
ENDROOT
BRANCH   1  12
HETATM   12  N1  UNL     1      -0.124  19.463  19.839  1.00  0.00    -0.371 N
ATOM     13  H1  UNL     1       0.306  20.149  19.219  1.00  0.00     0.161 HD
BRANCH  12  14
HETATM   14  C2  UNL     1      -1.308  19.986  20.398  1.00  0.00     0.079 C
HETATM   15  C1  UNL     1      -1.727  21.134  19.461  1.00  0.00     0.032 C
BRANCH  14  16
HETATM   16  C3  UNL     1      -1.251  20.314  21.823  1.00  0.00     0.034 C
BRANCH  16  17
HETATM   17  C4  UNL     1      -2.151  19.682  22.811  1.00  0.00    -0.042 A
HETATM   18  C5  UNL     1      -2.283  18.159  22.538  1.00  0.00     0.015 C
HETATM   19  C6  UNL     1      -1.915  19.852  24.332  1.00  0.00     0.010 A
HETATM   20  C7  UNL     1      -3.125  20.326  23.660  1.00  0.00     0.010 A
ENDBRANCH  16  17
ENDBRANCH  14  16
ENDBRANCH  12  14
ENDBRANCH   1  12
BRANCH   9  21
HETATM   21  C12 UNL     1      -1.140  16.386  15.574  1.00  0.00    -0.018 C
HETATM   22  C13 UNL     1      -2.205  17.455  15.518  1.00  0.00     0.020 C
HETATM   23  C14 UNL     1      -1.742  15.005  15.601  1.00  0.00     0.020 C
HETATM   24  C15 UNL     1      -0.196  16.490  14.422  1.00  0.00     0.020 C
ENDBRANCH   9  21
TORSDOF 5
ENDMDL