MODEL 5
REMARK VINA RESULT: -7.984411835      1.161      2.341
REMARK  3 active torsions:
REMARK  status: ('A' for Active; 'I' for Inactive)
REMARK    1  A    between atoms: O1_2  and  C2_3
REMARK    2  A    between atoms: C7_8  and  C8_9
REMARK    3  A    between atoms: C10_11  and  C11_12
ROOT
HETATM    1  C8  UNL     1      -0.152  17.206  19.183  1.00  0.00     0.043 A
HETATM    2  C9  UNL     1      -1.010  18.089  19.799  1.00  0.00     0.046 A
HETATM    3  C10 UNL     1      -0.643  18.244  21.095  1.00  0.00     0.022 A
HETATM    4  C16 UNL     1       0.460  17.449  21.298  1.00  0.00     0.018 A
HETATM    5  C17 UNL     1       1.189  17.318  22.590  1.00  0.00     0.069 C
HETATM    6  N2  UNL     1       0.724  16.845  20.133  1.00  0.00    -0.358 N
ATOM      7  H2  UNL     1       1.494  16.192  19.987  1.00  0.00     0.166 HD
ENDROOT
BRANCH   1   8
HETATM    8  C7  UNL     1      -0.160  16.742  17.804  1.00  0.00    -0.006 A
HETATM    9  C6  UNL     1       0.660  15.714  17.404  1.00  0.00     0.020 A
HETATM   10  C4  UNL     1       0.664  15.257  16.087  1.00  0.00    -0.059 A
HETATM   11  C3  UNL     1      -0.165  15.836  15.153  1.00  0.00     0.043 A
HETATM   12  C5  UNL     1       1.542  14.152  15.638  1.00  0.00     0.048 C
HETATM   13  C2  UNL     1      -1.004  16.882  15.547  1.00  0.00     0.069 A
HETATM   14  C18 UNL     1      -0.980  17.307  16.861  1.00  0.00     0.050 A
BRANCH  13  15
HETATM   15  O1  UNL     1      -1.839  17.475  14.628  1.00  0.00    -0.356 OA
HETATM   16  C1  UNL     1      -3.214  17.639  14.849  1.00  0.00     0.210 C
ENDBRANCH  13  15
ENDBRANCH   1   8
BRANCH   3  17
HETATM   17  C11 UNL     1      -1.284  19.097  22.123  1.00  0.00     0.087 A
HETATM   18  N1  UNL     1      -1.940  18.792  23.209  1.00  0.00    -0.353 N
HETATM   19  C12 UNL     1      -2.423  19.720  23.974  1.00  0.00     0.019 A
ATOM     20  H1  UNL     1      -2.074  17.812  23.458  1.00  0.00     0.166 HD
HETATM   21  C13 UNL     1      -3.192  19.421  25.245  1.00  0.00     0.069 C
HETATM   22  C14 UNL     1      -2.218  21.024  23.595  1.00  0.00     0.003 A
HETATM   23  C15 UNL     1      -2.636  22.299  24.242  1.00  0.00     0.058 C
HETATM   24  S1  UNL     1      -1.331  20.814  22.144  1.00  0.00    -0.074 SA
ENDBRANCH   3  17
TORSDOF 3
ENDMDL