MODEL 5
REMARK VINA RESULT: -6.796006062      2.158      3.563
REMARK  4 active torsions:
REMARK  status: ('A' for Active; 'I' for Inactive)
REMARK    1  A    between atoms: C2_2  and  C3_3
REMARK    2  A    between atoms: C5_5  and  C6_6
REMARK    3  A    between atoms: C7_7  and  C8_8
REMARK    4  A    between atoms: C18_18  and  O1_19
ROOT
HETATM    1  C8  UNL     1      -1.073  20.629  21.605  1.00  0.00     0.076 C
HETATM    2  C9  UNL     1       0.150  21.469  21.194  1.00  0.00     0.050 C
HETATM    3  C10 UNL     1      -0.676  19.669  22.667  1.00  0.00     0.042 C
HETATM    4  C11 UNL     1      -1.605  19.540  23.824  1.00  0.00     0.011 C
HETATM    5  C12 UNL     1      -2.138  20.929  24.099  1.00  0.00     0.030 C
HETATM    6  C13 UNL     1      -2.819  21.069  25.403  1.00  0.00    -0.041 C
HETATM    7  C14 UNL     1      -3.868  20.051  25.699  1.00  0.00     0.015 C
HETATM    8  C15 UNL     1      -1.745  20.923  26.494  1.00  0.00     0.015 C
HETATM    9  C16 UNL     1      -3.342  22.479  25.528  1.00  0.00     0.012 C
HETATM   10  C17 UNL     1      -2.954  23.323  24.325  1.00  0.00     0.035 C
HETATM   11  C18 UNL     1      -3.580  22.704  23.120  1.00  0.00     0.152 C
HETATM   12  C19 UNL     1      -2.899  21.344  22.896  1.00  0.00     0.089 C
HETATM   13  C20 UNL     1      -4.012  20.393  22.509  1.00  0.00     0.049 C
HETATM   14  O2  UNL     1      -2.072  21.484  21.836  1.00  0.00    -0.363 OA
ENDROOT
BRANCH   1  15
HETATM   15  C7  UNL     1      -1.399  19.825  20.394  1.00  0.00     0.010 C
HETATM   16  C6  UNL     1      -0.507  19.123  19.719  1.00  0.00    -0.001 C
BRANCH  16  17
HETATM   17  C5  UNL     1      -0.853  18.346  18.539  1.00  0.00     0.002 C
HETATM   18  C3  UNL     1      -0.085  17.369  18.118  1.00  0.00    -0.084 C
HETATM   19  C4  UNL     1       1.157  17.064  18.872  1.00  0.00     0.043 C
BRANCH  18  20
HETATM   20  C2  UNL     1      -0.392  16.554  16.928  1.00  0.00     0.029 C
HETATM   21  C1  UNL     1      -1.306  17.325  16.026  1.00  0.00     0.010 C
ENDBRANCH  18  20
ENDBRANCH  16  17
ENDBRANCH   1  15
BRANCH  11  22
HETATM   22  O1  UNL     1      -3.445  23.502  21.982  1.00  0.00    -0.393 OA
ATOM     23  H1  UNL     1      -2.538  23.711  21.791  1.00  0.00     0.210 HD
ENDBRANCH  11  22
TORSDOF 4
ENDMDL