MODEL 4
REMARK VINA RESULT: -9.273238666      1.914      2.651
REMARK  17 active torsions:
REMARK  status: ('A' for Active; 'I' for Inactive)
REMARK    1  A    between atoms: C2_2  and  O1_3
REMARK    2  A    between atoms: O1_3  and  C3_4
REMARK    3  A    between atoms: C3_4  and  O2_5
REMARK    4  A    between atoms: C3_4  and  C4_7
REMARK    5  A    between atoms: C4_7  and  C5_8
REMARK    6  A    between atoms: C5_8  and  C6_9
REMARK    7  A    between atoms: C6_9  and  N1_10
REMARK       I    between atoms: N1_10  and  C7_12
REMARK    8  A    between atoms: C7_12  and  C8_14
REMARK    9  A    between atoms: C8_14  and  N2_15
REMARK   10  A    between atoms: C8_14  and  C15_24
REMARK       I    between atoms: N2_15  and  C9_17
REMARK   11  A    between atoms: C9_17  and  C10_19
REMARK   12  A    between atoms: C15_24  and  C17_26
REMARK   13  A    between atoms: C17_26  and  C18_27
REMARK       I    between atoms: N3_29  and  C19_31
REMARK   14  A    between atoms: C19_31  and  C20_33
REMARK       I    between atoms: N4_37  and  C24_38
REMARK   15  A    between atoms: C24_38  and  C25_40
REMARK   16  A    between atoms: C25_40  and  C26_42
REMARK   17  A    between atoms: C26_42  and  C27_43
ROOT
HETATM    1  C6  UNL     1      14.135  20.167  16.130  1.00  0.00     0.086 C
HETATM    2  N3  UNL     1      15.302  20.423  16.749  1.00  0.00    -0.315 N
ATOM      3  H3  UNL     1      15.428  20.000  17.669  1.00  0.00     0.170 HD
HETATM    4  C19 UNL     1      16.425  21.247  16.249  1.00  0.00     0.246 C
HETATM    5  O6  UNL     1      16.367  21.751  15.170  1.00  0.00    -0.271 OA
ENDROOT
BRANCH   1   6
HETATM    6  C5  UNL     1      13.689  18.870  17.341  1.00  0.00     0.081 C
BRANCH   6   7
HETATM    7  C4  UNL     1      12.704  19.590  18.154  1.00  0.00     0.068 C
BRANCH   7   8
HETATM    8  C3  UNL     1      11.418  18.837  18.349  1.00  0.00     0.257 C
BRANCH   8   9
HETATM    9  O1  UNL     1      10.945  18.776  19.650  1.00  0.00    -0.362 OA
BRANCH   9  10
HETATM   10  C2  UNL     1      11.989  18.431  20.520  1.00  0.00     0.166 C
HETATM   11  C1  UNL     1      12.427  16.993  20.398  1.00  0.00     0.033 C
ENDBRANCH   9  10
ENDBRANCH   8   9
BRANCH   8  12
HETATM   12  O2  UNL     1      10.417  19.497  17.602  1.00  0.00    -0.371 OA
ATOM     13  H2  UNL     1      10.701  19.462  16.696  1.00  0.00     0.212 HD
ENDBRANCH   8  12
ENDBRANCH   7   8
ENDBRANCH   6   7
ENDBRANCH   1   6
BRANCH   1  14
HETATM   14  N1  UNL     1      13.090  19.936  15.576  1.00  0.00    -0.315 N
HETATM   15  C7  UNL     1      12.654  19.761  14.265  1.00  0.00     0.246 C
HETATM   16  O3  UNL     1      13.251  20.483  13.393  1.00  0.00    -0.271 OA
ATOM     17  H1  UNL     1      12.323  19.847  16.242  1.00  0.00     0.170 HD
BRANCH  15  18
HETATM   18  C8  UNL     1      11.603  18.875  13.728  1.00  0.00     0.181 C
BRANCH  18  19
HETATM   19  N2  UNL     1      11.032  18.093  14.802  1.00  0.00    -0.347 N
HETATM   20  C9  UNL     1      10.857  16.687  14.671  1.00  0.00     0.222 C
HETATM   21  O4  UNL     1      11.220  16.101  13.588  1.00  0.00    -0.273 OA
ATOM     22  H2  UNL     1      10.750  18.556  15.666  1.00  0.00     0.163 HD
BRANCH  20  23
HETATM   23  C10 UNL     1      10.282  15.841  15.701  1.00  0.00     0.078 C
HETATM   24  C11 UNL     1      11.147  15.533  16.871  1.00  0.00     0.014 C
HETATM   25  C12 UNL     1      10.122  15.047  17.897  1.00  0.00     0.001 C
HETATM   26  C13 UNL     1       8.934  15.972  17.689  1.00  0.00     0.001 C
HETATM   27  C14 UNL     1       9.115  16.586  16.335  1.00  0.00     0.014 C
ENDBRANCH  20  23
ENDBRANCH  18  19
BRANCH  18  28
HETATM   28  C15 UNL     1      10.609  19.675  12.979  1.00  0.00     0.020 C
HETATM   29  C16 UNL     1      10.504  19.333  11.525  1.00  0.00     0.013 C
BRANCH  28  30
HETATM   30  C17 UNL     1       9.271  19.865  13.590  1.00  0.00     0.076 C
BRANCH  30  31
HETATM   31  C18 UNL     1       9.184  21.059  14.465  1.00  0.00     0.231 C
HETATM   32  O5  UNL     1       8.738  20.955  15.581  1.00  0.00    -0.307 OA
ENDBRANCH  30  31
ENDBRANCH  28  30
ENDBRANCH  18  28
ENDBRANCH  15  18
ENDBRANCH   1  14
BRANCH   4  33
HETATM   33  C20 UNL     1      17.507  21.319  17.248  1.00  0.00     0.180 C
HETATM   34  C21 UNL     1      16.830  20.962  18.621  1.00  0.00     0.037 C
HETATM   35  C22 UNL     1      17.444  21.968  19.599  1.00  0.00     0.022 C
HETATM   36  C23 UNL     1      18.768  22.217  18.891  1.00  0.00     0.127 C
HETATM   37  N4  UNL     1      18.219  22.488  17.520  1.00  0.00    -0.332 N
HETATM   38  C24 UNL     1      18.635  23.670  16.810  1.00  0.00     0.294 C
HETATM   39  O7  UNL     1      18.451  23.659  15.559  1.00  0.00    -0.264 OA
BRANCH  38  40
HETATM   40  C25 UNL     1      19.242  24.796  17.485  1.00  0.00     0.236 C
HETATM   41  O8  UNL     1      18.473  25.769  17.839  1.00  0.00    -0.283 OA
BRANCH  40  42
HETATM   42  C26 UNL     1      20.643  24.895  17.790  1.00  0.00     0.043 C
BRANCH  42  43
HETATM   43  C27 UNL     1      21.176  25.485  19.024  1.00  0.00    -0.018 C
HETATM   44  C28 UNL     1      20.385  25.395  20.274  1.00  0.00     0.018 C
HETATM   45  C29 UNL     1      21.102  26.197  21.345  1.00  0.00    -0.013 C
HETATM   46  C30 UNL     1      22.481  25.628  21.655  1.00  0.00     0.009 C
HETATM   47  C34 UNL     1      21.303  27.633  20.995  1.00  0.00     0.009 C
HETATM   48  C31 UNL     1      23.287  25.580  20.380  1.00  0.00    -0.013 C
HETATM   49  C32 UNL     1      23.536  27.032  19.984  1.00  0.00     0.009 C
HETATM   50  C36 UNL     1      22.542  24.842  19.333  1.00  0.00     0.018 C
HETATM   51  C33 UNL     1      22.184  27.681  19.756  1.00  0.00    -0.013 C
HETATM   52  C35 UNL     1      21.473  26.959  18.675  1.00  0.00     0.018 C
ENDBRANCH  42  43
ENDBRANCH  40  42
ENDBRANCH  38  40
ENDBRANCH   4  33
TORSDOF 17
ENDMDL