MODEL 3
REMARK VINA RESULT: -9.068659288      1.994      4.601
REMARK  18 active torsions:
REMARK  status: ('A' for Active; 'I' for Inactive)
REMARK    1  A    between atoms: N1_1  and  C1_5
REMARK    2  A    between atoms: C1_5  and  C2_6
REMARK    3  A    between atoms: C1_5  and  C3_8
REMARK    4  A    between atoms: C3_8  and  C4_9
REMARK    5  A    between atoms: C3_8  and  C34_49
REMARK    6  A    between atoms: C4_9  and  N2_10
REMARK    7  A    between atoms: C8_14  and  C9_15
REMARK       I    between atoms: C9_15  and  N3_17
REMARK    8  A    between atoms: N3_17  and  C10_19
REMARK    9  A    between atoms: C10_19  and  C11_20
REMARK   10  A    between atoms: C10_19  and  C18_27
REMARK   11  A    between atoms: C11_20  and  C12_21
REMARK       I    between atoms: C18_27  and  N4_29
REMARK   12  A    between atoms: N4_29  and  C19_31
REMARK   13  A    between atoms: C19_31  and  C20_32
REMARK   14  A    between atoms: C19_31  and  C27_39
REMARK   15  A    between atoms: C20_32  and  C21_33
REMARK   16  A    between atoms: C27_39  and  O4_40
REMARK   17  A    between atoms: C27_39  and  N5_42
REMARK   18  A    between atoms: C34_49  and  N6_50
ROOT
HETATM    1  C10 UNL     1      14.684  21.408  18.813  1.00  0.00     0.177 C
ENDROOT
BRANCH   1   2
HETATM    2  N3  UNL     1      14.004  21.494  17.570  1.00  0.00    -0.346 N
HETATM    3  C9  UNL     1      14.687  20.944  16.429  1.00  0.00     0.241 C
HETATM    4  O2  UNL     1      15.805  20.435  16.612  1.00  0.00    -0.271 OA
ATOM      5  H3  UNL     1      13.082  21.923  17.490  1.00  0.00     0.163 HD
BRANCH   3   6
HETATM    6  C8  UNL     1      14.123  20.961  15.069  1.00  0.00     0.175 C
HETATM    7  N2  UNL     1      13.093  21.945  14.947  1.00  0.00    -0.380 N
HETATM    8  C5  UNL     1      13.640  23.215  14.982  1.00  0.00     0.123 C
HETATM    9  C6  UNL     1      15.118  23.030  14.619  1.00  0.00     0.022 C
HETATM   10  C7  UNL     1      15.189  21.569  14.152  1.00  0.00     0.037 C
BRANCH   7  11
HETATM   11  C4  UNL     1      11.844  21.594  14.515  1.00  0.00     0.068 C
BRANCH  11  12
HETATM   12  C3  UNL     1      11.272  20.232  14.844  1.00  0.00     0.081 C
BRANCH  12  13
HETATM   13  C1  UNL     1       9.841  20.432  15.369  1.00  0.00     0.254 C
BRANCH  13  14
HETATM   14  N1  UNL     1       9.417  21.788  15.380  1.00  0.00    -0.068 N
ATOM     15  H13 UNL     1       8.435  21.883  15.638  1.00  0.00     0.275 HD
ATOM     16  H12 UNL     1       9.823  22.312  16.156  1.00  0.00     0.275 HD
ATOM     17  H11 UNL     1       9.621  22.216  14.477  1.00  0.00     0.275 HD
ENDBRANCH  13  14
BRANCH  13  18
HETATM   18  C2  UNL     1       9.874  19.909  16.764  1.00  0.00     0.264 C
HETATM   19  O1  UNL     1       9.568  18.786  16.997  1.00  0.00    -0.305 OA
ENDBRANCH  13  18
ENDBRANCH  12  13
BRANCH  12  20
HETATM   20  C34 UNL     1      11.354  19.238  13.740  1.00  0.00     0.162 C
BRANCH  20  21
HETATM   21  N6  UNL     1      11.059  17.882  14.203  1.00  0.00    -0.286 N
HETATM   22  C35 UNL     1      10.150  17.079  13.642  1.00  0.00     0.201 A
HETATM   23  N7  UNL     1      10.137  15.910  14.311  1.00  0.00    -0.346 N
HETATM   24  C36 UNL     1      11.051  16.006  15.293  1.00  0.00     0.198 A
ATOM     25  H7  UNL     1       9.545  15.103  14.111  1.00  0.00     0.167 HD
HETATM   26  N8  UNL     1      11.597  17.222  15.199  1.00  0.00    -0.293 N
ATOM     27  H8  UNL     1      12.327  17.584  15.813  1.00  0.00     0.188 HD
ENDBRANCH  20  21
ENDBRANCH  12  20
ENDBRANCH  11  12
ENDBRANCH   7  11
ENDBRANCH   3   6
ENDBRANCH   1   2
BRANCH   1  28
HETATM   28  C11 UNL     1      14.968  20.026  19.323  1.00  0.00     0.039 C
BRANCH  28  29
HETATM   29  C12 UNL     1      13.902  19.030  19.323  1.00  0.00    -0.012 C
HETATM   30  C13 UNL     1      13.517  18.426  20.643  1.00  0.00     0.005 C
HETATM   31  C14 UNL     1      11.999  18.194  20.546  1.00  0.00     0.000 C
HETATM   32  C15 UNL     1      11.709  17.565  19.196  1.00  0.00     0.000 C
HETATM   33  C16 UNL     1      12.926  16.922  18.582  1.00  0.00     0.000 C
HETATM   34  C17 UNL     1      14.058  17.877  18.354  1.00  0.00     0.005 C
ENDBRANCH  28  29
ENDBRANCH   1  28
BRANCH   1  35
HETATM   35  C18 UNL     1      16.038  22.069  18.767  1.00  0.00     0.244 C
HETATM   36  O3  UNL     1      16.994  21.466  19.320  1.00  0.00    -0.271 OA
HETATM   37  N4  UNL     1      16.180  23.281  18.141  1.00  0.00    -0.325 N
ATOM     38  H4  UNL     1      15.332  23.628  17.693  1.00  0.00     0.169 HD
BRANCH  37  39
HETATM   39  C19 UNL     1      17.342  24.161  18.007  1.00  0.00     0.063 C
BRANCH  39  40
HETATM   40  C20 UNL     1      18.117  23.836  16.802  1.00  0.00     0.066 C
BRANCH  40  41
HETATM   41  C21 UNL     1      18.724  24.933  16.022  1.00  0.00    -0.009 C
HETATM   42  C22 UNL     1      19.995  24.359  15.370  1.00  0.00     0.005 C
HETATM   43  C23 UNL     1      20.887  25.542  15.004  1.00  0.00     0.000 C
HETATM   44  C24 UNL     1      20.173  26.333  13.956  1.00  0.00     0.000 C
HETATM   45  C25 UNL     1      18.831  26.758  14.455  1.00  0.00     0.000 C
HETATM   46  C26 UNL     1      17.965  25.564  14.913  1.00  0.00     0.005 C
ENDBRANCH  40  41
ENDBRANCH  39  40
BRANCH  39  47
HETATM   47  C27 UNL     1      17.971  24.521  19.267  1.00  0.00     0.161 C
BRANCH  47  48
HETATM   48  O4  UNL     1      17.179  25.040  20.188  1.00  0.00    -0.345 OA
ATOM     49  H4  UNL     1      16.868  24.443  20.859  1.00  0.00     0.219 HD
ENDBRANCH  47  48
BRANCH  47  50
HETATM   50  N5  UNL     1      19.279  24.427  19.669  1.00  0.00    -0.360 N
HETATM   51  C28 UNL     1      19.428  24.830  21.134  1.00  0.00     0.125 C
HETATM   52  C29 UNL     1      20.598  25.821  21.165  1.00  0.00     0.020 C
HETATM   53  C30 UNL     1      21.932  25.105  21.039  1.00  0.00     0.002 C
HETATM   54  C31 UNL     1      22.491  25.194  19.630  1.00  0.00     0.002 C
HETATM   55  C32 UNL     1      21.422  25.018  18.565  1.00  0.00     0.020 C
HETATM   56  C33 UNL     1      20.423  23.968  18.981  1.00  0.00     0.125 C
ENDBRANCH  47  50
ENDBRANCH  39  47
ENDBRANCH  37  39
ENDBRANCH   1  35
TORSDOF 18
ENDMDL