MODEL 2
REMARK VINA RESULT: -8.895297406      1.474      2.617
REMARK  16 active torsions:
REMARK  status: ('A' for Active; 'I' for Inactive)
REMARK    1  A    between atoms: N1_2  and  C2_5
REMARK    2  A    between atoms: C2_5  and  C3_6
REMARK    3  A    between atoms: C3_6  and  C4_7
REMARK    4  A    between atoms: C4_7  and  C5_8
REMARK    5  A    between atoms: C5_8  and  C6_9
REMARK    6  A    between atoms: C6_9  and  C7_10
REMARK    7  A    between atoms: C7_10  and  N2_11
REMARK    8  A    between atoms: C12_17  and  C13_18
REMARK    9  A    between atoms: C13_18  and  C14_19
REMARK       I    between atoms: C14_19  and  N3_21
REMARK   10  A    between atoms: N3_21  and  C15_23
REMARK   11  A    between atoms: C15_23  and  O2_24
REMARK   12  A    between atoms: C15_23  and  C16_26
REMARK   13  A    between atoms: C16_26  and  N4_27
REMARK   14  A    between atoms: C21_32  and  N5_33
REMARK       I    between atoms: N5_33  and  C22_35
REMARK   15  A    between atoms: C22_35  and  C23_37
REMARK   16  A    between atoms: C23_37  and  C24_38
ROOT
HETATM    1  C15 UNL     1      18.035  25.329  16.106  1.00  0.00     0.153 C
ENDROOT
BRANCH   1   2
HETATM    2  N3  UNL     1      19.245  25.473  15.467  1.00  0.00    -0.307 N
HETATM    3  C14 UNL     1      20.564  25.682  15.867  1.00  0.00     0.228 C
HETATM    4  O1  UNL     1      20.927  25.825  17.038  1.00  0.00    -0.273 OA
ATOM      5  H3  UNL     1      19.155  25.413  14.452  1.00  0.00     0.171 HD
BRANCH   3   6
HETATM    6  C13 UNL     1      21.649  25.741  14.801  1.00  0.00     0.150 C
BRANCH   6   7
HETATM    7  C12 UNL     1      22.158  27.166  14.764  1.00  0.00    -0.000 A
HETATM    8  S1  UNL     1      21.573  28.511  13.901  1.00  0.00    -0.105 SA
HETATM    9  C11 UNL     1      22.685  29.684  14.432  1.00  0.00     0.058 A
HETATM   10  C10 UNL     1      23.505  28.991  15.287  1.00  0.00    -0.041 A
HETATM   11  C9  UNL     1      24.670  29.638  16.023  1.00  0.00     0.070 C
HETATM   12  C34 UNL     1      23.224  27.677  15.457  1.00  0.00    -0.010 A
HETATM   13  C8  UNL     1      25.258  28.773  17.091  1.00  0.00     0.277 C
HETATM   14  N2  UNL     1      24.313  27.799  17.528  1.00  0.00     0.092 N
HETATM   15  C35 UNL     1      24.119  26.884  16.402  1.00  0.00     0.312 C
BRANCH  14  16
HETATM   16  C7  UNL     1      24.667  27.089  18.716  1.00  0.00     0.273 C
BRANCH  16  17
HETATM   17  C6  UNL     1      23.449  26.652  19.460  1.00  0.00     0.030 C
BRANCH  17  18
HETATM   18  C5  UNL     1      22.433  27.723  19.652  1.00  0.00     0.002 C
BRANCH  18  19
HETATM   19  C4  UNL     1      21.332  27.288  20.583  1.00  0.00     0.002 C
BRANCH  19  20
HETATM   20  C3  UNL     1      21.399  25.813  20.792  1.00  0.00     0.027 C
BRANCH  20  21
HETATM   21  C2  UNL     1      20.028  25.149  20.830  1.00  0.00     0.231 C
BRANCH  21  22
HETATM   22  N1  UNL     1      19.500  24.945  19.516  1.00  0.00    -0.079 N
HETATM   23  C1  UNL     1      19.425  23.506  19.239  1.00  0.00     0.266 C
ATOM     24  H12 UNL     1      20.031  25.448  18.804  1.00  0.00     0.276 HD
ATOM     25  H11 UNL     1      18.602  25.410  19.385  1.00  0.00     0.276 HD
ENDBRANCH  21  22
ENDBRANCH  20  21
ENDBRANCH  19  20
ENDBRANCH  18  19
ENDBRANCH  17  18
ENDBRANCH  16  17
ENDBRANCH  14  16
ENDBRANCH   6   7
ENDBRANCH   3   6
ENDBRANCH   1   2
BRANCH   1  26
HETATM   26  O2  UNL     1      18.034  25.992  17.289  1.00  0.00    -0.345 OA
ATOM     27  H2  UNL     1      18.093  26.930  17.149  1.00  0.00     0.219 HD
ENDBRANCH   1  26
BRANCH   1  28
HETATM   28  C16 UNL     1      16.765  24.692  15.903  1.00  0.00     0.116 C
BRANCH  28  29
HETATM   29  N4  UNL     1      16.348  23.678  16.765  1.00  0.00    -0.280 NA
HETATM   30  C17 UNL     1      15.344  24.011  17.744  1.00  0.00     0.101 C
HETATM   31  C18 UNL     1      14.574  22.735  18.011  1.00  0.00     0.005 C
HETATM   32  C19 UNL     1      15.109  21.966  19.145  1.00  0.00     0.008 C
HETATM   33  C30 UNL     1      14.670  22.076  16.676  1.00  0.00     0.015 C
HETATM   34  C20 UNL     1      15.252  20.499  18.995  1.00  0.00     0.026 C
HETATM   35  C21 UNL     1      14.601  19.829  17.858  1.00  0.00     0.084 C
HETATM   36  C29 UNL     1      14.277  20.656  16.647  1.00  0.00     0.032 C
HETATM   37  C31 UNL     1      15.982  22.436  16.121  1.00  0.00     0.014 C
HETATM   38  C32 UNL     1      15.815  22.604  14.601  1.00  0.00     0.032 C
HETATM   39  C33 UNL     1      17.120  21.488  16.309  1.00  0.00     0.032 C
BRANCH  35  40
HETATM   40  N5  UNL     1      13.426  19.081  18.314  1.00  0.00    -0.356 N
HETATM   41  C22 UNL     1      13.518  17.685  18.436  1.00  0.00     0.220 C
HETATM   42  O3  UNL     1      14.595  17.116  18.146  1.00  0.00    -0.274 OA
ATOM     43  H5  UNL     1      12.558  19.566  18.539  1.00  0.00     0.162 HD
BRANCH  41  44
HETATM   44  C23 UNL     1      12.369  16.904  18.894  1.00  0.00     0.137 C
BRANCH  44  45
HETATM   45  C24 UNL     1      11.275  16.774  17.884  1.00  0.00     0.157 C
HETATM   46  C25 UNL     1      10.083  17.644  18.091  1.00  0.00     0.204 C
HETATM   47  O4  UNL     1       9.577  17.689  16.777  1.00  0.00    -0.353 OA
HETATM   48  C26 UNL     1      10.730  17.857  15.988  1.00  0.00     0.157 C
HETATM   49  C27 UNL     1      10.885  19.360  15.793  1.00  0.00     0.078 C
HETATM   50  C28 UNL     1      10.612  17.225  14.633  1.00  0.00     0.078 C
HETATM   51  O5  UNL     1      11.780  17.286  16.677  1.00  0.00    -0.348 OA
ENDBRANCH  44  45
ENDBRANCH  41  44
ENDBRANCH  35  40
ENDBRANCH  28  29
ENDBRANCH   1  28
TORSDOF 16
ENDMDL