MODEL 5
REMARK VINA RESULT: -8.136378625      2.108      8.710
REMARK  18 active torsions:
REMARK  status: ('A' for Active; 'I' for Inactive)
REMARK    1  A    between atoms: C2_2  and  C3_3
REMARK    2  A    between atoms: C3_3  and  C4_4
REMARK    3  A    between atoms: C4_4  and  C5_5
REMARK    4  A    between atoms: C5_5  and  C6_6
REMARK    5  A    between atoms: C6_6  and  C7_7
REMARK    6  A    between atoms: C9_12  and  C10_13
REMARK    7  A    between atoms: C10_13  and  N2_14
REMARK       I    between atoms: N2_14  and  C11_16
REMARK    8  A    between atoms: C11_16  and  C12_18
REMARK    9  A    between atoms: N3_23  and  C16_24
REMARK   10  A    between atoms: C21_29  and  O4_30
REMARK   11  A    between atoms: C25_37  and  C26_38
REMARK   12  A    between atoms: C26_38  and  C27_39
REMARK   13  A    between atoms: C27_39  and  C28_40
REMARK   14  A    between atoms: C28_40  and  C29_41
REMARK   15  A    between atoms: C29_41  and  C30_42
REMARK   16  A    between atoms: C30_42  and  C31_43
REMARK   17  A    between atoms: C31_43  and  O7_45
REMARK   18  A    between atoms: O7_45  and  C32_46
ROOT
HETATM    1  C7  UNL     1      12.293  19.636  14.238  1.00  0.00     0.080 C
HETATM    2  N1  UNL     1      13.552  19.670  14.873  1.00  0.00    -0.320 N
ATOM      3  H1  UNL     1      13.919  18.730  15.018  1.00  0.00     0.169 HD
HETATM    4  C8  UNL     1      14.424  20.628  15.352  1.00  0.00     0.283 C
HETATM    5  O1  UNL     1      15.633  20.560  14.900  1.00  0.00    -0.265 OA
HETATM    6  C9  UNL     1      14.242  21.747  16.307  1.00  0.00     0.182 C
HETATM    7  O3  UNL     1      14.805  21.692  17.496  1.00  0.00    -0.225 OA
HETATM    8  N3  UNL     1      15.154  20.602  18.154  1.00  0.00    -0.210 N
HETATM    9  C21 UNL     1      14.417  19.429  18.373  1.00  0.00     0.242 C
HETATM   10  N4  UNL     1      13.137  19.055  18.765  1.00  0.00    -0.343 N
HETATM   11  C22 UNL     1      12.984  17.904  19.721  1.00  0.00     0.154 C
HETATM   12  C23 UNL     1      11.848  19.574  18.405  1.00  0.00     0.206 C
HETATM   13  C24 UNL     1      11.240  18.709  17.373  1.00  0.00     0.167 C
HETATM   14  O5  UNL     1      11.817  17.669  17.129  1.00  0.00    -0.294 OA
HETATM   15  C25 UNL     1      10.009  18.980  16.616  1.00  0.00     0.159 C
HETATM   16  N5  UNL     1      10.084  19.915  15.567  1.00  0.00    -0.344 N
ATOM     17  H5  UNL     1       9.190  20.344  15.329  1.00  0.00     0.163 HD
HETATM   18  C34 UNL     1      11.163  20.370  14.783  1.00  0.00     0.264 C
HETATM   19  O8  UNL     1      11.112  21.636  14.523  1.00  0.00    -0.266 OA
ENDROOT
BRANCH  15  20
HETATM   20  C26 UNL     1       9.402  17.692  16.077  1.00  0.00     0.060 C
BRANCH  20  21
HETATM   21  C27 UNL     1       9.447  17.549  14.606  1.00  0.00    -0.028 C
BRANCH  21  22
HETATM   22  C28 UNL     1       8.942  16.365  13.919  1.00  0.00    -0.030 C
BRANCH  22  23
HETATM   23  C29 UNL     1       9.780  15.178  13.670  1.00  0.00     0.037 C
BRANCH  23  24
HETATM   24  C30 UNL     1      11.104  15.049  14.338  1.00  0.00     0.115 C
BRANCH  24  25
HETATM   25  C31 UNL     1      11.014  14.086  15.497  1.00  0.00     0.259 C
HETATM   26  O6  UNL     1      11.269  12.889  15.285  1.00  0.00    -0.265 OA
BRANCH  25  27
HETATM   27  O7  UNL     1      10.662  14.516  16.753  1.00  0.00    -0.322 OA
BRANCH  27  28
HETATM   28  C32 UNL     1       9.628  13.969  17.517  1.00  0.00     0.174 C
HETATM   29  C33 UNL     1       8.268  14.095  16.904  1.00  0.00     0.034 C
ENDBRANCH  27  28
ENDBRANCH  25  27
ENDBRANCH  24  25
ENDBRANCH  23  24
ENDBRANCH  22  23
ENDBRANCH  21  22
ENDBRANCH  20  21
ENDBRANCH  15  20
BRANCH   1  30
HETATM   30  C6  UNL     1      12.438  19.798  12.727  1.00  0.00     0.063 C
BRANCH  30  31
HETATM   31  C5  UNL     1      11.579  18.973  11.877  1.00  0.00     0.006 C
BRANCH  31  32
HETATM   32  C4  UNL     1      12.066  17.538  11.872  1.00  0.00     0.000 C
BRANCH  32  33
HETATM   33  C3  UNL     1      11.485  16.723  10.738  1.00  0.00    -0.000 C
BRANCH  33  34
HETATM   34  C2  UNL     1      12.220  15.404  10.611  1.00  0.00    -0.005 C
HETATM   35  C1  UNL     1      13.597  15.592  11.203  1.00  0.00     0.005 C
ENDBRANCH  33  34
ENDBRANCH  32  33
ENDBRANCH  31  32
ENDBRANCH  30  31
ENDBRANCH   1  30
BRANCH   9  36
HETATM   36  O4  UNL     1      15.169  18.382  18.133  1.00  0.00    -0.331 OA
ATOM     37  H4  UNL     1      15.034  17.727  18.809  1.00  0.00     0.221 HD
ENDBRANCH   9  36
BRANCH   8  38
HETATM   38  C16 UNL     1      16.530  20.678  18.721  1.00  0.00     0.119 C
HETATM   39  C17 UNL     1      16.609  21.621  19.893  1.00  0.00     0.028 C
HETATM   40  C18 UNL     1      17.978  22.239  19.893  1.00  0.00     0.002 C
HETATM   41  C19 UNL     1      18.723  21.688  18.718  1.00  0.00     0.002 C
HETATM   42  C20 UNL     1      17.618  21.084  17.878  1.00  0.00     0.028 C
ENDBRANCH   8  38
BRANCH   6  43
HETATM   43  C10 UNL     1      14.232  23.073  15.591  1.00  0.00     0.136 C
BRANCH  43  44
HETATM   44  N2  UNL     1      15.170  24.062  15.852  1.00  0.00    -0.334 N
HETATM   45  C11 UNL     1      16.539  23.996  15.558  1.00  0.00     0.229 C
HETATM   46  O2  UNL     1      17.000  22.962  15.017  1.00  0.00    -0.272 OA
ATOM     47  H2  UNL     1      14.832  24.914  16.299  1.00  0.00     0.168 HD
BRANCH  45  48
HETATM   48  C12 UNL     1      17.487  25.112  15.861  1.00  0.00     0.030 C
HETATM   49  C13 UNL     1      17.163  25.637  17.231  1.00  0.00     0.025 C
HETATM   50  C14 UNL     1      17.430  26.189  14.827  1.00  0.00     0.025 C
HETATM   51  C15 UNL     1      18.901  24.530  15.870  1.00  0.00     0.025 C
ENDBRANCH  45  48
ENDBRANCH  43  44
ENDBRANCH   6  43
TORSDOF 18
ENDMDL