MODEL 4
REMARK VINA RESULT: -8.951750213      2.921     11.204
REMARK  19 active torsions:
REMARK  status: ('A' for Active; 'I' for Inactive)
REMARK    1  A    between atoms: C2_2  and  C3_3
REMARK    2  A    between atoms: C3_3  and  C4_4
REMARK    3  A    between atoms: C4_4  and  N1_5
REMARK       I    between atoms: N1_5  and  C5_7
REMARK    4  A    between atoms: C5_7  and  C6_9
REMARK    5  A    between atoms: N2_11  and  C8_12
REMARK    6  A    between atoms: N3_21  and  C17_22
REMARK    7  A    between atoms: C17_22  and  O2_23
REMARK    8  A    between atoms: C17_22  and  C18_25
REMARK    9  A    between atoms: C18_25  and  C19_26
REMARK   10  A    between atoms: C18_25  and  N4_33
REMARK   11  A    between atoms: C19_26  and  C20_27
REMARK   12  A    between atoms: C20_27  and  C21_28
REMARK   13  A    between atoms: C21_28  and  O4_30
REMARK   14  A    between atoms: O4_30  and  C22_31
REMARK       I    between atoms: N4_33  and  C24_35
REMARK   15  A    between atoms: C24_35  and  C25_37
REMARK   16  A    between atoms: C25_37  and  N5_38
REMARK   17  A    between atoms: C25_37  and  C33_49
REMARK       I    between atoms: N5_38  and  C26_40
REMARK   18  A    between atoms: C26_40  and  O7_42
REMARK   19  A    between atoms: O7_42  and  C27_43
ROOT
HETATM    1  C18 UNL     1      14.610  22.767  17.140  1.00  0.00     0.159 C
ENDROOT
BRANCH   1   2
HETATM    2  C17 UNL     1      15.724  22.866  18.077  1.00  0.00     0.137 C
BRANCH   2   3
HETATM    3  N3  UNL     1      17.019  23.394  17.891  1.00  0.00    -0.347 N
HETATM    4  C6  UNL     1      17.423  24.675  18.470  1.00  0.00     0.206 C
HETATM    5  C7  UNL     1      18.021  25.583  17.442  1.00  0.00     0.308 C
HETATM    6  N2  UNL     1      18.530  24.865  16.291  1.00  0.00     0.101 N
HETATM    7  C15 UNL     1      19.070  23.594  16.602  1.00  0.00     0.293 C
HETATM    8  C16 UNL     1      17.984  22.670  17.101  1.00  0.00     0.156 C
BRANCH   4   9
HETATM    9  C5  UNL     1      18.285  24.479  19.655  1.00  0.00     0.242 C
HETATM   10  N1  UNL     1      19.469  25.233  19.858  1.00  0.00    -0.359 N
ATOM     11  H1  UNL     1      19.715  25.927  19.152  1.00  0.00     0.162 HD
HETATM   12  O1  UNL     1      17.986  23.624  20.524  1.00  0.00    -0.271 OA
BRANCH  10  13
HETATM   13  C4  UNL     1      20.337  25.093  20.975  1.00  0.00     0.122 C
BRANCH  13  14
HETATM   14  C3  UNL     1      21.797  25.204  20.722  1.00  0.00     0.019 C
BRANCH  14  15
HETATM   15  C2  UNL     1      22.213  25.470  19.323  1.00  0.00    -0.003 C
HETATM   16  C1  UNL     1      22.716  26.844  19.032  1.00  0.00     0.005 C
ENDBRANCH  14  15
ENDBRANCH  13  14
ENDBRANCH  10  13
ENDBRANCH   4   9
BRANCH   6  17
HETATM   17  C8  UNL     1      19.438  25.704  15.519  1.00  0.00     0.156 C
HETATM   18  C9  UNL     1      18.738  26.283  14.299  1.00  0.00     0.049 C
HETATM   19  C10 UNL     1      19.922  26.851  16.338  1.00  0.00     0.041 C
HETATM   20  C11 UNL     1      21.107  27.558  15.711  1.00  0.00     0.002 C
HETATM   21  C12 UNL     1      22.199  26.635  15.291  1.00  0.00     0.000 C
HETATM   22  C13 UNL     1      21.661  25.578  14.370  1.00  0.00     0.002 C
HETATM   23  C14 UNL     1      20.535  24.798  15.009  1.00  0.00     0.041 C
ENDBRANCH   6  17
ENDBRANCH   2   3
BRANCH   2  24
HETATM   24  O2  UNL     1      15.533  22.409  19.285  1.00  0.00    -0.348 OA
ATOM     25  H2  UNL     1      16.066  22.851  19.935  1.00  0.00     0.219 HD
ENDBRANCH   2  24
ENDBRANCH   1   2
BRANCH   1  26
HETATM   26  C19 UNL     1      14.966  22.594  15.698  1.00  0.00     0.043 C
BRANCH  26  27
HETATM   27  C20 UNL     1      13.832  22.348  14.770  1.00  0.00     0.113 C
BRANCH  27  28
HETATM   28  C21 UNL     1      14.057  20.985  14.166  1.00  0.00     0.258 C
HETATM   29  O3  UNL     1      15.147  20.712  13.586  1.00  0.00    -0.265 OA
BRANCH  28  30
HETATM   30  O4  UNL     1      13.111  19.985  14.212  1.00  0.00    -0.322 OA
BRANCH  30  31
HETATM   31  C22 UNL     1      12.628  19.303  13.084  1.00  0.00     0.174 C
HETATM   32  C23 UNL     1      11.219  19.645  12.705  1.00  0.00     0.034 C
ENDBRANCH  30  31
ENDBRANCH  28  30
ENDBRANCH  27  28
ENDBRANCH  26  27
ENDBRANCH   1  26
BRANCH   1  33
HETATM   33  N4  UNL     1      13.708  21.714  17.597  1.00  0.00    -0.347 N
HETATM   34  C24 UNL     1      14.037  20.371  17.712  1.00  0.00     0.241 C
HETATM   35  O5  UNL     1      15.210  19.998  17.399  1.00  0.00    -0.271 OA
ATOM     36  H4  UNL     1      12.758  21.988  17.852  1.00  0.00     0.163 HD
BRANCH  34  37
HETATM   37  C25 UNL     1      13.111  19.325  18.178  1.00  0.00     0.182 C
BRANCH  37  38
HETATM   38  N5  UNL     1      12.321  18.773  17.089  1.00  0.00    -0.323 N
HETATM   39  C26 UNL     1      10.956  19.103  16.912  1.00  0.00     0.361 C
HETATM   40  O6  UNL     1      10.389  19.902  17.712  1.00  0.00    -0.238 OA
ATOM     41  H5  UNL     1      12.764  18.129  16.433  1.00  0.00     0.165 HD
BRANCH  39  42
HETATM   42  O7  UNL     1      10.186  18.591  15.887  1.00  0.00    -0.299 OA
BRANCH  42  43
HETATM   43  C27 UNL     1       9.385  17.421  16.001  1.00  0.00     0.133 C
HETATM   44  C28 UNL     1       9.768  16.427  14.944  1.00  0.00     0.032 C
HETATM   45  C29 UNL     1      11.036  15.681  15.220  1.00  0.00     0.002 C
HETATM   46  C30 UNL     1      11.251  15.321  16.657  1.00  0.00     0.000 C
HETATM   47  C31 UNL     1       9.987  15.466  17.458  1.00  0.00     0.002 C
HETATM   48  C32 UNL     1       9.420  16.847  17.396  1.00  0.00     0.032 C
ENDBRANCH  42  43
ENDBRANCH  39  42
ENDBRANCH  37  38
BRANCH  37  49
HETATM   49  C33 UNL     1      13.761  18.202  18.952  1.00  0.00     0.009 C
HETATM   50  C34 UNL     1      13.049  17.850  20.216  1.00  0.00     0.012 C
HETATM   51  C35 UNL     1      14.169  17.023  18.120  1.00  0.00     0.012 C
ENDBRANCH  37  49
ENDBRANCH  34  37
ENDBRANCH   1  33
TORSDOF 19
ENDMDL