MODEL 3
REMARK VINA RESULT: -9.242962852      1.941     11.090
REMARK  18 active torsions:
REMARK  status: ('A' for Active; 'I' for Inactive)
REMARK    1  A    between atoms: C2_2  and  C4_4
REMARK    2  A    between atoms: C4_4  and  C5_5
REMARK    3  A    between atoms: C5_5  and  N1_6
REMARK    4  A    between atoms: C5_5  and  C6_10
REMARK       I    between atoms: C6_10  and  N2_12
REMARK    5  A    between atoms: C10_16  and  C11_17
REMARK    6  A    between atoms: C11_17  and  O2_18
REMARK    7  A    between atoms: C11_17  and  C34_50
REMARK    8  A    between atoms: O2_18  and  C12_19
REMARK    9  A    between atoms: C12_19  and  C13_20
REMARK   10  A    between atoms: C13_20  and  C14_22
REMARK   11  A    between atoms: C14_22  and  O4_23
REMARK   12  A    between atoms: C14_22  and  N3_25
REMARK       I    between atoms: N3_25  and  C15_27
REMARK   13  A    between atoms: C15_27  and  C16_29
REMARK   14  A    between atoms: C16_29  and  N4_30
REMARK       I    between atoms: N4_30  and  C17_31
REMARK   15  A    between atoms: C17_31  and  C18_33
REMARK   16  A    between atoms: C18_33  and  C19_34
REMARK   17  A    between atoms: C18_33  and  N5_37
REMARK   18  A    between atoms: N5_37  and  C23_39
ROOT
HETATM    1  C14 UNL     1      17.188  24.638  17.052  1.00  0.00     0.192 C
ENDROOT
BRANCH   1   2
HETATM    2  C13 UNL     1      16.833  23.992  15.842  1.00  0.00     0.223 C
HETATM    3  O3  UNL     1      17.607  23.910  14.871  1.00  0.00    -0.286 OA
BRANCH   2   4
HETATM    4  C12 UNL     1      15.423  23.368  15.716  1.00  0.00     0.255 C
BRANCH   4   5
HETATM    5  O2  UNL     1      15.507  22.033  15.736  1.00  0.00    -0.376 OA
BRANCH   5   6
HETATM    6  C11 UNL     1      14.801  21.201  16.468  1.00  0.00     0.148 C
BRANCH   6   7
HETATM    7  C10 UNL     1      14.013  20.053  16.011  1.00  0.00     0.116 C
HETATM    8  N2  UNL     1      12.600  20.021  15.921  1.00  0.00    -0.343 N
HETATM    9  C6  UNL     1      11.746  18.991  16.443  1.00  0.00     0.251 C
HETATM   10  C7  UNL     1      12.170  21.190  15.199  1.00  0.00     0.126 C
HETATM   11  O1  UNL     1      10.531  19.169  16.426  1.00  0.00    -0.271 OA
HETATM   12  C8  UNL     1      13.170  21.131  14.045  1.00  0.00     0.022 C
HETATM   13  C9  UNL     1      14.214  20.101  14.416  1.00  0.00     0.029 C
BRANCH   9  14
HETATM   14  C5  UNL     1      12.409  17.763  16.967  1.00  0.00     0.275 C
BRANCH  14  15
HETATM   15  C4  UNL     1      12.184  17.465  18.401  1.00  0.00     0.046 C
BRANCH  15  16
HETATM   16  C2  UNL     1      13.426  17.433  19.262  1.00  0.00    -0.020 C
HETATM   17  C1  UNL     1      13.654  18.743  19.978  1.00  0.00     0.009 C
HETATM   18  C3  UNL     1      14.592  17.334  18.266  1.00  0.00     0.009 C
ENDBRANCH  15  16
ENDBRANCH  14  15
BRANCH  14  19
HETATM   19  N1  UNL     1      11.697  16.668  16.239  1.00  0.00    -0.066 N
ATOM     20  H13 UNL     1      10.760  16.919  15.926  1.00  0.00     0.275 HD
ATOM     21  H12 UNL     1      12.078  16.470  15.314  1.00  0.00     0.275 HD
ATOM     22  H11 UNL     1      11.724  15.875  16.879  1.00  0.00     0.275 HD
ENDBRANCH  14  19
ENDBRANCH   9  14
ENDBRANCH   6   7
BRANCH   6  23
HETATM   23  C34 UNL     1      15.581  20.873  17.774  1.00  0.00     0.008 C
HETATM   24  C35 UNL     1      17.039  20.613  17.481  1.00  0.00     0.012 C
HETATM   25  C36 UNL     1      15.439  21.916  18.812  1.00  0.00     0.012 C
ENDBRANCH   6  23
ENDBRANCH   5   6
ENDBRANCH   4   5
ENDBRANCH   2   4
ENDBRANCH   1   2
BRANCH   1  26
HETATM   26  O4  UNL     1      16.503  25.742  17.287  1.00  0.00    -0.343 OA
ATOM     27  H4  UNL     1      15.602  25.706  16.986  1.00  0.00     0.219 HD
ENDBRANCH   1  26
BRANCH   1  28
HETATM   28  N3  UNL     1      18.110  24.321  18.028  1.00  0.00    -0.301 N
HETATM   29  C15 UNL     1      18.219  24.422  19.417  1.00  0.00     0.265 C
HETATM   30  O5  UNL     1      17.348  24.911  20.167  1.00  0.00    -0.269 OA
ATOM     31  H3  UNL     1      18.944  23.895  17.623  1.00  0.00     0.171 HD
BRANCH  29  32
HETATM   32  C16 UNL     1      19.518  23.867  19.995  1.00  0.00     0.177 C
HETATM   33  C31 UNL     1      19.346  23.147  21.272  1.00  0.00     0.056 C
HETATM   34  C32 UNL     1      18.681  22.004  20.492  1.00  0.00     0.008 C
HETATM   35  C33 UNL     1      19.579  22.379  19.351  1.00  0.00     0.056 C
BRANCH  32  36
HETATM   36  N4  UNL     1      20.711  24.512  19.679  1.00  0.00    -0.392 NA
HETATM   37  C17 UNL     1      21.855  25.125  19.376  1.00  0.00     0.322 C
HETATM   38  O6  UNL     1      23.019  24.582  19.274  1.00  0.00    -0.255 OA
BRANCH  37  39
HETATM   39  C18 UNL     1      21.884  26.638  19.095  1.00  0.00     0.332 C
BRANCH  39  40
HETATM   40  C19 UNL     1      22.157  27.257  20.416  1.00  0.00     0.021 C
HETATM   41  C20 UNL     1      21.055  28.178  20.936  1.00  0.00     0.012 C
HETATM   42  C21 UNL     1      22.689  26.339  21.485  1.00  0.00     0.012 C
ENDBRANCH  39  40
BRANCH  39  43
HETATM   43  N5  UNL     1      22.861  26.776  18.075  1.00  0.00     0.104 N
HETATM   44  C22 UNL     1      23.931  27.702  18.255  1.00  0.00     0.311 C
BRANCH  43  45
HETATM   45  C23 UNL     1      22.142  27.105  16.825  1.00  0.00     0.223 C
HETATM   46  C24 UNL     1      22.006  28.570  16.603  1.00  0.00     0.036 C
HETATM   47  C25 UNL     1      22.146  29.009  15.186  1.00  0.00     0.002 C
HETATM   48  C26 UNL     1      21.058  28.643  14.260  1.00  0.00     0.000 C
HETATM   49  C27 UNL     1      19.990  27.741  14.771  1.00  0.00     0.000 C
HETATM   50  C28 UNL     1      20.309  26.292  14.848  1.00  0.00     0.000 C
HETATM   51  C29 UNL     1      21.724  25.893  14.655  1.00  0.00     0.002 C
HETATM   52  C30 UNL     1      22.678  26.280  15.742  1.00  0.00     0.036 C
ENDBRANCH  43  45
ENDBRANCH  39  43
ENDBRANCH  37  39
ENDBRANCH  32  36
ENDBRANCH  29  32
ENDBRANCH   1  28
TORSDOF 18
ENDMDL