MODEL 4
REMARK VINA RESULT: -8.890706756      3.776     11.886
REMARK  15 active torsions:
REMARK  status: ('A' for Active; 'I' for Inactive)
REMARK    1  A    between atoms: C1_2  and  C2_4
REMARK    2  A    between atoms: C2_4  and  C3_5
REMARK    3  A    between atoms: C3_5  and  C4_6
REMARK    4  A    between atoms: C4_6  and  C5_7
REMARK    5  A    between atoms: C4_6  and  N3_15
REMARK    6  A    between atoms: C5_7  and  N2_8
REMARK       I    between atoms: N2_8  and  C6_10
REMARK    7  A    between atoms: C6_10  and  C7_12
REMARK       I    between atoms: N3_15  and  C10_16
REMARK    8  A    between atoms: N3_15  and  C24_32
REMARK    9  A    between atoms: C10_16  and  C11_18
REMARK   10  A    between atoms: C15_22  and  O4_23
REMARK   11  A    between atoms: O4_23  and  C16_24
REMARK   12  A    between atoms: C27_35  and  C28_36
REMARK       I    between atoms: C28_36  and  N4_38
REMARK   13  A    between atoms: N4_38  and  S1_40
REMARK   14  A    between atoms: S1_40  and  C29_43
REMARK   15  A    between atoms: C29_43  and  C30_44
ROOT
HETATM    1  N3  UNL     1      14.816  21.445  16.329  1.00  0.00    -0.305 N
HETATM    2  C10 UNL     1      14.037  21.444  15.129  1.00  0.00     0.229 C
HETATM    3  O3  UNL     1      14.192  22.406  14.285  1.00  0.00    -0.273 OA
ENDROOT
BRANCH   1   4
HETATM    4  C4  UNL     1      14.772  20.398  17.292  1.00  0.00     0.112 C
BRANCH   4   5
HETATM    5  C3  UNL     1      13.626  20.490  18.289  1.00  0.00     0.036 C
BRANCH   5   6
HETATM    6  C2  UNL     1      12.687  19.361  18.273  1.00  0.00     0.101 C
BRANCH   6   7
HETATM    7  C1  UNL     1      12.513  18.849  19.664  1.00  0.00     0.231 C
HETATM    8  N1  UNL     1      11.233  18.517  20.181  1.00  0.00    -0.062 NA
HETATM    9  O1  UNL     1      13.486  18.685  20.450  1.00  0.00    -0.277 OA
ENDBRANCH   6   7
ENDBRANCH   5   6
ENDBRANCH   4   5
BRANCH   4  10
HETATM   10  C5  UNL     1      16.057  20.069  17.980  1.00  0.00     0.148 C
BRANCH  10  11
HETATM   11  N2  UNL     1      16.454  20.912  19.048  1.00  0.00    -0.359 N
HETATM   12  C6  UNL     1      17.725  21.466  19.280  1.00  0.00     0.221 C
HETATM   13  O2  UNL     1      18.640  21.205  18.463  1.00  0.00    -0.273 OA
ATOM     14  H2  UNL     1      15.731  21.145  19.728  1.00  0.00     0.162 HD
BRANCH  12  15
HETATM   15  C7  UNL     1      18.066  22.349  20.438  1.00  0.00     0.078 A
HETATM   16  C8  UNL     1      17.977  23.811  20.162  1.00  0.00     0.015 A
HETATM   17  C9  UNL     1      19.297  23.163  20.284  1.00  0.00     0.015 A
ENDBRANCH  12  15
ENDBRANCH  10  11
ENDBRANCH   4  10
ENDBRANCH   1   4
BRANCH   1  18
HETATM   18  C24 UNL     1      15.651  22.624  16.439  1.00  0.00     0.080 A
HETATM   19  C25 UNL     1      15.447  23.786  17.106  1.00  0.00     0.039 A
HETATM   20  C26 UNL     1      16.418  24.730  17.040  1.00  0.00     0.027 A
HETATM   21  C27 UNL     1      17.529  24.424  16.299  1.00  0.00     0.075 A
HETATM   22  S2  UNL     1      17.182  22.852  15.729  1.00  0.00    -0.067 SA
BRANCH  21  23
HETATM   23  C28 UNL     1      18.721  25.253  16.066  1.00  0.00     0.271 C
HETATM   24  O5  UNL     1      19.346  25.145  14.990  1.00  0.00    -0.266 OA
HETATM   25  N4  UNL     1      19.110  26.148  17.086  1.00  0.00    -0.250 N
ATOM     26  H4  UNL     1      18.575  26.213  17.952  1.00  0.00     0.181 HD
BRANCH  25  27
HETATM   27  S1  UNL     1      20.506  27.127  16.841  1.00  0.00     0.233 S
HETATM   28  O6  UNL     1      21.717  26.243  16.722  1.00  0.00    -0.206 OA
HETATM   29  O7  UNL     1      20.682  28.013  18.021  1.00  0.00    -0.206 OA
BRANCH  27  30
HETATM   30  C29 UNL     1      20.277  28.085  15.341  1.00  0.00     0.168 C
BRANCH  30  31
HETATM   31  C30 UNL     1      21.522  27.928  14.502  1.00  0.00     0.001 A
HETATM   32  C31 UNL     1      22.509  29.045  14.656  1.00  0.00     0.006 A
HETATM   33  C32 UNL     1      21.789  28.913  13.373  1.00  0.00     0.006 A
ENDBRANCH  30  31
ENDBRANCH  27  30
ENDBRANCH  25  27
ENDBRANCH  21  23
ENDBRANCH   1  18
BRANCH   2  34
HETATM   34  C11 UNL     1      13.044  20.444  14.727  1.00  0.00     0.078 C
HETATM   35  C12 UNL     1      11.671  21.102  14.917  1.00  0.00     0.014 C
HETATM   36  C13 UNL     1      10.727  20.797  13.808  1.00  0.00     0.003 C
HETATM   37  C14 UNL     1      10.538  19.318  13.650  1.00  0.00     0.032 C
HETATM   38  C15 UNL     1      11.357  18.758  12.506  1.00  0.00     0.122 C
HETATM   39  C22 UNL     1      12.808  18.803  12.819  1.00  0.00     0.033 C
HETATM   40  C23 UNL     1      13.262  20.163  13.230  1.00  0.00     0.016 C
BRANCH  38  41
HETATM   41  O4  UNL     1      11.094  19.350  11.293  1.00  0.00    -0.381 OA
BRANCH  41  42
HETATM   42  C16 UNL     1       9.976  18.798  10.672  1.00  0.00     0.122 C
HETATM   43  C17 UNL     1      10.323  17.857   9.539  1.00  0.00     0.032 C
HETATM   44  C18 UNL     1       8.997  17.254   9.063  1.00  0.00     0.002 C
HETATM   45  C19 UNL     1       7.983  18.287   8.700  1.00  0.00     0.000 C
HETATM   46  C20 UNL     1       7.799  19.361   9.736  1.00  0.00     0.002 C
HETATM   47  C21 UNL     1       9.162  19.927  10.078  1.00  0.00     0.032 C
ENDBRANCH  41  42
ENDBRANCH  38  41
ENDBRANCH   2  34
TORSDOF 15
ENDMDL