MODEL 1
REMARK VINA RESULT: -8.135596691      0.000      0.000
REMARK  18 active torsions:
REMARK  status: ('A' for Active; 'I' for Inactive)
REMARK    1  A    between atoms: C2_2  and  O1_3
REMARK    2  A    between atoms: O1_3  and  C3_4
REMARK       I    between atoms: C3_4  and  N1_6
REMARK    3  A    between atoms: N2_9  and  C6_10
REMARK    4  A    between atoms: C6_10  and  N3_12
REMARK    5  A    between atoms: N3_12  and  C7_14
REMARK    6  A    between atoms: C7_14  and  C8_15
REMARK    7  A    between atoms: C8_15  and  C9_16
REMARK    8  A    between atoms: C9_16  and  C10_17
REMARK    9  A    between atoms: C10_17  and  C11_18
REMARK   10  A    between atoms: C11_18  and  C12_19
REMARK   11  A    between atoms: C12_19  and  S2_20
REMARK   12  A    between atoms: S2_20  and  S3_21
REMARK   13  A    between atoms: S3_21  and  C13_22
REMARK   14  A    between atoms: C13_22  and  C14_23
REMARK   15  A    between atoms: C14_23  and  N4_24
REMARK       I    between atoms: N4_24  and  C15_26
REMARK   16  A    between atoms: C15_26  and  C16_28
REMARK   17  A    between atoms: C19_32  and  C20_33
REMARK   18  A    between atoms: C20_33  and  C21_34
ROOT
HETATM    1  C13 UNL     1      14.980  22.178  15.444  1.00  0.00     0.105 C
ENDROOT
BRANCH   1   2
HETATM    2  S3  UNL     1      14.578  22.975  17.023  1.00  0.00    -0.096 SA
BRANCH   2   3
HETATM    3  S2  UNL     1      14.333  21.621  18.605  1.00  0.00    -0.098 SA
BRANCH   3   4
HETATM    4  C12 UNL     1      15.314  20.140  18.443  1.00  0.00     0.086 C
BRANCH   4   5
HETATM    5  C11 UNL     1      14.737  19.061  17.606  1.00  0.00     0.011 C
BRANCH   5   6
HETATM    6  C10 UNL     1      14.769  17.680  18.234  1.00  0.00     0.001 C
BRANCH   6   7
HETATM    7  C9  UNL     1      13.386  17.069  18.221  1.00  0.00     0.002 C
BRANCH   7   8
HETATM    8  C8  UNL     1      12.662  17.395  19.504  1.00  0.00     0.020 C
BRANCH   8   9
HETATM    9  C7  UNL     1      11.587  18.426  19.306  1.00  0.00     0.122 C
BRANCH   9  10
HETATM   10  N3  UNL     1      10.398  17.782  18.795  1.00  0.00    -0.367 N
ATOM     11  H3  UNL     1       9.784  17.305  19.455  1.00  0.00     0.161 HD
BRANCH  10  12
HETATM   12  C6  UNL     1      10.040  17.781  17.418  1.00  0.00     0.169 C
HETATM   13  S1  UNL     1       9.274  16.481  16.762  1.00  0.00    -0.041 SA
BRANCH  12  14
HETATM   14  N2  UNL     1      10.376  18.903  16.622  1.00  0.00    -0.355 N
HETATM   15  C5  UNL     1      11.453  18.799  15.673  1.00  0.00     0.145 C
HETATM   16  C4  UNL     1      11.475  19.988  14.729  1.00  0.00     0.148 C
HETATM   17  N1  UNL     1      10.105  20.320  14.409  1.00  0.00    -0.325 N
HETATM   18  C3  UNL     1       9.640  20.243  13.074  1.00  0.00     0.362 C
HETATM   19  C31 UNL     1       9.223  20.726  15.467  1.00  0.00     0.148 C
HETATM   20  O2  UNL     1       8.452  20.548  12.831  1.00  0.00    -0.238 OA
HETATM   21  C30 UNL     1       9.611  20.123  16.802  1.00  0.00     0.145 C
BRANCH  18  22
HETATM   22  O1  UNL     1      10.429  19.850  12.030  1.00  0.00    -0.304 OA
BRANCH  22  23
HETATM   23  C2  UNL     1      10.370  18.552  11.461  1.00  0.00     0.176 C
HETATM   24  C1  UNL     1      11.642  17.782  11.776  1.00  0.00     0.034 C
ENDBRANCH  22  23
ENDBRANCH  18  22
ENDBRANCH  12  14
ENDBRANCH  10  12
ENDBRANCH   9  10
ENDBRANCH   8   9
ENDBRANCH   7   8
ENDBRANCH   6   7
ENDBRANCH   5   6
ENDBRANCH   4   5
ENDBRANCH   3   4
ENDBRANCH   2   3
ENDBRANCH   1   2
BRANCH   1  25
HETATM   25  C14 UNL     1      16.429  22.252  15.120  1.00  0.00     0.133 C
BRANCH  25  26
HETATM   26  N4  UNL     1      17.204  22.695  16.225  1.00  0.00    -0.359 N
HETATM   27  C15 UNL     1      18.133  21.881  16.885  1.00  0.00     0.248 C
HETATM   28  O3  UNL     1      18.321  20.695  16.494  1.00  0.00    -0.271 OA
ATOM     29  H4  UNL     1      17.078  23.652  16.553  1.00  0.00     0.162 HD
BRANCH  27  30
HETATM   30  C16 UNL     1      18.874  22.449  18.039  1.00  0.00     0.284 C
HETATM   31  C17 UNL     1      17.873  23.061  18.994  1.00  0.00     0.123 C
HETATM   32  C18 UNL     1      18.777  24.038  19.703  1.00  0.00     0.160 C
HETATM   33  O4  UNL     1      18.664  24.367  20.841  1.00  0.00    -0.296 OA
HETATM   34  C19 UNL     1      19.780  24.464  18.712  1.00  0.00     0.256 C
HETATM   35  N6  UNL     1      19.680  23.562  17.576  1.00  0.00    -0.051 N
ATOM     36  H62 UNL     1      20.584  23.283  17.192  1.00  0.00     0.279 HD
ATOM     37  H61 UNL     1      19.322  24.004  16.730  1.00  0.00     0.279 HD
BRANCH  34  38
HETATM   38  C20 UNL     1      19.517  25.866  18.212  1.00  0.00     0.047 C
BRANCH  38  39
HETATM   39  C21 UNL     1      19.683  25.983  16.721  1.00  0.00     0.021 C
HETATM   40  C22 UNL     1      18.323  25.953  16.072  1.00  0.00     0.008 C
HETATM   41  C23 UNL     1      18.398  26.101  14.574  1.00  0.00     0.031 C
HETATM   42  C24 UNL     1      19.800  26.576  14.197  1.00  0.00     0.273 C
HETATM   43  N5  UNL     1      20.110  27.677  15.080  1.00  0.00     0.093 N
HETATM   44  C25 UNL     1      20.985  28.642  14.516  1.00  0.00     0.273 C
HETATM   45  C29 UNL     1      20.409  27.291  16.430  1.00  0.00     0.227 C
HETATM   46  C26 UNL     1      22.394  28.032  14.524  1.00  0.00     0.030 C
HETATM   47  C27 UNL     1      22.800  27.952  15.971  1.00  0.00     0.004 C
HETATM   48  C28 UNL     1      21.853  27.064  16.711  1.00  0.00     0.036 C
ENDBRANCH  38  39
ENDBRANCH  34  38
ENDBRANCH  27  30
ENDBRANCH  25  26
ENDBRANCH   1  25
TORSDOF 18
ENDMDL