MODEL 5
REMARK VINA RESULT: -8.282596484      2.104      5.129
REMARK  20 active torsions:
REMARK  status: ('A' for Active; 'I' for Inactive)
REMARK    1  A    between atoms: C2_2  and  C3_3
REMARK    2  A    between atoms: C3_3  and  C4_4
REMARK    3  A    between atoms: C4_4  and  C5_5
REMARK    4  A    between atoms: C5_5  and  N1_6
REMARK    5  A    between atoms: C5_5  and  C20_29
REMARK    6  A    between atoms: N1_6  and  C6_8
REMARK    7  A    between atoms: C6_8  and  C7_9
REMARK    8  A    between atoms: C6_8  and  C15_22
REMARK    9  A    between atoms: C7_9  and  O1_10
REMARK   10  A    between atoms: C7_9  and  N2_12
REMARK       I    between atoms: N2_12  and  C8_14
REMARK   11  A    between atoms: C8_14  and  C9_16
REMARK   12  A    between atoms: C9_16  and  C10_17
REMARK   13  A    between atoms: C9_16  and  C12_19
REMARK   14  A    between atoms: C15_22  and  O4_24
REMARK   15  A    between atoms: O4_24  and  C16_25
REMARK       I    between atoms: C20_29  and  N3_31
REMARK   16  A    between atoms: C23_34  and  C24_35
REMARK       I    between atoms: C24_35  and  N4_37
REMARK   17  A    between atoms: N4_37  and  C25_39
REMARK   18  A    between atoms: C25_39  and  C26_40
REMARK   19  A    between atoms: C25_39  and  C28_44
REMARK   20  A    between atoms: C26_40  and  O8_42
ROOT
HETATM    1  C5  UNL     1      18.266  24.428  18.388  1.00  0.00     0.170 C
ENDROOT
BRANCH   1   2
HETATM    2  C4  UNL     1      17.667  24.766  19.770  1.00  0.00     0.034 C
BRANCH   2   3
HETATM    3  C3  UNL     1      18.633  24.443  20.856  1.00  0.00     0.002 C
BRANCH   3   4
HETATM    4  C2  UNL     1      19.515  23.251  20.487  1.00  0.00    -0.004 C
HETATM    5  C1  UNL     1      18.877  22.012  21.130  1.00  0.00     0.005 C
ENDBRANCH   3   4
ENDBRANCH   2   3
ENDBRANCH   1   2
BRANCH   1   6
HETATM    6  N1  UNL     1      18.814  25.603  17.824  1.00  0.00    -0.390 N
ATOM      7  H1  UNL     1      18.287  26.466  17.959  1.00  0.00     0.155 HD
BRANCH   6   8
HETATM    8  C6  UNL     1      19.998  25.699  17.103  1.00  0.00     0.254 C
BRANCH   8   9
HETATM    9  C7  UNL     1      21.038  26.259  18.049  1.00  0.00     0.151 C
BRANCH   9  10
HETATM   10  O1  UNL     1      20.569  27.173  18.846  1.00  0.00    -0.347 OA
ATOM     11  H1  UNL     1      21.123  27.333  19.601  1.00  0.00     0.219 HD
ENDBRANCH   9  10
BRANCH   9  12
HETATM   12  N2  UNL     1      22.366  25.961  18.190  1.00  0.00    -0.309 N
HETATM   13  C8  UNL     1      23.390  26.674  18.799  1.00  0.00     0.228 C
HETATM   14  O2  UNL     1      23.219  27.797  19.298  1.00  0.00    -0.273 OA
ATOM     15  H2  UNL     1      22.649  25.070  17.782  1.00  0.00     0.170 HD
BRANCH  13  16
HETATM   16  C9  UNL     1      24.791  26.128  18.901  1.00  0.00     0.081 C
BRANCH  16  17
HETATM   17  C10 UNL     1      25.683  27.124  19.592  1.00  0.00     0.010 C
HETATM   18  C11 UNL     1      26.250  26.671  20.900  1.00  0.00     0.006 C
ENDBRANCH  16  17
BRANCH  16  19
HETATM   19  C12 UNL     1      25.320  25.880  17.521  1.00  0.00    -0.010 C
HETATM   20  C13 UNL     1      25.905  27.154  16.921  1.00  0.00     0.010 C
HETATM   21  C14 UNL     1      26.479  24.892  17.587  1.00  0.00     0.010 C
ENDBRANCH  16  19
ENDBRANCH  13  16
ENDBRANCH   9  12
ENDBRANCH   8   9
BRANCH   8  22
HETATM   22  C15 UNL     1      19.902  26.844  16.077  1.00  0.00     0.290 C
HETATM   23  O3  UNL     1      19.049  26.773  15.172  1.00  0.00    -0.262 OA
BRANCH  22  24
HETATM   24  O4  UNL     1      20.722  27.919  16.134  1.00  0.00    -0.309 OA
BRANCH  24  25
HETATM   25  C16 UNL     1      21.823  28.148  15.275  1.00  0.00     0.060 C
HETATM   26  C17 UNL     1      22.474  26.876  14.805  1.00  0.00     0.045 C
HETATM   27  C18 UNL     1      22.861  29.037  15.961  1.00  0.00     0.045 C
HETATM   28  C19 UNL     1      21.336  28.910  14.062  1.00  0.00     0.045 C
ENDBRANCH  24  25
ENDBRANCH  22  24
ENDBRANCH   8  22
ENDBRANCH   6   8
ENDBRANCH   1   6
BRANCH   1  29
HETATM   29  C20 UNL     1      17.150  23.864  17.547  1.00  0.00     0.243 C
HETATM   30  O5  UNL     1      16.529  24.687  16.840  1.00  0.00    -0.271 OA
HETATM   31  N3  UNL     1      16.742  22.520  17.476  1.00  0.00    -0.340 N
HETATM   32  C21 UNL     1      17.420  21.359  18.013  1.00  0.00     0.127 C
HETATM   33  C31 UNL     1      15.511  21.999  16.855  1.00  0.00     0.047 C
HETATM   34  C22 UNL     1      16.487  20.175  17.903  1.00  0.00     0.036 C
HETATM   35  C23 UNL     1      15.140  20.882  17.788  1.00  0.00     0.107 C
HETATM   36  C32 UNL     1      14.412  23.026  16.766  1.00  0.00     0.032 C
HETATM   37  C35 UNL     1      15.844  21.581  15.465  1.00  0.00     0.032 C
HETATM   38  C33 UNL     1      14.189  23.335  15.321  1.00  0.00     0.002 C
HETATM   39  C34 UNL     1      15.176  22.524  14.525  1.00  0.00     0.002 C
BRANCH  35  40
HETATM   40  C24 UNL     1      14.082  19.980  17.348  1.00  0.00     0.225 C
HETATM   41  O6  UNL     1      14.241  19.217  16.379  1.00  0.00    -0.273 OA
HETATM   42  N4  UNL     1      12.808  19.932  18.012  1.00  0.00    -0.346 N
ATOM     43  H4  UNL     1      12.645  20.542  18.813  1.00  0.00     0.163 HD
BRANCH  42  44
HETATM   44  C25 UNL     1      11.766  19.060  17.587  1.00  0.00     0.187 C
BRANCH  44  45
HETATM   45  C26 UNL     1      10.683  19.744  16.837  1.00  0.00     0.281 C
HETATM   46  O7  UNL     1       9.703  20.262  17.398  1.00  0.00    -0.263 OA
BRANCH  45  47
HETATM   47  O8  UNL     1      10.760  19.813  15.432  1.00  0.00    -0.325 OA
HETATM   48  C27 UNL     1      11.472  20.835  14.803  1.00  0.00     0.213 C
ENDBRANCH  45  47
ENDBRANCH  44  45
BRANCH  44  49
HETATM   49  C28 UNL     1      11.133  18.288  18.728  1.00  0.00     0.010 C
HETATM   50  C29 UNL     1      11.856  18.431  20.024  1.00  0.00     0.012 C
HETATM   51  C30 UNL     1      10.951  16.832  18.340  1.00  0.00     0.012 C
ENDBRANCH  44  49
ENDBRANCH  42  44
ENDBRANCH  35  40
ENDBRANCH   1  29
TORSDOF 20
ENDMDL