MODEL 2
REMARK VINA RESULT: -8.479535775      3.114      7.607
REMARK  17 active torsions:
REMARK  status: ('A' for Active; 'I' for Inactive)
REMARK    1  A    between atoms: C2_2  and  C3_3
REMARK    2  A    between atoms: C3_3  and  O1_4
REMARK    3  A    between atoms: O1_4  and  C4_5
REMARK    4  A    between atoms: C6_7  and  C7_8
REMARK    5  A    between atoms: C7_8  and  N1_9
REMARK    6  A    between atoms: C10_12  and  N2_13
REMARK       I    between atoms: N2_13  and  C11_15
REMARK    7  A    between atoms: C11_15  and  C12_17
REMARK    8  A    between atoms: C12_17  and  O3_18
REMARK    9  A    between atoms: O3_18  and  C13_19
REMARK   10  A    between atoms: C13_19  and  C14_21
REMARK   11  A    between atoms: C14_21  and  C15_22
REMARK   12  A    between atoms: N3_25  and  C18_26
REMARK   13  A    between atoms: C18_26  and  C19_27
REMARK       I    between atoms: C19_27  and  N4_29
REMARK   14  A    between atoms: N4_29  and  C20_31
REMARK   15  A    between atoms: C33_45  and  O7_46
REMARK   16  A    between atoms: C34_48  and  O8_49
REMARK   17  A    between atoms: O8_49  and  C35_50
ROOT
HETATM    1  N2  UNL     1      15.213  23.100  16.794  1.00  0.00    -0.346 N
ATOM      2  H2  UNL     1      14.646  23.908  16.536  1.00  0.00     0.163 HD
HETATM    3  C11 UNL     1      14.855  21.850  16.274  1.00  0.00     0.242 C
HETATM    4  O2  UNL     1      15.548  20.844  16.572  1.00  0.00    -0.271 OA
ENDROOT
BRANCH   3   5
HETATM    5  C12 UNL     1      13.700  21.677  15.388  1.00  0.00     0.281 C
BRANCH   5   6
HETATM    6  O3  UNL     1      13.493  20.377  14.919  1.00  0.00    -0.312 OA
BRANCH   6   7
HETATM    7  C13 UNL     1      13.729  19.972  13.620  1.00  0.00     0.259 C
HETATM    8  O4  UNL     1      14.922  20.011  13.194  1.00  0.00    -0.265 OA
BRANCH   7   9
HETATM    9  C14 UNL     1      12.689  19.490  12.680  1.00  0.00     0.117 C
BRANCH   9  10
HETATM   10  C15 UNL     1      11.347  19.799  13.298  1.00  0.00     0.025 C
HETATM   11  C16 UNL     1      10.271  19.944  12.230  1.00  0.00     0.037 C
HETATM   12  C17 UNL     1       9.021  19.796  13.106  1.00  0.00     0.273 C
HETATM   13  N3  UNL     1       9.357  18.854  14.148  1.00  0.00     0.097 N
HETATM   14  C30 UNL     1      10.786  18.607  14.070  1.00  0.00     0.278 C
BRANCH  13  15
HETATM   15  C18 UNL     1       9.106  19.454  15.434  1.00  0.00     0.374 C
BRANCH  15  16
HETATM   16  C19 UNL     1       9.872  18.837  16.534  1.00  0.00     0.246 C
HETATM   17  O5  UNL     1       9.483  17.762  17.001  1.00  0.00    -0.272 OA
HETATM   18  N4  UNL     1      11.028  19.469  17.044  1.00  0.00    -0.350 N
ATOM     19  H4  UNL     1      11.312  20.356  16.630  1.00  0.00     0.163 HD
BRANCH  18  20
HETATM   20  C20 UNL     1      11.832  18.932  18.118  1.00  0.00     0.034 C
HETATM   21  C21 UNL     1      12.492  17.666  17.587  1.00  0.00     0.035 C
HETATM   22  C22 UNL     1      13.330  17.034  18.664  1.00  0.00    -0.012 C
HETATM   23  C23 UNL     1      14.453  18.002  19.009  1.00  0.00     0.009 C
HETATM   24  C27 UNL     1      12.517  16.745  19.891  1.00  0.00     0.009 C
HETATM   25  C24 UNL     1      13.850  19.275  19.501  1.00  0.00    -0.012 C
HETATM   26  C25 UNL     1      13.049  18.996  20.754  1.00  0.00     0.009 C
HETATM   27  C29 UNL     1      12.927  19.893  18.476  1.00  0.00     0.035 C
HETATM   28  C26 UNL     1      11.939  18.051  20.412  1.00  0.00    -0.012 C
HETATM   29  C28 UNL     1      11.015  18.585  19.332  1.00  0.00     0.035 C
ENDBRANCH  18  20
ENDBRANCH  15  16
ENDBRANCH  13  15
ENDBRANCH   9  10
ENDBRANCH   7   9
ENDBRANCH   6   7
ENDBRANCH   5   6
ENDBRANCH   3   5
BRANCH   1  30
HETATM   30  C10 UNL     1      16.343  23.312  17.680  1.00  0.00     0.178 C
HETATM   31  C9  UNL     1      16.349  24.705  18.271  1.00  0.00     0.054 C
HETATM   32  C8  UNL     1      17.099  25.526  17.242  1.00  0.00     0.129 C
HETATM   33  N1  UNL     1      17.853  24.592  16.438  1.00  0.00    -0.346 N
HETATM   34  C31 UNL     1      17.633  23.301  16.959  1.00  0.00     0.242 C
HETATM   35  O6  UNL     1      18.448  22.338  16.800  1.00  0.00    -0.271 OA
BRANCH  33  36
HETATM   36  C7  UNL     1      18.677  24.992  15.312  1.00  0.00     0.164 C
BRANCH  36  37
HETATM   37  C6  UNL     1      19.712  25.971  15.715  1.00  0.00    -0.035 A
HETATM   38  C5  UNL     1      20.675  25.716  16.683  1.00  0.00     0.048 A
HETATM   39  C4  UNL     1      21.638  26.626  17.058  1.00  0.00     0.105 A
HETATM   40  C34 UNL     1      21.668  27.887  16.442  1.00  0.00     0.135 A
HETATM   41  C33 UNL     1      20.714  28.135  15.485  1.00  0.00     0.102 A
HETATM   42  C32 UNL     1      19.750  27.216  15.113  1.00  0.00     0.048 A
BRANCH  39  43
HETATM   43  O1  UNL     1      22.606  26.426  18.006  1.00  0.00    -0.348 OA
BRANCH  43  44
HETATM   44  C3  UNL     1      22.603  25.793  19.219  1.00  0.00     0.175 C
BRANCH  44  45
HETATM   45  C2  UNL     1      21.546  26.175  20.202  1.00  0.00     0.022 C
HETATM   46  C1  UNL     1      20.579  25.026  20.461  1.00  0.00     0.007 C
ENDBRANCH  44  45
ENDBRANCH  43  44
ENDBRANCH  39  43
BRANCH  40  47
HETATM   47  O8  UNL     1      22.623  28.836  16.791  1.00  0.00    -0.346 OA
BRANCH  47  48
HETATM   48  C35 UNL     1      23.888  28.827  16.116  1.00  0.00     0.171 C
HETATM   49  C36 UNL     1      24.072  30.054  15.282  1.00  0.00     0.034 C
ENDBRANCH  47  48
ENDBRANCH  40  47
BRANCH  41  50
HETATM   50  O7  UNL     1      20.717  29.376  14.855  1.00  0.00    -0.358 OA
ATOM     51  H7  UNL     1      21.523  29.669  14.445  1.00  0.00     0.217 HD
ENDBRANCH  41  50
ENDBRANCH  36  37
ENDBRANCH  33  36
ENDBRANCH   1  30
TORSDOF 17
ENDMDL