MODEL 3
REMARK VINA RESULT: -7.422338383      1.349      2.304
REMARK  5 active torsions:
REMARK  status: ('A' for Active; 'I' for Inactive)
REMARK    1  A    between atoms: C1_2  and  C2_3
REMARK       I    between atoms: C1_2  and  N2_16
REMARK    2  A    between atoms: C2_3  and  C3_4
REMARK    3  A    between atoms: C3_4  and  C4_5
REMARK    4  A    between atoms: C4_5  and  C5_6
REMARK    5  A    between atoms: C5_6  and  N1_7
ROOT
HETATM    1  C2  UNL     1      81.626  13.820  17.805  1.00  0.00     0.103 C
ENDROOT
BRANCH   1   2
HETATM    2  C1  UNL     1      82.685  13.495  16.840  1.00  0.00     0.223 C
HETATM    3  O1  UNL     1      82.838  14.235  15.806  1.00  0.00    -0.273 OA
HETATM    4  N2  UNL     1      83.558  12.387  17.007  1.00  0.00    -0.308 N
HETATM    5  C14 UNL     1      84.413  12.373  17.941  1.00  0.00     0.142 C
ATOM      6  H2  UNL     1      83.495  11.595  16.368  1.00  0.00     0.171 HD
HETATM    7  N3  UNL     1      84.546  13.442  18.857  1.00  0.00    -0.371 N
HETATM    8  S1  UNL     1      85.539  10.972  18.173  1.00  0.00    -0.094 SA
HETATM    9  C15 UNL     1      84.890  13.284  20.258  1.00  0.00     0.122 C
ATOM     10  H3  UNL     1      84.390  14.388  18.510  1.00  0.00     0.161 HD
HETATM   11  C16 UNL     1      85.103  11.862  20.657  1.00  0.00     0.030 C
HETATM   12  C17 UNL     1      86.227  11.206  19.859  1.00  0.00     0.084 C
ENDBRANCH   1   2
BRANCH   1  13
HETATM   13  C3  UNL     1      80.675  12.714  18.110  1.00  0.00     0.011 C
BRANCH  13  14
HETATM   14  C4  UNL     1      80.192  12.698  19.545  1.00  0.00     0.031 C
BRANCH  14  15
HETATM   15  C5  UNL     1      81.373  12.324  20.412  1.00  0.00     0.272 C
BRANCH  15  16
HETATM   16  N1  UNL     1      81.415  10.927  20.776  1.00  0.00     0.088 N
HETATM   17  C6  UNL     1      81.373  10.791  22.160  1.00  0.00     0.272 C
HETATM   18  C7  UNL     1      81.597   9.415  22.727  1.00  0.00     0.030 C
HETATM   19  C8  UNL     1      80.405   8.517  22.574  1.00  0.00     0.002 C
HETATM   20  C9  UNL     1      80.177   7.993  21.194  1.00  0.00     0.000 C
HETATM   21  C10 UNL     1      81.338   7.338  20.558  1.00  0.00     0.000 C
HETATM   22  C11 UNL     1      81.760   7.850  19.240  1.00  0.00     0.002 C
HETATM   23  C12 UNL     1      81.596   9.312  18.996  1.00  0.00     0.030 C
HETATM   24  C13 UNL     1      82.340  10.166  20.023  1.00  0.00     0.272 C
ENDBRANCH  15  16
ENDBRANCH  14  15
ENDBRANCH  13  14
ENDBRANCH   1  13
TORSDOF 5
ENDMDL