MODEL 5
REMARK VINA RESULT: -7.651753599      1.953      4.712
REMARK  7 active torsions:
REMARK  status: ('A' for Active; 'I' for Inactive)
REMARK    1  A    between atoms: C2_2  and  N1_4
REMARK    2  A    between atoms: N1_4  and  C4_5
REMARK    3  A    between atoms: N1_4  and  C12_18
REMARK    4  A    between atoms: C4_5  and  C5_6
REMARK    5  A    between atoms: C5_6  and  N2_7
REMARK    6  A    between atoms: C10_12  and  N3_13
REMARK    7  A    between atoms: C12_18  and  C15_21
ROOT
HETATM    1  N1  UNL     1      81.604   9.836  19.997  1.00  0.00    -0.399 N
ENDROOT
BRANCH   1   2
HETATM    2  C2  UNL     1      80.572   9.976  20.909  1.00  0.00     0.071 C
HETATM    3  C1  UNL     1      80.152   8.659  21.592  1.00  0.00     0.031 C
HETATM    4  C3  UNL     1      80.592  10.997  21.993  1.00  0.00     0.031 C
ENDBRANCH   1   2
BRANCH   1   5
HETATM    5  C4  UNL     1      82.434   8.733  20.346  1.00  0.00     0.148 C
BRANCH   5   6
HETATM    6  C5  UNL     1      83.736   9.073  21.028  1.00  0.00     0.291 C
BRANCH   6   7
HETATM    7  N2  UNL     1      84.264  10.327  20.497  1.00  0.00     0.092 N
HETATM    8  C6  UNL     1      84.509  11.287  21.538  1.00  0.00     0.272 C
HETATM    9  C7  UNL     1      84.028  12.627  21.058  1.00  0.00     0.030 C
HETATM   10  C8  UNL     1      85.062  13.365  20.269  1.00  0.00     0.004 C
HETATM   11  C9  UNL     1      85.546  12.571  19.065  1.00  0.00     0.034 C
HETATM   12  C10 UNL     1      86.274  11.338  19.508  1.00  0.00     0.211 C
HETATM   13  C11 UNL     1      85.313  10.179  19.559  1.00  0.00     0.305 C
BRANCH  12  14
HETATM   14  N3  UNL     1      87.263  11.026  18.466  1.00  0.00    -0.073 N
ATOM     15  H33 UNL     1      88.008  10.412  18.793  1.00  0.00     0.274 HD
ATOM     16  H32 UNL     1      86.898  10.412  17.739  1.00  0.00     0.274 HD
ATOM     17  H31 UNL     1      87.606  11.916  18.106  1.00  0.00     0.274 HD
ENDBRANCH  12  14
ENDBRANCH   6   7
ENDBRANCH   5   6
ENDBRANCH   1   5
BRANCH   1  18
HETATM   18  C12 UNL     1      81.435  10.131  18.626  1.00  0.00     0.024 C
HETATM   19  C13 UNL     1      79.970  10.256  18.237  1.00  0.00     0.038 C
HETATM   20  C14 UNL     1      81.966   9.000  17.776  1.00  0.00     0.038 C
BRANCH  18  21
HETATM   21  C15 UNL     1      82.114  11.417  18.239  1.00  0.00     0.013 C
HETATM   22  C16 UNL     1      82.373  11.566  16.757  1.00  0.00     0.007 C
HETATM   23  C17 UNL     1      83.210  12.864  16.659  1.00  0.00     0.000 C
HETATM   24  C18 UNL     1      82.193  13.994  16.671  1.00  0.00     0.000 C
HETATM   25  C19 UNL     1      80.958  13.518  17.422  1.00  0.00     0.000 C
HETATM   26  C20 UNL     1      81.345  12.661  18.612  1.00  0.00     0.007 C
ENDBRANCH  18  21
ENDBRANCH   1  18
TORSDOF 7
ENDMDL