MODEL 2
REMARK VINA RESULT: -8.489876919      1.707      4.613
REMARK  6 active torsions:
REMARK  status: ('A' for Active; 'I' for Inactive)
REMARK       I    between atoms: C1_2  and  N1_3
REMARK    1  A    between atoms: C1_2  and  O2_19
REMARK    2  A    between atoms: N1_3  and  C2_5
REMARK    3  A    between atoms: C2_5  and  C3_6
REMARK    4  A    between atoms: C3_6  and  C4_7
REMARK    5  A    between atoms: C4_7  and  N2_8
REMARK    6  A    between atoms: O2_19  and  C15_20
ROOT
HETATM    1  C3  UNL     1      82.558  13.653  16.542  1.00  0.00     0.050 C
ENDROOT
BRANCH   1   2
HETATM    2  C2  UNL     1      81.349  13.459  17.397  1.00  0.00     0.127 C
BRANCH   2   3
HETATM    3  N1  UNL     1      81.046  12.078  17.687  1.00  0.00    -0.337 N
HETATM    4  C1  UNL     1      80.633  11.767  19.011  1.00  0.00     0.360 C
HETATM    5  O1  UNL     1      80.529  12.647  19.905  1.00  0.00    -0.239 OA
ATOM      6  H1  UNL     1      81.125  11.355  16.972  1.00  0.00     0.164 HD
BRANCH   4   7
HETATM    7  O2  UNL     1      80.314  10.461  19.412  1.00  0.00    -0.299 OA
BRANCH   7   8
HETATM    8  C15 UNL     1      81.198   9.755  20.283  1.00  0.00     0.133 C
HETATM    9  C16 UNL     1      81.472   8.360  19.835  1.00  0.00     0.032 C
HETATM   10  C17 UNL     1      80.233   7.601  20.274  1.00  0.00     0.002 C
HETATM   11  C18 UNL     1      80.144   8.096  21.727  1.00  0.00     0.002 C
HETATM   12  C19 UNL     1      80.500   9.587  21.606  1.00  0.00     0.032 C
ENDBRANCH   7   8
ENDBRANCH   4   7
ENDBRANCH   2   3
ENDBRANCH   1   2
BRANCH   1  13
HETATM   13  C4  UNL     1      83.765  13.814  17.431  1.00  0.00     0.274 C
BRANCH  13  14
HETATM   14  N2  UNL     1      83.834  12.807  18.456  1.00  0.00     0.088 N
HETATM   15  C5  UNL     1      84.137  13.339  19.755  1.00  0.00     0.272 C
HETATM   16  C6  UNL     1      85.455  12.936  20.324  1.00  0.00     0.031 C
HETATM   17  C7  UNL     1      85.395  11.622  21.068  1.00  0.00     0.011 C
HETATM   18  C8  UNL     1      85.316  10.431  20.172  1.00  0.00    -0.039 C
HETATM   19  C9  UNL     1      84.820   9.262  21.040  1.00  0.00     0.009 C
HETATM   20  C12 UNL     1      86.678   9.893  19.789  1.00  0.00     0.009 C
HETATM   21  C13 UNL     1      84.368  10.553  19.030  1.00  0.00     0.039 C
HETATM   22  C10 UNL     1      86.003   9.037  21.963  1.00  0.00     0.001 C
HETATM   23  C11 UNL     1      87.198   9.249  21.062  1.00  0.00     0.001 C
HETATM   24  C14 UNL     1      84.641  11.675  18.088  1.00  0.00     0.273 C
ENDBRANCH  13  14
ENDBRANCH   1  13
TORSDOF 6
ENDMDL