MODEL 3
REMARK VINA RESULT: -7.873325864      1.982      4.442
REMARK  6 active torsions:
REMARK  status: ('A' for Active; 'I' for Inactive)
REMARK    1  A    between atoms: C2_2  and  C3_3
REMARK    2  A    between atoms: C3_3  and  S1_4
REMARK    3  A    between atoms: S1_4  and  C4_5
REMARK    4  A    between atoms: C4_5  and  C5_6
REMARK    5  A    between atoms: C8_9  and  C9_10
REMARK    6  A    between atoms: C13_15  and  O2_16
ROOT
HETATM    1  C5  UNL     1      82.369   8.878  20.785  1.00  0.00    -0.023 A
HETATM    2  C6  UNL     1      81.945   7.488  20.455  1.00  0.00     0.017 C
HETATM    3  C7  UNL     1      81.332   9.776  21.256  1.00  0.00     0.036 A
HETATM    4  C8  UNL     1      81.368  11.113  21.784  1.00  0.00    -0.018 C
HETATM    5  C10 UNL     1      81.103  12.215  21.109  1.00  0.00    -0.011 C
HETATM    6  C11 UNL     1      80.704  12.471  19.685  1.00  0.00     0.015 C
HETATM    7  C12 UNL     1      81.790  13.109  18.976  1.00  0.00     0.040 C
HETATM    8  C13 UNL     1      82.141  12.727  17.597  1.00  0.00     0.119 C
HETATM    9  C14 UNL     1      82.156  11.295  17.245  1.00  0.00     0.037 C
HETATM   10  C15 UNL     1      80.982  10.478  17.528  1.00  0.00    -0.007 C
HETATM   11  C16 UNL     1      79.689  11.228  17.728  1.00  0.00     0.011 C
HETATM   12  C17 UNL     1      80.018  11.274  19.173  1.00  0.00    -0.002 C
HETATM   13  C18 UNL     1      80.830  10.027  18.951  1.00  0.00    -0.000 C
HETATM   14  C19 UNL     1      81.974   9.919  19.828  1.00  0.00     0.009 A
ENDROOT
BRANCH   1  15
HETATM   15  C4  UNL     1      83.721   9.002  21.436  1.00  0.00     0.084 C
BRANCH  15  16
HETATM   16  S1  UNL     1      84.875  10.096  20.790  1.00  0.00    -0.168 SA
BRANCH  16  17
HETATM   17  C3  UNL     1      85.065  11.770  21.070  1.00  0.00     0.073 C
BRANCH  17  18
HETATM   18  C2  UNL     1      85.187  12.777  19.985  1.00  0.00     0.006 C
HETATM   19  C1  UNL     1      85.672  12.030  18.724  1.00  0.00     0.006 C
ENDBRANCH  17  18
ENDBRANCH  16  17
ENDBRANCH  15  16
ENDBRANCH   1  15
BRANCH   4  20
HETATM   20  C9  UNL     1      81.702  11.278  23.184  1.00  0.00     0.265 C
HETATM   21  O1  UNL     1      81.976  12.374  23.723  1.00  0.00    -0.302 OA
ENDBRANCH   4  20
BRANCH   8  22
HETATM   22  O2  UNL     1      81.466  13.517  16.627  1.00  0.00    -0.396 OA
ATOM     23  H2  UNL     1      80.538  13.601  16.810  1.00  0.00     0.210 HD
ENDBRANCH   8  22
TORSDOF 6
ENDMDL