MODEL 2
REMARK VINA RESULT: -7.274113856      2.539      5.018
REMARK  7 active torsions:
REMARK  status: ('A' for Active; 'I' for Inactive)
REMARK    1  A    between atoms: O1_2  and  C2_3
REMARK    2  A    between atoms: C2_3  and  C3_5
REMARK    3  A    between atoms: C3_5  and  C4_6
REMARK    4  A    between atoms: C5_7  and  O3_8
REMARK    5  A    between atoms: C13_17  and  C15_19
REMARK    6  A    between atoms: C15_19  and  N1_20
REMARK    7  A    between atoms: N1_20  and  C17_22
ROOT
HETATM    1  C4  UNL     1      84.356  10.254  19.089  1.00  0.00     0.034 C
HETATM    2  C5  UNL     1      84.548  10.398  20.547  1.00  0.00     0.127 C
HETATM    3  C6  UNL     1      83.861   9.276  21.232  1.00  0.00     0.066 C
HETATM    4  C7  UNL     1      82.668   8.872  20.497  1.00  0.00    -0.076 C
HETATM    5  C8  UNL     1      81.980   7.851  21.068  1.00  0.00    -0.023 C
HETATM    6  C9  UNL     1      80.757   7.422  20.336  1.00  0.00     0.027 C
HETATM    7  C10 UNL     1      79.925   8.663  20.139  1.00  0.00     0.004 C
HETATM    8  C11 UNL     1      80.684   9.797  19.488  1.00  0.00     0.010 C
HETATM    9  C12 UNL     1      82.112   9.393  19.246  1.00  0.00     0.025 C
HETATM   10  C13 UNL     1      82.967  10.407  18.538  1.00  0.00    -0.004 C
HETATM   11  C14 UNL     1      83.107   9.895  17.088  1.00  0.00     0.018 C
ENDROOT
BRANCH  10  12
HETATM   12  C15 UNL     1      82.515  11.803  18.636  1.00  0.00     0.282 C
BRANCH  12  13
HETATM   13  N1  UNL     1      81.931  12.444  17.485  1.00  0.00     0.088 N
HETATM   14  C16 UNL     1      80.959  13.471  17.985  1.00  0.00     0.310 C
BRANCH  13  15
HETATM   15  C17 UNL     1      82.825  13.289  16.716  1.00  0.00     0.214 C
HETATM   16  C18 UNL     1      83.902  13.934  17.599  1.00  0.00     0.042 C
HETATM   17  C19 UNL     1      81.965  14.433  16.177  1.00  0.00     0.042 C
ENDBRANCH  13  15
ENDBRANCH  12  13
ENDBRANCH  10  12
BRANCH   1  18
HETATM   18  C3  UNL     1      85.415  11.074  18.400  1.00  0.00     0.119 C
BRANCH  18  19
HETATM   19  C2  UNL     1      86.704  10.281  18.378  1.00  0.00     0.258 C
HETATM   20  O2  UNL     1      87.428  10.212  19.402  1.00  0.00    -0.265 OA
BRANCH  19  21
HETATM   21  O1  UNL     1      87.139   9.611  17.246  1.00  0.00    -0.326 OA
HETATM   22  C1  UNL     1      87.920  10.152  16.222  1.00  0.00     0.213 C
ENDBRANCH  19  21
ENDBRANCH  18  19
ENDBRANCH   1  18
BRANCH   2  23
HETATM   23  O3  UNL     1      84.220  11.584  21.131  1.00  0.00    -0.395 OA
ATOM     24  H3  UNL     1      84.691  12.365  20.866  1.00  0.00     0.210 HD
ENDBRANCH   2  23
TORSDOF 7
ENDMDL