MODEL 3
REMARK VINA RESULT: -7.034212833      1.981      4.005
REMARK  6 active torsions:
REMARK  status: ('A' for Active; 'I' for Inactive)
REMARK    1  A    between atoms: C2_2  and  C4_4
REMARK    2  A    between atoms: C4_4  and  C5_5
REMARK    3  A    between atoms: C5_5  and  C6_6
REMARK    4  A    between atoms: C6_6  and  N1_8
REMARK    5  A    between atoms: N1_8  and  C8_10
REMARK    6  A    between atoms: C9_13  and  N3_14
ROOT
HETATM    1  C8  UNL     1      82.265  10.192  19.168  1.00  0.00     0.125 A
HETATM    2  N2  UNL     1      83.214   9.619  19.908  1.00  0.00    -0.176 N
ATOM      3  H2  UNL     1      82.936   8.908  20.585  1.00  0.00     0.186 HD
HETATM    4  C9  UNL     1      84.528   9.932  19.810  1.00  0.00     0.682 A
HETATM    5  N4  UNL     1      84.895  10.877  18.912  1.00  0.00    -0.195 N
ATOM      6  H4  UNL     1      85.879  11.129  18.818  1.00  0.00     0.184 HD
HETATM    7  C14 UNL     1      83.974  11.488  18.140  1.00  0.00     0.036 A
HETATM    8  C15 UNL     1      82.673  11.167  18.248  1.00  0.00     0.009 A
HETATM    9  C16 UNL     1      81.514  11.723  17.501  1.00  0.00     0.044 C
HETATM   10  C17 UNL     1      81.521  13.213  17.774  1.00  0.00     0.005 C
HETATM   11  C18 UNL     1      82.578  13.902  16.938  1.00  0.00     0.001 C
HETATM   12  C19 UNL     1      83.931  13.835  17.554  1.00  0.00     0.006 C
HETATM   13  C20 UNL     1      84.611  12.506  17.224  1.00  0.00     0.058 C
ENDROOT
BRANCH   1  14
HETATM   14  N1  UNL     1      81.032   9.901  19.229  1.00  0.00    -0.371 N
ATOM     15  H1  UNL     1      80.547   9.901  18.333  1.00  0.00     0.161 HD
BRANCH  14  16
HETATM   16  C6  UNL     1      80.209   9.570  20.359  1.00  0.00     0.079 C
HETATM   17  C7  UNL     1      80.228   8.079  20.476  1.00  0.00     0.032 C
BRANCH  16  18
HETATM   18  C5  UNL     1      80.523  10.348  21.580  1.00  0.00     0.025 C
BRANCH  18  19
HETATM   19  C4  UNL     1      80.326  11.795  21.602  1.00  0.00     0.006 C
BRANCH  19  20
HETATM   20  C2  UNL     1      81.300  12.710  22.202  1.00  0.00    -0.023 C
HETATM   21  C1  UNL     1      81.807  12.119  23.546  1.00  0.00     0.009 C
HETATM   22  C3  UNL     1      82.554  12.947  21.398  1.00  0.00     0.009 C
ENDBRANCH  19  20
ENDBRANCH  18  19
ENDBRANCH  16  18
ENDBRANCH  14  16
ENDBRANCH   1  14
BRANCH   4  23
HETATM   23  N3  UNL     1      85.539   9.325  20.605  1.00  0.00    -0.218 N
HETATM   24  C10 UNL     1      85.237   8.468  21.739  1.00  0.00     0.141 C
HETATM   25  C11 UNL     1      86.209   9.025  22.773  1.00  0.00     0.022 C
HETATM   26  C12 UNL     1      87.390   9.559  21.955  1.00  0.00     0.022 C
HETATM   27  C13 UNL     1      86.980   9.376  20.505  1.00  0.00     0.141 C
ENDBRANCH   4  23
TORSDOF 6
ENDMDL