MODEL 2
REMARK VINA RESULT: -8.293437839      1.899      5.939
REMARK  5 active torsions:
REMARK  status: ('A' for Active; 'I' for Inactive)
REMARK    1  A    between atoms: C2_2  and  C3_3
REMARK    2  A    between atoms: C3_3  and  C4_4
REMARK    3  A    between atoms: C4_4  and  C5_5
REMARK    4  A    between atoms: C5_5  and  C6_6
REMARK    5  A    between atoms: C18_20  and  C19_21
ROOT
HETATM    1  C6  UNL     1      83.743  10.116  20.755  1.00  0.00    -0.037 C
HETATM    2  C7  UNL     1      84.316   8.793  21.248  1.00  0.00     0.015 C
HETATM    3  C8  UNL     1      84.988  11.042  20.791  1.00  0.00     0.045 C
HETATM    4  C9  UNL     1      84.911  12.234  19.932  1.00  0.00     0.229 C
HETATM    5  C10 UNL     1      86.222  12.400  19.141  1.00  0.00     0.073 C
HETATM    6  C11 UNL     1      86.311  11.308  18.106  1.00  0.00     0.058 C
HETATM    7  C12 UNL     1      86.359  11.856  16.696  1.00  0.00     0.045 C
HETATM    8  C13 UNL     1      87.660  10.611  18.336  1.00  0.00     0.045 C
HETATM    9  O1  UNL     1      85.346  10.343  18.215  1.00  0.00    -0.346 OA
HETATM   10  C14 UNL     1      84.058  10.799  18.336  1.00  0.00     0.360 C
HETATM   11  C15 UNL     1      83.358   9.842  19.315  1.00  0.00     0.073 C
HETATM   12  N1  UNL     1      83.892  12.067  18.941  1.00  0.00     0.117 N
HETATM   13  C16 UNL     1      83.635  13.163  18.102  1.00  0.00     0.314 C
ENDROOT
BRANCH   1  14
HETATM   14  C5  UNL     1      82.747  10.757  21.590  1.00  0.00     0.019 C
BRANCH  14  15
HETATM   15  C4  UNL     1      81.287  10.441  21.605  1.00  0.00    -0.025 A
HETATM   16  C17 UNL     1      80.520  11.681  22.138  1.00  0.00     0.026 A
HETATM   17  C18 UNL     1      80.244  11.122  20.823  1.00  0.00     0.096 A
BRANCH  15  18
HETATM   18  C3  UNL     1      80.854   9.136  22.221  1.00  0.00     0.010 C
BRANCH  18  19
HETATM   19  C2  UNL     1      80.174   8.096  21.455  1.00  0.00    -0.004 C
HETATM   20  C1  UNL     1      80.960   7.317  20.441  1.00  0.00     0.005 C
ENDBRANCH  18  19
ENDBRANCH  15  18
BRANCH  17  21
HETATM   21  C19 UNL     1      80.445  12.049  19.696  1.00  0.00     0.177 C
HETATM   22  O2  UNL     1      80.621  13.303  19.835  1.00  0.00    -0.648 OA
HETATM   23  O3  UNL     1      80.460  11.633  18.355  1.00  0.00    -0.648 OA
ENDBRANCH  17  21
ENDBRANCH  14  15
ENDBRANCH   1  14
TORSDOF 5
ENDMDL