MODEL 1
REMARK VINA RESULT: -8.371615808      0.000      0.000
REMARK  7 active torsions:
REMARK  status: ('A' for Active; 'I' for Inactive)
REMARK    1  A    between atoms: C2_2  and  O2_4
REMARK    2  A    between atoms: O2_4  and  C3_5
REMARK    3  A    between atoms: C3_5  and  C4_6
REMARK    4  A    between atoms: C4_6  and  C5_7
REMARK    5  A    between atoms: C5_7  and  C6_8
REMARK    6  A    between atoms: C6_8  and  C7_9
REMARK    7  A    between atoms: C6_8  and  C8_12
ROOT
HETATM    1  C8  UNL     1      81.660  10.825  21.547  1.00  0.00     0.004 C
HETATM    2  C9  UNL     1      81.695   9.587  22.345  1.00  0.00     0.007 C
HETATM    3  C10 UNL     1      80.703   8.530  21.900  1.00  0.00     0.010 C
HETATM    4  C11 UNL     1      80.902   8.036  20.509  1.00  0.00    -0.043 C
HETATM    5  C12 UNL     1      80.677   6.513  20.542  1.00  0.00     0.015 C
HETATM    6  C13 UNL     1      79.957   8.580  19.500  1.00  0.00     0.013 C
HETATM    7  C14 UNL     1      80.467   9.604  18.572  1.00  0.00    -0.013 C
HETATM    8  C15 UNL     1      81.912   9.432  18.156  1.00  0.00     0.010 C
HETATM    9  C16 UNL     1      82.569   9.549  19.548  1.00  0.00    -0.009 C
HETATM   10  C17 UNL     1      82.354   8.225  20.155  1.00  0.00     0.014 C
HETATM   11  C18 UNL     1      81.891  10.722  20.092  1.00  0.00    -0.005 C
HETATM   12  C19 UNL     1      80.578  10.923  19.340  1.00  0.00     0.010 C
ENDROOT
BRANCH   1  13
HETATM   13  C6  UNL     1      82.549  11.864  22.180  1.00  0.00     0.091 C
BRANCH  13  14
HETATM   14  C5  UNL     1      83.363  12.623  21.124  1.00  0.00     0.018 C
BRANCH  14  15
HETATM   15  C4  UNL     1      84.800  12.351  21.302  1.00  0.00     0.028 C
BRANCH  15  16
HETATM   16  C3  UNL     1      85.576  11.732  20.199  1.00  0.00     0.178 C
BRANCH  16  17
HETATM   17  O2  UNL     1      85.785  10.396  20.136  1.00  0.00    -0.322 OA
BRANCH  17  18
HETATM   18  C2  UNL     1      86.336   9.520  21.018  1.00  0.00     0.254 C
HETATM   19  C1  UNL     1      85.469   8.621  21.881  1.00  0.00     0.126 C
HETATM   20  O1  UNL     1      87.578   9.456  21.116  1.00  0.00    -0.266 OA
ENDBRANCH  17  18
ENDBRANCH  16  17
ENDBRANCH  15  16
ENDBRANCH  14  15
ENDBRANCH  13  14
BRANCH  13  21
HETATM   21  C7  UNL     1      81.897  12.764  23.125  1.00  0.00     0.177 C
HETATM   22  O3  UNL     1      80.821  13.348  22.839  1.00  0.00    -0.648 OA
HETATM   23  O4  UNL     1      82.447  13.001  24.367  1.00  0.00    -0.648 OA
ENDBRANCH  13  21
ENDBRANCH   1  13
TORSDOF 7
ENDMDL