MODEL 4
REMARK VINA RESULT: -8.427624744      1.553      5.485
REMARK  5 active torsions:
REMARK  status: ('A' for Active; 'I' for Inactive)
REMARK    1  A    between atoms: C2_2  and  C3_4
REMARK    2  A    between atoms: C3_4  and  N1_7
REMARK       I    between atoms: N1_7  and  C6_9
REMARK    3  A    between atoms: C6_9  and  C7_11
REMARK    4  A    between atoms: C12_16  and  C13_17
REMARK    5  A    between atoms: C13_17  and  C14_19
ROOT
HETATM    1  C7  UNL     1      85.367  10.427  20.285  1.00  0.00     0.089 C
HETATM    2  C8  UNL     1      86.781   9.982  19.878  1.00  0.00     0.015 C
HETATM    3  C9  UNL     1      87.563   9.403  21.003  1.00  0.00     0.001 C
HETATM    4  C10 UNL     1      86.685   9.201  22.191  1.00  0.00     0.001 C
HETATM    5  C11 UNL     1      85.453   8.418  21.752  1.00  0.00     0.013 C
HETATM    6  C12 UNL     1      84.588   9.282  20.834  1.00  0.00     0.069 C
ENDROOT
BRANCH   1   7
HETATM    7  C6  UNL     1      84.736  10.878  19.020  1.00  0.00     0.223 C
HETATM    8  N1  UNL     1      83.672  11.799  19.020  1.00  0.00    -0.345 N
ATOM      9  H1  UNL     1      83.336  12.159  19.913  1.00  0.00     0.163 HD
HETATM   10  O2  UNL     1      85.152  10.433  17.925  1.00  0.00    -0.273 OA
BRANCH   8  11
HETATM   11  C3  UNL     1      83.037  12.257  17.800  1.00  0.00     0.086 C
HETATM   12  C4  UNL     1      82.674  11.094  16.890  1.00  0.00     0.046 C
HETATM   13  C5  UNL     1      83.918  13.240  17.066  1.00  0.00     0.046 C
BRANCH  11  14
HETATM   14  C2  UNL     1      81.762  12.949  18.133  1.00  0.00     0.150 C
HETATM   15  C1  UNL     1      80.955  12.587  19.328  1.00  0.00     0.093 C
HETATM   16  O1  UNL     1      81.334  13.845  17.426  1.00  0.00    -0.296 OA
ENDBRANCH  11  14
ENDBRANCH   8  11
ENDBRANCH   1   7
BRANCH   6  17
HETATM   17  C13 UNL     1      83.345   9.677  21.463  1.00  0.00     0.136 C
HETATM   18  O3  UNL     1      83.338  10.847  21.940  1.00  0.00    -0.297 OA
BRANCH  17  19
HETATM   19  C14 UNL     1      82.090   8.953  21.644  1.00  0.00     0.056 C
HETATM   20  C15 UNL     1      80.874   9.809  21.649  1.00  0.00     0.012 C
HETATM   21  C16 UNL     1      79.659   9.047  21.085  1.00  0.00     0.001 C
HETATM   22  C17 UNL     1      79.802   8.800  19.613  1.00  0.00     0.000 C
HETATM   23  C18 UNL     1      81.273   8.592  19.323  1.00  0.00     0.001 C
HETATM   24  C19 UNL     1      81.865   7.903  20.538  1.00  0.00     0.012 C
ENDBRANCH  17  19
ENDBRANCH   6  17
TORSDOF 5
ENDMDL