MODEL 4
REMARK VINA RESULT: -8.361408089      1.435      3.782
REMARK  6 active torsions:
REMARK  status: ('A' for Active; 'I' for Inactive)
REMARK    1  A    between atoms: O1_2  and  C2_3
REMARK    2  A    between atoms: C2_3  and  C3_4
REMARK    3  A    between atoms: C3_4  and  O2_5
REMARK    4  A    between atoms: O2_5  and  C4_6
REMARK    5  A    between atoms: C20_22  and  C21_23
REMARK    6  A    between atoms: C21_23  and  O3_24
ROOT
HETATM    1  C4  UNL     1      84.291  12.022  18.559  1.00  0.00     0.132 C
HETATM    2  C5  UNL     1      85.502  12.121  19.485  1.00  0.00     0.023 C
HETATM    3  C6  UNL     1      86.204  10.784  19.497  1.00  0.00     0.013 C
HETATM    4  C7  UNL     1      85.143  10.378  20.530  1.00  0.00    -0.000 C
HETATM    5  C8  UNL     1      85.108  11.876  20.870  1.00  0.00     0.019 C
HETATM    6  C9  UNL     1      83.851  12.219  21.492  1.00  0.00    -0.017 C
HETATM    7  C10 UNL     1      82.745  11.503  21.493  1.00  0.00    -0.067 C
HETATM    8  C11 UNL     1      81.519  11.972  22.193  1.00  0.00    -0.024 C
HETATM    9  C12 UNL     1      80.369  12.374  21.378  1.00  0.00     0.019 C
HETATM   10  C13 UNL     1      81.860  13.177  23.095  1.00  0.00     0.019 C
HETATM   11  C14 UNL     1      81.173  10.835  23.159  1.00  0.00     0.013 C
HETATM   12  C15 UNL     1      82.234   9.798  23.283  1.00  0.00     0.002 C
HETATM   13  C16 UNL     1      82.768   9.177  22.037  1.00  0.00     0.014 C
HETATM   14  C17 UNL     1      82.687  10.167  20.840  1.00  0.00    -0.016 C
HETATM   15  C18 UNL     1      81.369   9.783  20.228  1.00  0.00     0.020 C
HETATM   16  C19 UNL     1      83.837   9.988  19.935  1.00  0.00     0.011 C
HETATM   17  C20 UNL     1      83.773  10.621  18.590  1.00  0.00     0.044 C
ENDROOT
BRANCH   1  18
HETATM   18  O2  UNL     1      84.492  12.603  17.370  1.00  0.00    -0.383 OA
BRANCH  18  19
HETATM   19  C3  UNL     1      83.985  13.795  17.037  1.00  0.00     0.194 C
BRANCH  19  20
HETATM   20  C2  UNL     1      82.743  13.863  16.200  1.00  0.00     0.193 C
BRANCH  20  21
HETATM   21  O1  UNL     1      81.621  14.329  16.861  1.00  0.00    -0.394 OA
HETATM   22  C1  UNL     1      81.136  13.514  17.851  1.00  0.00     0.201 C
ENDBRANCH  20  21
ENDBRANCH  19  20
ENDBRANCH  18  19
ENDBRANCH   1  18
BRANCH  17  23
HETATM   23  C21 UNL     1      82.632  10.476  17.694  1.00  0.00     0.171 C
BRANCH  23  24
HETATM   24  O3  UNL     1      83.184  10.257  16.379  1.00  0.00    -0.400 OA
ATOM     25  H3  UNL     1      82.443  10.091  15.808  1.00  0.00     0.209 HD
ENDBRANCH  23  24
ENDBRANCH  17  23
TORSDOF 6
ENDMDL