MODEL 4
REMARK VINA RESULT: -6.856589720      2.282      6.958
REMARK  8 active torsions:
REMARK  status: ('A' for Active; 'I' for Inactive)
REMARK    1  A    between atoms: C2_2  and  O1_3
REMARK    2  A    between atoms: O1_3  and  C3_4
REMARK    3  A    between atoms: C3_4  and  C4_6
REMARK    4  A    between atoms: N1_10  and  C6_11
REMARK    5  A    between atoms: C8_13  and  O3_14
REMARK    6  A    between atoms: C9_16  and  C10_17
REMARK    7  A    between atoms: C10_17  and  O4_18
REMARK    8  A    between atoms: C12_21  and  O5_22
ROOT
HETATM    1  C4  UNL     1     -30.354  13.428  77.573  1.00  0.00     0.134 A
HETATM    2  S1  UNL     1     -30.987  12.068  78.376  1.00  0.00    -0.050 SA
HETATM    3  C5  UNL     1     -29.553  11.146  78.460  1.00  0.00     0.148 A
HETATM    4  S2  UNL     1     -29.394   9.641  79.136  1.00  0.00    -0.052 SA
HETATM    5  N1  UNL     1     -28.644  11.913  77.869  1.00  0.00    -0.307 N
HETATM    6  C12 UNL     1     -29.040  13.089  77.407  1.00  0.00     0.168 A
ENDROOT
BRANCH   5   7
HETATM    7  C6  UNL     1     -27.257  11.473  77.734  1.00  0.00     0.096 C
HETATM    8  C7  UNL     1     -26.545  11.929  76.516  1.00  0.00     0.058 C
HETATM    9  C8  UNL     1     -25.159  11.317  76.802  1.00  0.00     0.126 C
HETATM   10  C9  UNL     1     -24.972  11.702  78.252  1.00  0.00     0.040 C
HETATM   11  C11 UNL     1     -26.362  11.867  78.852  1.00  0.00     0.035 C
BRANCH   9  12
HETATM   12  O3  UNL     1     -24.189  11.867  76.008  1.00  0.00    -0.395 OA
ATOM     13  H3  UNL     1     -24.142  11.437  75.162  1.00  0.00     0.210 HD
ENDBRANCH   9  12
BRANCH  10  14
HETATM   14  C10 UNL     1     -24.216  10.579  78.932  1.00  0.00     0.171 C
BRANCH  14  15
HETATM   15  O4  UNL     1     -23.900   9.591  78.016  1.00  0.00    -0.400 OA
ATOM     16  H4  UNL     1     -23.122   9.832  77.526  1.00  0.00     0.209 HD
ENDBRANCH  14  15
ENDBRANCH  10  14
ENDBRANCH   5   7
BRANCH   6  17
HETATM   17  O5  UNL     1     -28.193  14.036  76.747  1.00  0.00    -0.345 OA
ATOM     18  H5  UNL     1     -27.837  13.790  75.900  1.00  0.00     0.219 HD
ENDBRANCH   6  17
BRANCH   1  19
HETATM   19  C3  UNL     1     -31.066  14.657  77.164  1.00  0.00     0.304 C
HETATM   20  O2  UNL     1     -32.028  15.051  77.830  1.00  0.00    -0.258 OA
BRANCH  19  21
HETATM   21  O1  UNL     1     -30.658  15.351  76.051  1.00  0.00    -0.317 OA
BRANCH  21  22
HETATM   22  C2  UNL     1     -30.308  16.704  76.037  1.00  0.00     0.174 C
HETATM   23  C1  UNL     1     -28.979  16.939  75.322  1.00  0.00     0.034 C
ENDBRANCH  21  22
ENDBRANCH  19  21
ENDBRANCH   1  19
TORSDOF 8
ENDMDL