MODEL 4
REMARK VINA RESULT: -7.291057663      1.388      1.538
REMARK  7 active torsions:
REMARK  status: ('A' for Active; 'I' for Inactive)
REMARK    1  A    between atoms: C2_2  and  C4_4
REMARK    2  A    between atoms: C4_4  and  O1_5
REMARK    3  A    between atoms: O1_5  and  C5_6
REMARK    4  A    between atoms: C6_7  and  O2_8
REMARK    5  A    between atoms: C7_10  and  O3_11
REMARK    6  A    between atoms: C11_15  and  O4_16
REMARK    7  A    between atoms: N1_23  and  O7_25
ROOT
HETATM    1  C5  UNL     1     -26.002  12.167  78.565  1.00  0.00     0.141 A
HETATM    2  C6  UNL     1     -26.835  11.412  79.374  1.00  0.00     0.137 A
HETATM    3  C7  UNL     1     -28.201  11.611  79.309  1.00  0.00     0.119 A
HETATM    4  C9  UNL     1     -28.720  12.556  78.443  1.00  0.00     0.064 A
HETATM    5  C10 UNL     1     -27.907  13.335  77.614  1.00  0.00     0.123 A
HETATM    6  C11 UNL     1     -26.527  13.109  77.703  1.00  0.00     0.137 A
HETATM    7  O5  UNL     1     -28.463  14.280  76.752  1.00  0.00    -0.313 OA
HETATM    8  C12 UNL     1     -29.709  14.761  77.124  1.00  0.00     0.302 A
HETATM    9  O6  UNL     1     -30.931  14.634  76.688  1.00  0.00    -0.341 OA
HETATM   10  C13 UNL     1     -30.541  13.446  77.052  1.00  0.00     0.232 A
HETATM   11  C14 UNL     1     -30.168  12.831  78.321  1.00  0.00     0.081 C
HETATM   12  N1  UNL     1     -30.920  12.520  79.298  1.00  0.00    -0.270 N
ATOM     13  H1  UNL     1     -30.474  12.096  80.112  1.00  0.00     0.194 HD
ENDROOT
BRANCH   1  14
HETATM   14  O1  UNL     1     -24.626  11.991  78.607  1.00  0.00    -0.341 OA
BRANCH  14  15
HETATM   15  C4  UNL     1     -23.993  10.900  77.920  1.00  0.00     0.209 C
BRANCH  15  16
HETATM   16  C2  UNL     1     -22.705  10.632  78.615  1.00  0.00    -0.069 C
HETATM   17  C1  UNL     1     -22.517  10.955  79.887  1.00  0.00     0.016 C
HETATM   18  C3  UNL     1     -21.600   9.983  77.859  1.00  0.00     0.044 C
ENDBRANCH  15  16
ENDBRANCH  14  15
ENDBRANCH   1  14
BRANCH   2  19
HETATM   19  O2  UNL     1     -26.365  10.465  80.248  1.00  0.00    -0.356 OA
ATOM     20  H2  UNL     1     -25.545  10.559  80.718  1.00  0.00     0.218 HD
ENDBRANCH   2  19
BRANCH   6  21
HETATM   21  O4  UNL     1     -25.727  13.870  76.891  1.00  0.00    -0.356 OA
ATOM     22  H4  UNL     1     -25.607  14.801  77.038  1.00  0.00     0.218 HD
ENDBRANCH   6  21
BRANCH   3  23
HETATM   23  O3  UNL     1     -29.085  10.891  80.089  1.00  0.00    -0.352 OA
HETATM   24  C8  UNL     1     -29.428   9.558  79.678  1.00  0.00     0.210 C
ENDBRANCH   3  23
BRANCH  12  25
HETATM   25  O7  UNL     1     -32.260  12.701  79.351  1.00  0.00    -0.290 OA
ATOM     26  H7  UNL     1     -32.797  12.634  80.132  1.00  0.00     0.244 HD
ENDBRANCH  12  25
TORSDOF 7
ENDMDL