MODEL 4
REMARK VINA RESULT: -7.644462038      2.385      6.211
REMARK  8 active torsions:
REMARK  status: ('A' for Active; 'I' for Inactive)
REMARK    1  A    between atoms: O1_2  and  C2_3
REMARK    2  A    between atoms: C2_3  and  C3_5
REMARK    3  A    between atoms: C4_6  and  O3_7
REMARK    4  A    between atoms: C5_9  and  O4_10
REMARK       I    between atoms: N1_12  and  C6_13
REMARK    5  A    between atoms: C8_16  and  C9_17
REMARK    6  A    between atoms: C10_18  and  C11_19
REMARK    7  A    between atoms: C11_19  and  C12_24
REMARK    8  A    between atoms: N2_20  and  O6_22
ROOT
HETATM    1  C3  UNL     1     -31.740  14.083  77.681  1.00  0.00     0.104 A
HETATM    2  C4  UNL     1     -32.180  15.316  77.274  1.00  0.00     0.136 A
HETATM    3  C5  UNL     1     -31.170  15.970  76.668  1.00  0.00     0.185 A
HETATM    4  N1  UNL     1     -30.069  15.145  76.685  1.00  0.00    -0.259 N
HETATM    5  C6  UNL     1     -28.877  15.572  76.048  1.00  0.00     0.226 C
HETATM    6  C7  UNL     1     -28.758  16.957  75.465  1.00  0.00     0.118 C
HETATM    7  O5  UNL     1     -27.882  14.859  75.932  1.00  0.00    -0.273 OA
HETATM    8  C8  UNL     1     -30.373  13.986  77.297  1.00  0.00     0.064 A
ENDROOT
BRANCH   8   9
HETATM    9  C9  UNL     1     -29.623  12.778  77.519  1.00  0.00     0.033 C
HETATM   10  C10 UNL     1     -28.597  12.538  78.270  1.00  0.00     0.029 C
BRANCH  10  11
HETATM   11  C11 UNL     1     -27.976  11.225  78.341  1.00  0.00     0.035 C
HETATM   12  N2  UNL     1     -27.255  10.795  77.361  1.00  0.00    -0.273 N
ATOM     13  H2  UNL     1     -26.836   9.869  77.445  1.00  0.00     0.193 HD
BRANCH  12  14
HETATM   14  O6  UNL     1     -27.022  11.502  76.225  1.00  0.00    -0.290 OA
ATOM     15  H6  UNL     1     -27.282  12.407  76.101  1.00  0.00     0.244 HD
ENDBRANCH  12  14
BRANCH  11  16
HETATM   16  C12 UNL     1     -28.202  10.368  79.521  1.00  0.00     0.029 C
HETATM   17  C13 UNL     1     -29.498   9.597  79.294  1.00  0.00     0.016 C
HETATM   18  C14 UNL     1     -28.458  11.211  80.769  1.00  0.00     0.016 C
ENDBRANCH  11  16
ENDBRANCH  10  11
ENDBRANCH   8   9
BRANCH   1  19
HETATM   19  C2  UNL     1     -32.551  13.092  78.385  1.00  0.00     0.298 C
HETATM   20  O2  UNL     1     -33.140  13.295  79.461  1.00  0.00    -0.259 OA
BRANCH  19  21
HETATM   21  O1  UNL     1     -32.710  11.803  77.853  1.00  0.00    -0.322 OA
HETATM   22  C1  UNL     1     -33.116  10.717  78.666  1.00  0.00     0.213 C
ENDBRANCH  19  21
ENDBRANCH   1  19
BRANCH   2  23
HETATM   23  O3  UNL     1     -33.493  15.798  77.472  1.00  0.00    -0.356 OA
ATOM     24  H3  UNL     1     -33.702  16.673  77.776  1.00  0.00     0.218 HD
ENDBRANCH   2  23
BRANCH   3  25
HETATM   25  O4  UNL     1     -31.270  17.243  76.140  1.00  0.00    -0.344 OA
ATOM     26  H4  UNL     1     -31.157  17.452  75.220  1.00  0.00     0.219 HD
ENDBRANCH   3  25
TORSDOF 8
ENDMDL