MODEL 2
REMARK VINA RESULT: -6.599061530      2.169      2.840
REMARK  6 active torsions:
REMARK  status: ('A' for Active; 'I' for Inactive)
REMARK    1  A    between atoms: O1_2  and  C2_3
REMARK    2  A    between atoms: C2_3  and  C3_4
REMARK    3  A    between atoms: C3_4  and  O3_6
REMARK    4  A    between atoms: O3_6  and  C4_7
REMARK    5  A    between atoms: C5_8  and  N1_9
REMARK    6  A    between atoms: C8_18  and  N3_19
ROOT
HETATM    1  C4  UNL     1     -29.417  11.976  78.575  1.00  0.00     0.148 A
HETATM    2  C5  UNL     1     -29.047  10.698  78.878  1.00  0.00     0.180 A
HETATM    3  S1  UNL     1     -27.560  10.524  78.065  1.00  0.00    -0.058 SA
HETATM    4  C6  UNL     1     -27.445  12.074  77.361  1.00  0.00     0.076 A
HETATM    5  C7  UNL     1     -26.493  12.696  76.541  1.00  0.00     0.136 A
HETATM    6  S2  UNL     1     -25.187  11.852  76.110  1.00  0.00    -0.058 SA
HETATM    7  N2  UNL     1     -26.679  13.969  76.131  1.00  0.00    -0.180 N
ATOM      8  H2  UNL     1     -26.011  14.456  75.534  1.00  0.00     0.185 HD
HETATM    9  C8  UNL     1     -27.812  14.546  76.568  1.00  0.00     0.677 A
HETATM   10  N4  UNL     1     -28.726  13.989  77.340  1.00  0.00    -0.188 N
ATOM     11  H4  UNL     1     -29.550  14.526  77.610  1.00  0.00     0.184 HD
HETATM   12  C9  UNL     1     -28.586  12.692  77.787  1.00  0.00     0.106 A
ENDROOT
BRANCH   1  13
HETATM   13  O3  UNL     1     -30.646  12.473  79.101  1.00  0.00    -0.272 OA
BRANCH  13  14
HETATM   14  C3  UNL     1     -31.728  12.676  78.229  1.00  0.00     0.288 C
HETATM   15  O2  UNL     1     -32.112  11.671  77.579  1.00  0.00    -0.262 OA
BRANCH  14  16
HETATM   16  C2  UNL     1     -32.369  14.011  78.096  1.00  0.00     0.278 C
BRANCH  16  17
HETATM   17  O1  UNL     1     -31.353  14.943  77.920  1.00  0.00    -0.386 OA
HETATM   18  C1  UNL     1     -31.767  16.008  77.116  1.00  0.00     0.202 C
ENDBRANCH  16  17
ENDBRANCH  14  16
ENDBRANCH  13  14
ENDBRANCH   1  13
BRANCH   2  19
HETATM   19  N1  UNL     1     -29.713   9.728  79.672  1.00  0.00    -0.105 N
HETATM   20  O4  UNL     1     -30.600   9.040  79.158  1.00  0.00    -0.531 OA
HETATM   21  O5  UNL     1     -29.374   9.562  80.980  1.00  0.00    -0.531 OA
ENDBRANCH   2  19
BRANCH   9  22
HETATM   22  N3  UNL     1     -27.988  15.779  76.168  1.00  0.00    -0.234 N
ATOM     23  H32 UNL     1     -28.889  16.046  75.771  1.00  0.00     0.174 HD
ATOM     24  H31 UNL     1     -27.178  16.387  76.293  1.00  0.00     0.174 HD
ENDBRANCH   9  22
TORSDOF 6
ENDMDL