MODEL 1
REMARK VINA RESULT: -7.003875115      0.000      0.000
REMARK  5 active torsions:
REMARK  status: ('A' for Active; 'I' for Inactive)
REMARK    1  A    between atoms: O1_2  and  C2_3
REMARK    2  A    between atoms: C2_3  and  C3_4
REMARK    3  A    between atoms: C2_3  and  C7_11
REMARK    4  A    between atoms: C3_4  and  S1_5
REMARK    5  A    between atoms: S1_5  and  C4_6
REMARK       I    between atoms: C4_6  and  N1_8
ROOT
HETATM    1  C7  UNL     1     -28.652  11.288  78.646  1.00  0.00     0.156 A
HETATM    2  N2  UNL     1     -27.981  11.424  77.491  1.00  0.00    -0.331 N
ATOM      3  H2  UNL     1     -28.389  11.680  76.592  1.00  0.00     0.168 HD
HETATM    4  C8  UNL     1     -26.695  11.169  77.714  1.00  0.00     0.129 A
HETATM    5  C9  UNL     1     -26.599  10.870  79.057  1.00  0.00     0.177 A
HETATM    6  O3  UNL     1     -27.802  10.947  79.609  1.00  0.00    -0.276 OA
HETATM    7  N3  UNL     1     -25.334  10.546  79.619  1.00  0.00    -0.352 N
ATOM      8  H3  UNL     1     -25.260   9.953  80.445  1.00  0.00     0.163 HD
HETATM    9  C10 UNL     1     -24.153  11.090  78.977  1.00  0.00     0.247 C
HETATM   10  N4  UNL     1     -24.240  10.809  77.547  1.00  0.00    -0.359 N
ATOM     11  H4  UNL     1     -23.463  10.399  77.028  1.00  0.00     0.162 HD
HETATM   12  C11 UNL     1     -25.473  11.141  76.919  1.00  0.00     0.127 C
HETATM   13  N5  UNL     1     -25.519  11.416  75.651  1.00  0.00    -0.384 N
ATOM     14  H51 UNL     1     -24.664  11.396  75.095  1.00  0.00     0.157 HD
ATOM     15  H52 UNL     1     -26.403  11.654  75.201  1.00  0.00     0.157 HD
ENDROOT
BRANCH   1  16
HETATM   16  C2  UNL     1     -30.092  11.490  78.793  1.00  0.00     0.205 C
BRANCH  16  17
HETATM   17  O1  UNL     1     -30.831  10.323  78.773  1.00  0.00    -0.382 OA
HETATM   18  C1  UNL     1     -32.163  10.513  79.110  1.00  0.00     0.202 C
ENDBRANCH  16  17
BRANCH  16  19
HETATM   19  C3  UNL     1     -30.593  12.368  77.667  1.00  0.00     0.124 C
BRANCH  19  20
HETATM   20  S1  UNL     1     -30.335  14.081  78.139  1.00  0.00    -0.066 SA
BRANCH  20  21
HETATM   21  C4  UNL     1     -29.283  14.881  76.910  1.00  0.00     0.281 C
HETATM   22  O2  UNL     1     -28.150  14.392  76.638  1.00  0.00    -0.260 OA
HETATM   23  N1  UNL     1     -29.744  16.050  76.263  1.00  0.00    -0.352 N
HETATM   24  C5  UNL     1     -31.039  16.595  76.584  1.00  0.00     0.152 C
HETATM   25  C6  UNL     1     -28.911  16.690  75.284  1.00  0.00     0.152 C
ENDBRANCH  20  21
ENDBRANCH  19  20
ENDBRANCH  16  19
ENDBRANCH   1  16
TORSDOF 5
ENDMDL