MODEL 1
REMARK VINA RESULT: -7.250055141      0.000      0.000
REMARK  6 active torsions:
REMARK  status: ('A' for Active; 'I' for Inactive)
REMARK    1  A    between atoms: C1_2  and  C2_3
REMARK    2  A    between atoms: C1_2  and  O4_20
REMARK    3  A    between atoms: C2_3  and  N1_4
REMARK    4  A    between atoms: N2_6  and  C3_8
REMARK    5  A    between atoms: C4_9  and  O2_10
REMARK    6  A    between atoms: O4_20  and  C7_21
ROOT
HETATM    1  N1  UNL     1     -26.007  11.053  77.313  1.00  0.00    -0.326 N
ATOM      2  H1  UNL     1     -26.866  10.873  76.792  1.00  0.00     0.180 HD
HETATM    3  N2  UNL     1     -25.099  10.166  77.326  1.00  0.00    -0.296 N
ATOM      4  H2  UNL     1     -25.218   9.285  76.827  1.00  0.00     0.187 HD
ENDROOT
BRANCH   3   5
HETATM    5  C3  UNL     1     -23.913  10.439  78.057  1.00  0.00     0.167 A
HETATM    6  C4  UNL     1     -22.850  11.064  77.438  1.00  0.00     0.176 A
HETATM    7  N3  UNL     1     -21.760  11.292  78.187  1.00  0.00    -0.312 N
HETATM    8  C5  UNL     1     -21.654  10.950  79.482  1.00  0.00     0.180 A
ATOM      9  H3  UNL     1     -20.964  11.753  77.746  1.00  0.00     0.170 HD
HETATM   10  S1  UNL     1     -20.319  11.238  80.371  1.00  0.00    -0.040 SA
HETATM   11  N4  UNL     1     -22.686  10.337  80.106  1.00  0.00    -0.298 N
HETATM   12  C6  UNL     1     -23.797  10.093  79.379  1.00  0.00     0.280 A
ATOM     13  H4  UNL     1     -22.628  10.069  81.088  1.00  0.00     0.171 HD
HETATM   14  O3  UNL     1     -24.805   9.517  79.909  1.00  0.00    -0.265 OA
BRANCH   6  15
HETATM   15  O2  UNL     1     -22.958  11.418  76.102  1.00  0.00    -0.344 OA
ATOM     16  H2  UNL     1     -22.177  11.679  75.627  1.00  0.00     0.219 HD
ENDBRANCH   6  15
ENDBRANCH   3   5
BRANCH   1  17
HETATM   17  C2  UNL     1     -25.863  12.312  78.012  1.00  0.00     0.250 C
BRANCH  17  18
HETATM   18  C1  UNL     1     -25.987  13.466  77.084  1.00  0.00     0.278 C
HETATM   19  O1  UNL     1     -25.205  13.494  76.098  1.00  0.00    -0.263 OA
BRANCH  18  20
HETATM   20  O4  UNL     1     -26.915  14.478  77.279  1.00  0.00    -0.315 OA
BRANCH  20  21
HETATM   21  C7  UNL     1     -28.174  14.350  76.691  1.00  0.00     0.132 C
HETATM   22  C8  UNL     1     -29.196  14.147  77.790  1.00  0.00     0.032 C
HETATM   23  C9  UNL     1     -30.443  14.784  77.277  1.00  0.00     0.002 C
HETATM   24  C10 UNL     1     -30.144  15.357  75.912  1.00  0.00     0.002 C
HETATM   25  C11 UNL     1     -28.648  15.601  75.993  1.00  0.00     0.032 C
ENDBRANCH  20  21
ENDBRANCH  18  20
ENDBRANCH  17  18
ENDBRANCH   1  17
TORSDOF 6
ENDMDL