MODEL 2
REMARK VINA RESULT: -7.228738041      2.751      6.920
REMARK  5 active torsions:
REMARK  status: ('A' for Active; 'I' for Inactive)
REMARK    1  A    between atoms: C2_2  and  C3_3
REMARK    2  A    between atoms: C3_3  and  N1_4
REMARK    3  A    between atoms: C4_5  and  O1_6
REMARK    4  A    between atoms: C5_8  and  N2_9
REMARK    5  A    between atoms: N2_9  and  N3_11
ROOT
HETATM    1  N2  UNL     1     -25.309   9.499  77.344  1.00  0.00    -0.290 N
ATOM      2  H2  UNL     1     -26.011   8.771  77.211  1.00  0.00     0.187 HD
ENDROOT
BRANCH   1   3
HETATM    3  C5  UNL     1     -24.124   9.237  78.136  1.00  0.00     0.145 A
HETATM    4  C4  UNL     1     -23.396  10.139  78.866  1.00  0.00     0.181 A
HETATM    5  N1  UNL     1     -22.341   9.684  79.514  1.00  0.00    -0.286 N
HETATM    6  C11 UNL     1     -22.060   8.385  79.411  1.00  0.00     0.294 A
HETATM    7  S2  UNL     1     -23.280   7.785  78.400  1.00  0.00    -0.005 SA
HETATM    8  O2  UNL     1     -21.120   7.694  79.922  1.00  0.00    -0.259 OA
BRANCH   4   9
HETATM    9  O1  UNL     1     -23.791  11.520  78.907  1.00  0.00    -0.344 OA
ATOM     10  H1  UNL     1     -24.702  11.790  78.912  1.00  0.00     0.219 HD
ENDBRANCH   4   9
BRANCH   5  11
HETATM   11  C3  UNL     1     -21.507  10.616  80.341  1.00  0.00     0.135 C
BRANCH  11  12
HETATM   12  C2  UNL     1     -20.556  11.388  79.508  1.00  0.00     0.016 C
HETATM   13  C1  UNL     1     -19.510  12.117  80.335  1.00  0.00     0.006 C
ENDBRANCH  11  12
ENDBRANCH   5  11
ENDBRANCH   1   3
BRANCH   1  14
HETATM   14  N3  UNL     1     -25.477  10.746  76.771  1.00  0.00    -0.306 N
HETATM   15  C6  UNL     1     -26.492  11.523  76.925  1.00  0.00     0.038 C
HETATM   16  C7  UNL     1     -27.609  11.077  77.792  1.00  0.00     0.066 C
HETATM   17  C10 UNL     1     -26.501  12.807  76.232  1.00  0.00     0.274 A
HETATM   18  C8  UNL     1     -27.632  12.031  78.982  1.00  0.00     0.082 C
HETATM   19  S1  UNL     1     -28.125  13.648  78.299  1.00  0.00    -0.133 SA
HETATM   20  C9  UNL     1     -27.248  13.891  76.764  1.00  0.00     0.284 A
HETATM   21  N4  UNL     1     -25.796  13.970  76.892  1.00  0.00    -0.048 N
ATOM     22  H42 UNL     1     -25.064  14.635  76.640  1.00  0.00     0.279 HD
ATOM     23  H41 UNL     1     -25.123  14.098  77.647  1.00  0.00     0.279 HD
ATOM     24  H3  UNL     1     -24.726  11.083  76.169  1.00  0.00     0.186 HD
ENDBRANCH   1  14
TORSDOF 5
ENDMDL