MODEL 5
REMARK VINA RESULT: -6.872380064      3.170      6.441
REMARK  11 active torsions:
REMARK  status: ('A' for Active; 'I' for Inactive)
REMARK    1  A    between atoms: C2_2  and  O1_5
REMARK    2  A    between atoms: O1_5  and  C5_6
REMARK    3  A    between atoms: C5_6  and  O3_8
REMARK    4  A    between atoms: O3_8  and  C6_9
REMARK    5  A    between atoms: C6_9  and  C7_10
REMARK    6  A    between atoms: C9_12  and  O4_13
REMARK    7  A    between atoms: C10_15  and  C11_16
REMARK    8  A    between atoms: C11_16  and  O5_17
REMARK    9  A    between atoms: N1_19  and  O6_21
REMARK   10  A    between atoms: C12_23  and  O7_24
REMARK   11  A    between atoms: O7_24  and  O8_25
ROOT
HETATM    1  C7  UNL     1     -27.328  11.882  78.023  1.00  0.00     0.068 A
HETATM    2  C8  UNL     1     -27.103  11.478  79.410  1.00  0.00     0.015 A
HETATM    3  C9  UNL     1     -26.081  10.665  79.506  1.00  0.00     0.054 A
HETATM    4  C10 UNL     1     -25.439  10.384  78.186  1.00  0.00     0.151 A
HETATM    5  C12 UNL     1     -26.305  11.107  77.224  1.00  0.00     0.188 A
ENDROOT
BRANCH   1   6
HETATM    6  C6  UNL     1     -27.018  13.358  77.797  1.00  0.00     0.192 C
BRANCH   6   7
HETATM    7  O3  UNL     1     -27.984  14.229  78.272  1.00  0.00    -0.297 OA
BRANCH   7   8
HETATM    8  C5  UNL     1     -29.308  14.155  77.919  1.00  0.00     0.407 C
HETATM    9  O2  UNL     1     -30.184  13.902  78.755  1.00  0.00    -0.229 OA
BRANCH   8  10
HETATM   10  O1  UNL     1     -29.756  14.356  76.619  1.00  0.00    -0.288 OA
BRANCH  10  11
HETATM   11  C2  UNL     1     -30.030  15.572  76.032  1.00  0.00     0.062 C
HETATM   12  C1  UNL     1     -30.762  15.294  74.712  1.00  0.00     0.046 C
HETATM   13  C3  UNL     1     -28.757  16.316  75.633  1.00  0.00     0.046 C
HETATM   14  C4  UNL     1     -30.877  16.511  76.815  1.00  0.00     0.046 C
ENDBRANCH  10  11
ENDBRANCH   8  10
ENDBRANCH   7   8
ENDBRANCH   6   7
ENDBRANCH   1   6
BRANCH   5  15
HETATM   15  O7  UNL     1     -25.596  11.919  76.364  1.00  0.00    -0.236 OA
BRANCH  15  16
HETATM   16  O8  UNL     1     -25.348  11.358  75.200  1.00  0.00    -0.250 OA
ATOM     17  H8  UNL     1     -24.440  11.102  75.090  1.00  0.00     0.253 HD
ENDBRANCH  15  16
ENDBRANCH   5  15
BRANCH   3  18
HETATM   18  O4  UNL     1     -25.577  10.077  80.688  1.00  0.00    -0.364 OA
ATOM     19  H4  UNL     1     -24.996   9.329  80.747  1.00  0.00     0.217 HD
ENDBRANCH   3  18
BRANCH   4  20
HETATM   20  C11 UNL     1     -24.049  10.815  78.268  1.00  0.00     0.148 C
HETATM   21  N1  UNL     1     -23.165  10.575  77.403  1.00  0.00    -0.250 N
ATOM     22  H1  UNL     1     -23.432  10.038  76.578  1.00  0.00     0.196 HD
BRANCH  20  23
HETATM   23  O5  UNL     1     -23.673  11.553  79.401  1.00  0.00    -0.347 OA
ATOM     24  H5  UNL     1     -23.161  11.102  80.062  1.00  0.00     0.219 HD
ENDBRANCH  20  23
BRANCH  21  25
HETATM   25  O6  UNL     1     -21.872  10.992  77.508  1.00  0.00    -0.288 OA
ATOM     26  H6  UNL     1     -21.494  11.677  76.970  1.00  0.00     0.244 HD
ENDBRANCH  21  25
ENDBRANCH   4  20
TORSDOF 11
ENDMDL