MODEL 2
REMARK VINA RESULT: -7.796500232      0.752      1.059
REMARK  5 active torsions:
REMARK  status: ('A' for Active; 'I' for Inactive)
REMARK    1  A    between atoms: C2_2  and  O1_3
REMARK    2  A    between atoms: O1_3  and  C3_4
REMARK    3  A    between atoms: C3_4  and  C4_6
REMARK    4  A    between atoms: C9_16  and  C10_17
REMARK       I    between atoms: N3_18  and  C11_20
REMARK    5  A    between atoms: C11_20  and  O4_22
ROOT
HETATM    1  C4  UNL     1     -28.378  13.242  77.862  1.00  0.00     0.081 A
HETATM    2  C5  UNL     1     -29.276  13.048  78.892  1.00  0.00     0.106 A
HETATM    3  N1  UNL     1     -30.553  13.690  79.098  1.00  0.00    -0.093 NA
HETATM    4  S1  UNL     1     -28.506  11.868  79.857  1.00  0.00    -0.056 SA
HETATM    5  C6  UNL     1     -27.090  11.653  78.947  1.00  0.00     0.082 A
HETATM    6  C7  UNL     1     -27.247  12.517  77.893  1.00  0.00     0.020 A
HETATM    7  C8  UNL     1     -26.049  12.446  76.967  1.00  0.00     0.277 C
HETATM    8  N2  UNL     1     -25.667  11.078  76.690  1.00  0.00    -0.046 N
ATOM      9  H21 UNL     1     -25.005  11.028  75.914  1.00  0.00     0.280 HD
ATOM     10  H22 UNL     1     -26.438  10.554  76.276  1.00  0.00     0.280 HD
HETATM   11  C9  UNL     1     -25.147  10.410  77.873  1.00  0.00     0.324 C
HETATM   12  N4  UNL     1     -25.893  10.850  79.034  1.00  0.00    -0.352 N
ATOM     13  H4  UNL     1     -25.556  10.580  79.958  1.00  0.00     0.162 HD
ENDROOT
BRANCH  11  14
HETATM   14  C10 UNL     1     -23.700  10.612  78.025  1.00  0.00     0.120 C
HETATM   15  N3  UNL     1     -23.196  10.748  79.199  1.00  0.00    -0.313 N
HETATM   16  C11 UNL     1     -21.806  10.949  79.430  1.00  0.00     0.363 C
ATOM     17  H3  UNL     1     -23.821  10.711  80.005  1.00  0.00     0.170 HD
HETATM   18  O3  UNL     1     -21.121  11.482  78.520  1.00  0.00    -0.238 OA
BRANCH  16  19
HETATM   19  O4  UNL     1     -21.186  10.582  80.610  1.00  0.00    -0.309 OA
HETATM   20  C12 UNL     1     -20.046   9.719  80.646  1.00  0.00     0.215 C
ENDBRANCH  16  19
ENDBRANCH  11  14
BRANCH   1  21
HETATM   21  C3  UNL     1     -28.717  14.227  76.806  1.00  0.00     0.296 C
HETATM   22  O2  UNL     1     -27.892  15.077  76.432  1.00  0.00    -0.259 OA
BRANCH  21  23
HETATM   23  O1  UNL     1     -29.962  14.247  76.190  1.00  0.00    -0.318 OA
BRANCH  23  24
HETATM   24  C2  UNL     1     -30.407  15.416  75.528  1.00  0.00     0.174 C
HETATM   25  C1  UNL     1     -31.146  16.247  76.563  1.00  0.00     0.034 C
ENDBRANCH  23  24
ENDBRANCH  21  23
ENDBRANCH   1  21
TORSDOF 5
ENDMDL