MODEL 2
REMARK VINA RESULT: -6.259431248      2.319      4.830
REMARK  9 active torsions:
REMARK  status: ('A' for Active; 'I' for Inactive)
REMARK    1  A    between atoms: C2_2  and  O1_3
REMARK    2  A    between atoms: O1_3  and  C3_4
REMARK    3  A    between atoms: C3_4  and  C4_6
REMARK    4  A    between atoms: C5_7  and  O3_8
REMARK    5  A    between atoms: N2_15  and  O4_17
REMARK    6  A    between atoms: N3_19  and  C9_20
REMARK    7  A    between atoms: C9_20  and  O5_21
REMARK    8  A    between atoms: C9_20  and  O6_23
REMARK    9  A    between atoms: O6_23  and  C10_24
ROOT
HETATM    1  C4  UNL     1     -29.698  13.225  77.846  1.00  0.00     0.172 A
HETATM    2  C5  UNL     1     -28.271  13.225  77.830  1.00  0.00     0.139 A
HETATM    3  C6  UNL     1     -27.609  12.122  78.263  1.00  0.00     0.152 A
HETATM    4  S1  UNL     1     -25.963  12.085  78.262  1.00  0.00    -0.057 SA
HETATM    5  N1  UNL     1     -28.255  11.040  78.700  1.00  0.00    -0.176 N
ATOM      6  H1  UNL     1     -27.732  10.224  79.019  1.00  0.00     0.185 HD
HETATM    7  C7  UNL     1     -29.578  11.031  78.717  1.00  0.00     0.714 A
HETATM    8  N2  UNL     1     -30.254  10.013  79.130  1.00  0.00    -0.096 N
ATOM      9  H2  UNL     1     -31.272  10.077  79.116  1.00  0.00     0.213 HD
HETATM   10  N3  UNL     1     -30.315  12.132  78.287  1.00  0.00    -0.093 N
ENDROOT
BRANCH  10  11
HETATM   11  C9  UNL     1     -31.705  12.012  78.348  1.00  0.00     0.284 C
BRANCH  11  12
HETATM   12  O5  UNL     1     -32.325  12.550  79.374  1.00  0.00    -0.326 OA
ATOM     13  H5  UNL     1     -33.242  12.339  79.501  1.00  0.00     0.221 HD
ENDBRANCH  11  12
BRANCH  11  14
HETATM   14  O6  UNL     1     -32.587  11.425  77.523  1.00  0.00    -0.316 OA
BRANCH  14  15
HETATM   15  C10 UNL     1     -33.796  10.786  77.978  1.00  0.00     0.175 C
HETATM   16  C11 UNL     1     -34.979  11.204  77.143  1.00  0.00     0.034 C
ENDBRANCH  14  15
ENDBRANCH  11  14
ENDBRANCH  10  11
BRANCH   1  17
HETATM   17  C3  UNL     1     -30.351  14.425  77.371  1.00  0.00     0.314 C
HETATM   18  O2  UNL     1     -31.130  15.202  77.900  1.00  0.00    -0.257 OA
BRANCH  17  19
HETATM   19  O1  UNL     1     -30.067  14.833  76.027  1.00  0.00    -0.317 OA
BRANCH  19  20
HETATM   20  C2  UNL     1     -30.211  16.197  75.663  1.00  0.00     0.175 C
HETATM   21  C1  UNL     1     -28.925  16.870  75.321  1.00  0.00     0.034 C
ENDBRANCH  19  20
ENDBRANCH  17  19
ENDBRANCH   1  17
BRANCH   2  22
HETATM   22  O3  UNL     1     -27.611  14.356  77.374  1.00  0.00    -0.356 OA
ATOM     23  H3  UNL     1     -26.664  14.334  77.304  1.00  0.00     0.218 HD
ENDBRANCH   2  22
BRANCH   8  24
HETATM   24  O4  UNL     1     -29.697   8.865  79.581  1.00  0.00    -0.271 OA
HETATM   25  C8  UNL     1     -30.492   7.676  79.502  1.00  0.00     0.238 C
ENDBRANCH   8  24
TORSDOF 9
ENDMDL