MODEL 5
REMARK VINA RESULT: -6.510017992      1.726      2.550
REMARK  7 active torsions:
REMARK  status: ('A' for Active; 'I' for Inactive)
REMARK    1  A    between atoms: C2_2  and  N1_3
REMARK    2  A    between atoms: C2_2  and  C3_7
REMARK    3  A    between atoms: N2_9  and  C5_10
REMARK    4  A    between atoms: C7_12  and  N3_13
REMARK    5  A    between atoms: C8_18  and  N5_19
REMARK    6  A    between atoms: N7_26  and  C13_27
REMARK    7  A    between atoms: C15_29  and  N8_30
ROOT
HETATM    1  C3  UNL     1       7.789  -2.218  54.661  1.00  0.00     0.134 C
HETATM    2  C4  UNL     1       7.831  -3.222  53.558  1.00  0.00     0.152 C
HETATM    3  N2  UNL     1       8.904  -2.957  52.599  1.00  0.00    -0.363 N
HETATM    4  C11 UNL     1       9.507  -1.683  52.416  1.00  0.00     0.144 C
HETATM    5  C12 UNL     1       8.818  -0.537  53.055  1.00  0.00     0.145 C
HETATM    6  N7  UNL     1       7.987  -0.899  54.172  1.00  0.00    -0.357 N
ENDROOT
BRANCH   3   7
HETATM    7  C5  UNL     1       9.332  -4.073  51.833  1.00  0.00     0.122 A
HETATM    8  C6  UNL     1      10.652  -4.458  51.707  1.00  0.00     0.097 A
HETATM    9  C7  UNL     1      11.006  -5.554  50.945  1.00  0.00     0.118 A
HETATM   10  N4  UNL     1      10.049  -6.254  50.319  1.00  0.00    -0.177 N
HETATM   11  C8  UNL     1       8.752  -5.889  50.431  1.00  0.00     0.683 A
ATOM     12  H4  UNL     1      10.301  -7.065  49.756  1.00  0.00     0.185 HD
HETATM   13  N6  UNL     1       8.434  -4.824  51.176  1.00  0.00    -0.177 N
ATOM     14  H6  UNL     1       7.450  -4.567  51.249  1.00  0.00     0.186 HD
BRANCH   9  15
HETATM   15  N3  UNL     1      12.258  -5.920  50.837  1.00  0.00    -0.385 N
ATOM     16  H32 UNL     1      12.996  -5.331  51.223  1.00  0.00     0.157 HD
ATOM     17  H31 UNL     1      12.510  -6.788  50.363  1.00  0.00     0.157 HD
ENDBRANCH   9  15
BRANCH  11  18
HETATM   18  N5  UNL     1       7.718  -6.590  49.763  1.00  0.00    -0.214 N
HETATM   19  C9  UNL     1       6.360  -6.797  49.298  1.00  0.00     0.161 A
HETATM   20  C10 UNL     1       7.438  -7.798  48.934  1.00  0.00     0.161 A
ENDBRANCH  11  18
ENDBRANCH   3   7
BRANCH   1  21
HETATM   21  C2  UNL     1       8.545  -2.513  55.888  1.00  0.00     0.203 C
HETATM   22  C1  UNL     1      10.017  -2.522  55.856  1.00  0.00     0.042 C
BRANCH  21  23
HETATM   23  N1  UNL     1       8.078  -3.752  56.534  1.00  0.00    -0.073 N
ATOM     24  H13 UNL     1       7.799  -4.463  55.858  1.00  0.00     0.274 HD
ATOM     25  H12 UNL     1       8.837  -4.270  56.977  1.00  0.00     0.274 HD
ATOM     26  H11 UNL     1       7.330  -3.520  57.187  1.00  0.00     0.274 HD
ENDBRANCH  21  23
ENDBRANCH   1  21
BRANCH   6  27
HETATM   27  C13 UNL     1       7.290   0.171  54.839  1.00  0.00     0.108 A
HETATM   28  C14 UNL     1       8.022   0.792  55.857  1.00  0.00     0.096 A
HETATM   29  C15 UNL     1       7.411   1.826  56.518  1.00  0.00     0.103 A
HETATM   30  N9  UNL     1       6.171   2.188  56.173  1.00  0.00    -0.339 N
HETATM   31  C16 UNL     1       5.477   1.566  55.178  1.00  0.00     0.183 A
ATOM     32  H9  UNL     1       5.727   2.958  56.673  1.00  0.00     0.168 HD
HETATM   33  N10 UNL     1       6.057   0.559  54.524  1.00  0.00    -0.339 N
ATOM     34  H10 UNL     1       5.553   0.083  53.776  1.00  0.00     0.168 HD
BRANCH  29  35
HETATM   35  N8  UNL     1       8.076   2.413  57.450  1.00  0.00    -0.385 N
ATOM     36  H82 UNL     1       9.034   2.159  57.690  1.00  0.00     0.157 HD
ATOM     37  H81 UNL     1       7.609   3.158  57.967  1.00  0.00     0.157 HD
ENDBRANCH  29  35
ENDBRANCH   6  27
TORSDOF 7
ENDMDL