MODEL 3
REMARK VINA RESULT: -7.288787425      2.929      5.973
REMARK  5 active torsions:
REMARK  status: ('A' for Active; 'I' for Inactive)
REMARK    1  A    between atoms: C2_2  and  C4_4
REMARK    2  A    between atoms: C5_7  and  S1_8
REMARK    3  A    between atoms: S1_8  and  C6_9
REMARK    4  A    between atoms: C9_20  and  S2_21
REMARK    5  A    between atoms: S2_21  and  N5_22
ROOT
HETATM    1  C6  UNL     1       8.307  -6.313  51.906  1.00  0.00     0.122 A
HETATM    2  N2  UNL     1       7.944  -7.315  51.113  1.00  0.00    -0.184 N
ATOM      3  H2  UNL     1       7.557  -8.146  51.560  1.00  0.00     0.185 HD
HETATM    4  C7  UNL     1       8.046  -7.327  49.752  1.00  0.00     0.679 A
HETATM    5  N3  UNL     1       7.733  -8.271  49.066  1.00  0.00    -0.234 N
ATOM      6  H31 UNL     1       7.809  -8.279  48.049  1.00  0.00     0.174 HD
ATOM      7  H32 UNL     1       7.349  -9.112  49.497  1.00  0.00     0.174 HD
HETATM    8  N4  UNL     1       8.566  -6.185  49.167  1.00  0.00    -0.155 N
ATOM      9  H4  UNL     1       8.658  -6.144  48.152  1.00  0.00     0.187 HD
HETATM   10  C8  UNL     1       8.948  -5.143  49.892  1.00  0.00     0.285 A
HETATM   11  O1  UNL     1       9.425  -4.098  49.313  1.00  0.00    -0.266 OA
HETATM   12  C9  UNL     1       8.828  -5.180  51.267  1.00  0.00     0.181 A
ENDROOT
BRANCH   1  13
HETATM   13  S1  UNL     1       8.126  -6.185  53.645  1.00  0.00    -0.034 SA
BRANCH  13  14
HETATM   14  C5  UNL     1       9.114  -7.274  54.630  1.00  0.00     0.155 A
HETATM   15  N1  UNL     1       8.595  -8.303  55.320  1.00  0.00    -0.326 N
HETATM   16  C4  UNL     1       9.309  -9.154  56.049  1.00  0.00     0.090 A
ATOM     17  H1  UNL     1       7.585  -8.439  55.283  1.00  0.00     0.169 HD
HETATM   18  N7  UNL     1      10.660  -9.013  56.117  1.00  0.00    -0.297 N
HETATM   19  C10 UNL     1      11.220  -7.988  55.426  1.00  0.00     0.327 A
ATOM     20  H7  UNL     1      11.232  -9.655  56.666  1.00  0.00     0.172 HD
HETATM   21  N6  UNL     1      10.473  -7.131  54.700  1.00  0.00    -0.288 N
HETATM   22  O4  UNL     1      12.483  -7.797  55.442  1.00  0.00    -0.247 OA
ATOM     23  H6  UNL     1      10.925  -6.367  54.197  1.00  0.00     0.172 HD
BRANCH  16  24
HETATM   24  C2  UNL     1       8.662 -10.178  56.896  1.00  0.00     0.045 C
HETATM   25  C1  UNL     1       9.575 -11.376  57.106  1.00  0.00     0.017 C
HETATM   26  C3  UNL     1       8.126  -9.666  58.197  1.00  0.00     0.017 C
ENDBRANCH  16  24
ENDBRANCH  13  14
ENDBRANCH   1  13
BRANCH  12  27
HETATM   27  S2  UNL     1       9.407  -3.858  52.224  1.00  0.00     0.265 S
HETATM   28  O2  UNL     1      10.372  -4.290  53.284  1.00  0.00    -0.200 OA
HETATM   29  O3  UNL     1      10.178  -2.871  51.345  1.00  0.00    -0.200 OA
BRANCH  27  30
HETATM   30  N5  UNL     1       8.111  -2.928  52.898  1.00  0.00    -0.324 N
ATOM     31  H52 UNL     1       7.484  -2.355  52.333  1.00  0.00     0.169 HD
ATOM     32  H51 UNL     1       8.057  -3.026  53.912  1.00  0.00     0.169 HD
ENDBRANCH  27  30
ENDBRANCH  12  27
TORSDOF 5
ENDMDL