MODEL 3
REMARK VINA RESULT: -6.961953857      2.783      6.222
REMARK  6 active torsions:
REMARK  status: ('A' for Active; 'I' for Inactive)
REMARK    1  A    between atoms: N1_1  and  C1_4
REMARK    2  A    between atoms: C6_16  and  O2_17
REMARK    3  A    between atoms: C6_16  and  C7_19
REMARK    4  A    between atoms: C7_19  and  N5_20
REMARK    5  A    between atoms: N5_20  and  C8_22
REMARK    6  A    between atoms: N8_30  and  C12_31
ROOT
HETATM    1  C1  UNL     1       7.714  -7.997  51.799  1.00  0.00     0.129 A
HETATM    2  N2  UNL     1       8.517  -8.413  52.795  1.00  0.00    -0.337 N
ATOM      3  H2  UNL     1       8.226  -9.214  53.355  1.00  0.00     0.168 HD
HETATM    4  C2  UNL     1       9.685  -7.817  53.083  1.00  0.00     0.182 A
HETATM    5  N3  UNL     1      10.077  -6.763  52.359  1.00  0.00    -0.350 N
ATOM      6  H3  UNL     1      10.963  -6.304  52.572  1.00  0.00     0.166 HD
HETATM    7  C3  UNL     1       9.296  -6.292  51.330  1.00  0.00     0.090 A
HETATM    8  C4  UNL     1       8.106  -6.905  51.035  1.00  0.00     0.105 A
HETATM    9  N4  UNL     1       7.473  -6.258  49.919  1.00  0.00    -0.319 N
ATOM     10  H4  UNL     1       6.578  -6.518  49.503  1.00  0.00     0.169 HD
HETATM   11  C5  UNL     1       8.293  -5.216  49.509  1.00  0.00     0.268 A
HETATM   12  O1  UNL     1       8.105  -4.441  48.545  1.00  0.00    -0.269 OA
HETATM   13  C6  UNL     1       9.485  -5.140  50.417  1.00  0.00     0.216 A
ENDROOT
BRANCH  13  14
HETATM   14  O2  UNL     1      10.638  -5.292  49.700  1.00  0.00    -0.370 OA
ATOM     15  H2  UNL     1      11.391  -5.236  50.276  1.00  0.00     0.212 HD
ENDBRANCH  13  14
BRANCH  13  16
HETATM   16  C7  UNL     1       9.328  -3.836  51.153  1.00  0.00     0.110 C
BRANCH  16  17
HETATM   17  N5  UNL     1       8.388  -3.737  52.180  1.00  0.00    -0.394 N
ATOM     18  H5  UNL     1       7.413  -4.010  52.054  1.00  0.00     0.159 HD
BRANCH  17  19
HETATM   19  C8  UNL     1       8.889  -3.222  53.435  1.00  0.00     0.086 C
HETATM   20  C9  UNL     1       9.013  -4.321  54.414  1.00  0.00     0.031 C
HETATM   21  C10 UNL     1       8.194  -4.183  55.667  1.00  0.00     0.063 C
HETATM   22  C11 UNL     1       8.216  -2.803  56.176  1.00  0.00     0.051 A
HETATM   23  N6  UNL     1       8.357  -2.191  57.378  1.00  0.00    -0.288 N
HETATM   24  C15 UNL     1       8.056  -1.784  55.271  1.00  0.00     0.056 A
HETATM   25  N7  UNL     1       8.281  -0.877  57.191  1.00  0.00    -0.240 N
ATOM     26  H6  UNL     1       8.497  -2.659  58.274  1.00  0.00     0.188 HD
HETATM   27  N8  UNL     1       8.100  -0.583  55.934  1.00  0.00    -0.275 N
ATOM     28  H7  UNL     1       8.356  -0.186  57.938  1.00  0.00     0.208 HD
HETATM   29  C16 UNL     1       7.877  -2.132  53.851  1.00  0.00     0.086 C
BRANCH  27  30
HETATM   30  C12 UNL     1       7.946   0.650  55.198  1.00  0.00     0.109 A
HETATM   31  C13 UNL     1       6.881   1.597  55.619  1.00  0.00     0.029 A
HETATM   32  C14 UNL     1       8.290   1.933  55.925  1.00  0.00     0.029 A
ENDBRANCH  27  30
ENDBRANCH  17  19
ENDBRANCH  16  17
ENDBRANCH  13  16
BRANCH   1  33
HETATM   33  N1  UNL     1       6.592  -8.592  51.540  1.00  0.00    -0.384 N
ATOM     34  H12 UNL     1       6.582  -9.597  51.365  1.00  0.00     0.157 HD
ATOM     35  H11 UNL     1       5.712  -8.078  51.506  1.00  0.00     0.157 HD
ENDBRANCH   1  33
TORSDOF 6
ENDMDL