MODEL 4
REMARK VINA RESULT: -6.861289176      1.046      1.647
REMARK  5 active torsions:
REMARK  status: ('A' for Active; 'I' for Inactive)
REMARK    1  A    between atoms: C2_2  and  C4_4
REMARK    2  A    between atoms: C4_4  and  N1_5
REMARK    3  A    between atoms: C7_10  and  N3_11
REMARK    4  A    between atoms: N3_11  and  C8_12
REMARK    5  A    between atoms: C8_12  and  C9_13
ROOT
HETATM    1  N1  UNL     1       8.999  -8.286  55.899  1.00  0.00    -0.327 N
HETATM    2  C5  UNL     1       9.573  -7.294  56.604  1.00  0.00     0.185 A
HETATM    3  N2  UNL     1       9.559  -6.145  55.906  1.00  0.00    -0.345 N
ATOM      4  H2  UNL     1       9.930  -5.243  56.205  1.00  0.00     0.167 HD
HETATM    5  C6  UNL     1       8.959  -6.423  54.731  1.00  0.00     0.137 A
HETATM    6  C7  UNL     1       8.677  -5.596  53.620  1.00  0.00     0.211 A
HETATM    7  N7  UNL     1       8.043  -6.174  52.541  1.00  0.00    -0.303 N
ATOM      8  H7  UNL     1       7.822  -5.609  51.720  1.00  0.00     0.171 HD
HETATM    9  C13 UNL     1       7.717  -7.463  52.564  1.00  0.00     0.196 A
HETATM   10  N8  UNL     1       7.054  -8.015  51.402  1.00  0.00    -0.063 NA
HETATM   11  N9  UNL     1       7.991  -8.240  53.626  1.00  0.00    -0.314 N
ATOM     12  H9  UNL     1       7.725  -9.225  53.604  1.00  0.00     0.170 HD
HETATM   13  C14 UNL     1       8.611  -7.745  54.723  1.00  0.00     0.143 A
ENDROOT
BRANCH   6  14
HETATM   14  N3  UNL     1       9.000  -4.433  53.666  1.00  0.00    -0.396 NA
BRANCH  14  15
HETATM   15  C8  UNL     1       9.345  -3.153  53.699  1.00  0.00     0.205 C
BRANCH  15  16
HETATM   16  C9  UNL     1       8.344  -2.084  53.402  1.00  0.00     0.102 A
HETATM   17  C10 UNL     1       7.195  -2.008  54.162  1.00  0.00     0.138 A
HETATM   18  N4  UNL     1       6.959  -2.943  55.228  1.00  0.00    -0.081 NA
HETATM   19  N5  UNL     1       6.280  -1.055  53.913  1.00  0.00    -0.296 N
HETATM   20  C11 UNL     1       6.481  -0.157  52.909  1.00  0.00     0.328 A
ATOM     21  H5  UNL     1       5.433  -1.004  54.479  1.00  0.00     0.171 HD
HETATM   22  O1  UNL     1       5.598   0.730  52.700  1.00  0.00    -0.247 OA
HETATM   23  N6  UNL     1       7.595  -0.217  52.159  1.00  0.00    -0.275 N
HETATM   24  C12 UNL     1       8.539  -1.187  52.402  1.00  0.00     0.265 A
ATOM     25  H6  UNL     1       7.739   0.457  51.408  1.00  0.00     0.173 HD
HETATM   26  O2  UNL     1       9.530  -1.148  51.645  1.00  0.00    -0.267 OA
ENDBRANCH  15  16
ENDBRANCH  14  15
ENDBRANCH   6  14
BRANCH   1  27
HETATM   27  C4  UNL     1       8.799  -9.664  56.261  1.00  0.00     0.135 C
BRANCH  27  28
HETATM   28  C2  UNL     1       9.636 -10.153  57.392  1.00  0.00    -0.004 C
HETATM   29  C1  UNL     1       9.006  -9.960  58.739  1.00  0.00     0.011 C
HETATM   30  C3  UNL     1      10.167 -11.555  57.198  1.00  0.00     0.011 C
ENDBRANCH  27  28
ENDBRANCH   1  27
TORSDOF 5
ENDMDL