MODEL 5
REMARK VINA RESULT: -5.903422910      2.077      8.388
REMARK  7 active torsions:
REMARK  status: ('A' for Active; 'I' for Inactive)
REMARK    1  A    between atoms: N1_1  and  C1_4
REMARK    2  A    between atoms: C3_10  and  N4_11
REMARK    3  A    between atoms: C7_15  and  C8_16
REMARK    4  A    between atoms: C8_16  and  N5_17
REMARK    5  A    between atoms: N5_17  and  C9_19
REMARK    6  A    between atoms: C15_27  and  C16_28
REMARK    7  A    between atoms: C16_28  and  O1_29
ROOT
HETATM    1  C1  UNL     1       8.322  -6.954  51.114  1.00  0.00     0.706 A
HETATM    2  N2  UNL     1       7.757  -6.498  52.252  1.00  0.00    -0.019 N
ATOM      3  H2  UNL     1       7.166  -7.054  52.870  1.00  0.00     0.203 HD
HETATM    4  C2  UNL     1       8.080  -5.203  52.457  1.00  0.00     0.719 A
HETATM    5  N3  UNL     1       7.754  -4.344  53.437  1.00  0.00    -0.174 N
ATOM      6  H3  UNL     1       7.157  -4.658  54.202  1.00  0.00     0.186 HD
HETATM    7  C3  UNL     1       8.211  -3.054  53.427  1.00  0.00     0.129 A
HETATM    8  C15 UNL     1       9.008  -2.693  52.378  1.00  0.00     0.028 A
HETATM    9  C17 UNL     1       9.341  -3.601  51.360  1.00  0.00     0.148 A
HETATM   10  N7  UNL     1       8.862  -4.858  51.423  1.00  0.00    -0.082 N
HETATM   11  N8  UNL     1       9.010  -5.917  50.609  1.00  0.00    -0.111 N
ATOM     12  H8  UNL     1       9.557  -5.930  49.748  1.00  0.00     0.207 HD
ENDROOT
BRANCH   7  13
HETATM   13  N4  UNL     1       7.877  -2.153  54.467  1.00  0.00    -0.366 N
HETATM   14  C4  UNL     1       6.576  -1.532  54.595  1.00  0.00     0.124 C
HETATM   15  C5  UNL     1       6.744  -0.035  54.424  1.00  0.00     0.020 C
HETATM   16  C6  UNL     1       8.039   0.507  54.912  1.00  0.00     0.009 C
HETATM   17  C7  UNL     1       8.739  -0.373  55.900  1.00  0.00     0.021 C
HETATM   18  C14 UNL     1       8.855  -1.801  55.506  1.00  0.00     0.130 C
BRANCH  17  19
HETATM   19  C8  UNL     1       8.216  -0.170  57.318  1.00  0.00     0.120 C
BRANCH  19  20
HETATM   20  N5  UNL     1       8.690   1.071  57.803  1.00  0.00    -0.415 N
ATOM     21  H5  UNL     1       9.577   1.464  57.491  1.00  0.00     0.153 HD
BRANCH  20  22
HETATM   22  C9  UNL     1       7.870   1.745  58.746  1.00  0.00     0.093 C
HETATM   23  C10 UNL     1       6.590   2.293  58.158  1.00  0.00     0.028 C
HETATM   24  C11 UNL     1       6.123   3.369  59.142  1.00  0.00     0.021 C
HETATM   25  C12 UNL     1       6.555   3.035  60.550  1.00  0.00     0.114 C
HETATM   26  N6  UNL     1       6.644   1.637  60.802  1.00  0.00    -0.419 N
HETATM   27  C13 UNL     1       7.469   0.877  59.923  1.00  0.00     0.138 C
ATOM     28  H6  UNL     1       6.143   1.201  61.575  1.00  0.00     0.153 HD
ENDBRANCH  20  22
ENDBRANCH  19  20
ENDBRANCH  17  19
ENDBRANCH   7  13
BRANCH   8  29
HETATM   29  C16 UNL     1       9.532  -1.312  52.274  1.00  0.00     0.208 C
BRANCH  29  30
HETATM   30  O1  UNL     1       8.601  -0.495  51.586  1.00  0.00    -0.396 OA
ATOM     31  H1  UNL     1       8.919  -0.312  50.709  1.00  0.00     0.209 HD
ENDBRANCH  29  30
ENDBRANCH   8  29
BRANCH   1  32
HETATM   32  N1  UNL     1       8.226  -8.155  50.606  1.00  0.00    -0.233 N
ATOM     33  H12 UNL     1       8.805  -8.964  50.833  1.00  0.00     0.174 HD
ATOM     34  H11 UNL     1       7.561  -8.479  49.904  1.00  0.00     0.174 HD
ENDBRANCH   1  32
TORSDOF 7
ENDMDL