MODEL 1
REMARK VINA RESULT: -6.699091012      0.000      0.000
REMARK  5 active torsions:
REMARK  status: ('A' for Active; 'I' for Inactive)
REMARK    1  A    between atoms: N1_1  and  C1_4
REMARK    2  A    between atoms: N5_15  and  C5_16
REMARK    3  A    between atoms: C5_16  and  C6_17
REMARK    4  A    between atoms: C8_19  and  C9_20
REMARK    5  A    between atoms: C11_23  and  N6_24
ROOT
HETATM    1  C1  UNL     1       8.746  -6.983  51.621  1.00  0.00     0.679 A
HETATM    2  N2  UNL     1       8.314  -5.725  51.389  1.00  0.00    -0.175 N
ATOM      3  H2  UNL     1       7.707  -5.538  50.591  1.00  0.00     0.186 HD
HETATM    4  C2  UNL     1       8.673  -4.721  52.195  1.00  0.00     0.145 A
HETATM    5  N3  UNL     1       8.247  -3.543  51.948  1.00  0.00    -0.383 N
ATOM      6  H31 UNL     1       8.521  -2.776  52.563  1.00  0.00     0.157 HD
ATOM      7  H32 UNL     1       7.639  -3.341  51.154  1.00  0.00     0.157 HD
HETATM    8  C3  UNL     1       9.491  -4.993  53.264  1.00  0.00     0.123 A
HETATM    9  N4  UNL     1      10.026  -4.228  54.244  1.00  0.00    -0.346 N
ATOM     10  H4  UNL     1       9.883  -3.223  54.345  1.00  0.00     0.167 HD
HETATM   11  C4  UNL     1      10.772  -4.985  55.066  1.00  0.00     0.185 A
HETATM   12  N5  UNL     1      10.725  -6.250  54.622  1.00  0.00    -0.321 N
HETATM   13  C16 UNL     1       9.952  -6.278  53.526  1.00  0.00     0.155 A
HETATM   14  N9  UNL     1       9.548  -7.226  52.675  1.00  0.00    -0.174 N
ATOM     15  H9  UNL     1       9.864  -8.183  52.832  1.00  0.00     0.186 HD
ENDROOT
BRANCH  12  16
HETATM   16  C5  UNL     1      11.392  -7.367  55.225  1.00  0.00     0.188 C
BRANCH  16  17
HETATM   17  C6  UNL     1      10.564  -8.117  56.167  1.00  0.00     0.030 A
HETATM   18  C7  UNL     1      10.774  -9.478  56.262  1.00  0.00     0.041 A
HETATM   19  C8  UNL     1      10.063 -10.276  57.104  1.00  0.00     0.007 A
HETATM   20  C10 UNL     1       9.084  -9.699  57.901  1.00  0.00     0.062 A
HETATM   21  C11 UNL     1       8.868  -8.340  57.811  1.00  0.00     0.104 A
HETATM   22  N8  UNL     1       9.614  -7.586  56.947  1.00  0.00    -0.344 N
ATOM     23  H8  UNL     1       9.439  -6.582  56.895  1.00  0.00     0.167 HD
BRANCH  19  24
HETATM   24  C9  UNL     1      10.295 -11.716  57.196  1.00  0.00     0.270 C
HETATM   25  O1  UNL     1       9.424 -12.534  56.812  1.00  0.00    -0.301 OA
ENDBRANCH  19  24
BRANCH  21  26
HETATM   26  N6  UNL     1       7.868  -7.745  58.624  1.00  0.00    -0.364 N
HETATM   27  C12 UNL     1       6.888  -8.579  59.284  1.00  0.00     0.152 C
HETATM   28  C13 UNL     1       6.325  -7.741  60.438  1.00  0.00     0.252 C
HETATM   29  N7  UNL     1       5.552  -6.648  59.850  1.00  0.00    -0.072 N
HETATM   30  C14 UNL     1       6.298  -5.965  58.841  1.00  0.00     0.252 C
ATOM     31  H72 UNL     1       4.654  -6.975  59.494  1.00  0.00     0.277 HD
ATOM     32  H71 UNL     1       5.212  -6.004  60.564  1.00  0.00     0.277 HD
HETATM   33  C15 UNL     1       7.773  -6.314  58.835  1.00  0.00     0.152 C
ENDBRANCH  21  26
ENDBRANCH  16  17
ENDBRANCH  12  16
BRANCH   1  34
HETATM   34  N1  UNL     1       8.409  -7.969  50.852  1.00  0.00    -0.234 N
ATOM     35  H12 UNL     1       7.447  -8.026  50.519  1.00  0.00     0.174 HD
ATOM     36  H11 UNL     1       9.080  -8.684  50.575  1.00  0.00     0.174 HD
ENDBRANCH   1  34
TORSDOF 5
ENDMDL