MODEL 5
REMARK VINA RESULT: -6.912290764      1.687      1.858
REMARK  6 active torsions:
REMARK  status: ('A' for Active; 'I' for Inactive)
REMARK    1  A    between atoms: N1_1  and  C1_5
REMARK    2  A    between atoms: C1_5  and  C2_6
REMARK    3  A    between atoms: C4_9  and  N2_10
REMARK    4  A    between atoms: C7_15  and  N4_16
REMARK    5  A    between atoms: N4_16  and  C8_17
REMARK    6  A    between atoms: C13_24  and  N6_25
REMARK       I    between atoms: N6_25  and  C14_27
REMARK       I    between atoms: C14_27  and  N7_28
REMARK       I    between atoms: C14_27  and  N8_32
ROOT
HETATM    1  N2  UNL     1       8.842  -7.284  56.291  1.00  0.00    -0.299 N
HETATM    2  C5  UNL     1       8.925  -6.121  56.966  1.00  0.00     0.188 A
HETATM    3  N3  UNL     1       8.695  -5.067  56.167  1.00  0.00    -0.345 N
ATOM      4  H3  UNL     1       8.703  -4.085  56.442  1.00  0.00     0.167 HD
HETATM    5  C6  UNL     1       8.452  -5.549  54.941  1.00  0.00     0.137 A
HETATM    6  C7  UNL     1       8.151  -4.935  53.717  1.00  0.00     0.218 A
HETATM    7  N5  UNL     1       7.965  -5.771  52.650  1.00  0.00    -0.162 N
ATOM      8  H5  UNL     1       7.746  -5.353  51.746  1.00  0.00     0.187 HD
HETATM    9  C13 UNL     1       8.053  -7.092  52.724  1.00  0.00     0.685 A
HETATM   10  N9  UNL     1       8.345  -7.666  53.919  1.00  0.00    -0.174 N
ATOM     11  H9  UNL     1       8.414  -8.681  53.980  1.00  0.00     0.186 HD
HETATM   12  C15 UNL     1       8.546  -6.923  55.030  1.00  0.00     0.158 A
ENDROOT
BRANCH   9  13
HETATM   13  N6  UNL     1       7.888  -7.901  51.751  1.00  0.00    -0.173 N
HETATM   14  C14 UNL     1       7.676  -7.580  50.377  1.00  0.00     0.494 C
HETATM   15  N7  UNL     1       8.824  -6.915  49.842  1.00  0.00    -0.032 N
HETATM   16  N8  UNL     1       6.444  -6.846  50.149  1.00  0.00    -0.032 N
ATOM     17  H73 UNL     1       9.078  -6.093  50.390  1.00  0.00     0.278 HD
ATOM     18  H72 UNL     1       9.677  -7.456  49.979  1.00  0.00     0.278 HD
ATOM     19  H71 UNL     1       8.672  -6.686  48.859  1.00  0.00     0.278 HD
ATOM     20  H83 UNL     1       5.644  -7.350  50.534  1.00  0.00     0.278 HD
ATOM     21  H82 UNL     1       6.407  -6.007  50.728  1.00  0.00     0.278 HD
ATOM     22  H81 UNL     1       6.292  -6.618  49.167  1.00  0.00     0.278 HD
ATOM     23  H6  UNL     1       7.909  -8.894  51.982  1.00  0.00     0.181 HD
ENDBRANCH   9  13
BRANCH   6  24
HETATM   24  N4  UNL     1       8.068  -3.763  53.618  1.00  0.00    -0.422 NA
BRANCH  24  25
HETATM   25  C8  UNL     1       7.980  -2.439  53.481  1.00  0.00     0.165 C
HETATM   26  C9  UNL     1       8.409  -1.569  54.659  1.00  0.00     0.039 C
HETATM   27  C10 UNL     1       8.243  -0.161  54.064  1.00  0.00     0.003 C
HETATM   28  C11 UNL     1       8.394  -0.321  52.575  1.00  0.00     0.003 C
HETATM   29  C12 UNL     1       8.813  -1.779  52.385  1.00  0.00     0.039 C
ENDBRANCH  24  25
ENDBRANCH   6  24
BRANCH   1  30
HETATM   30  C4  UNL     1       9.035  -8.594  56.868  1.00  0.00     0.230 C
HETATM   31  O1  UNL     1       8.390  -9.605  56.202  1.00  0.00    -0.366 OA
HETATM   32  C3  UNL     1       8.924 -10.768  56.747  1.00  0.00     0.176 C
HETATM   33  C2  UNL     1      10.355 -10.507  57.082  1.00  0.00     0.039 C
HETATM   34  C16 UNL     1      10.474  -9.018  56.908  1.00  0.00     0.062 C
BRANCH  33  35
HETATM   35  C1  UNL     1      10.729 -10.972  58.471  1.00  0.00     0.236 C
BRANCH  35  36
HETATM   36  N1  UNL     1      12.049 -11.535  58.535  1.00  0.00    -0.079 N
ATOM     37  H13 UNL     1      12.023 -12.544  58.393  1.00  0.00     0.274 HD
ATOM     38  H12 UNL     1      12.600 -11.267  57.719  1.00  0.00     0.274 HD
ATOM     39  H11 UNL     1      12.539 -11.300  59.399  1.00  0.00     0.274 HD
ENDBRANCH  35  36
ENDBRANCH  33  35
ENDBRANCH   1  30
TORSDOF 6
ENDMDL