MODEL 5
REMARK VINA RESULT: -6.428008189      2.637      6.712
REMARK  6 active torsions:
REMARK  status: ('A' for Active; 'I' for Inactive)
REMARK    1  A    between atoms: N1_1  and  C1_4
REMARK    2  A    between atoms: N3_7  and  C2_8
REMARK    3  A    between atoms: C2_8  and  C3_9
REMARK    4  A    between atoms: C6_14  and  C7_15
REMARK    5  A    between atoms: C7_15  and  N5_16
REMARK    6  A    between atoms: C14_26  and  N7_27
ROOT
HETATM    1  C3  UNL     1       8.158  -3.650  56.218  1.00  0.00     0.105 A
HETATM    2  N4  UNL     1       8.086  -4.077  54.950  1.00  0.00    -0.342 N
ATOM      3  H4  UNL     1       7.952  -3.388  54.210  1.00  0.00     0.167 HD
HETATM    4  C4  UNL     1       8.183  -5.375  54.612  1.00  0.00     0.065 A
HETATM    5  C5  UNL     1       8.107  -5.801  53.305  1.00  0.00     0.042 A
HETATM    6  C6  UNL     1       8.217  -7.154  53.061  1.00  0.00    -0.013 A
HETATM    7  C12 UNL     1       8.399  -8.039  54.120  1.00  0.00     0.097 A
HETATM    8  N6  UNL     1       8.464  -7.551  55.369  1.00  0.00    -0.360 N
ATOM      9  H6  UNL     1       8.597  -8.211  56.135  1.00  0.00     0.165 HD
HETATM   10  C13 UNL     1       8.364  -6.252  55.671  1.00  0.00     0.103 A
HETATM   11  C14 UNL     1       8.438  -5.817  56.975  1.00  0.00     0.129 A
HETATM   12  N8  UNL     1       8.333  -4.506  57.236  1.00  0.00    -0.329 N
ATOM     13  H8  UNL     1       8.386  -4.164  58.196  1.00  0.00     0.168 HD
ENDROOT
BRANCH   1  14
HETATM   14  C2  UNL     1       8.044  -2.218  56.513  1.00  0.00     0.246 C
BRANCH  14  15
HETATM   15  N3  UNL     1       7.768  -1.428  55.324  1.00  0.00    -0.224 N
HETATM   16  N2  UNL     1       6.616  -1.153  54.760  1.00  0.00    -0.266 N
HETATM   17  C1  UNL     1       6.789  -0.380  53.659  1.00  0.00     0.158 A
ATOM     18  H2  UNL     1       5.712  -1.476  55.103  1.00  0.00     0.190 HD
HETATM   19  C15 UNL     1       8.149  -0.188  53.574  1.00  0.00     0.177 A
HETATM   20  N9  UNL     1       8.697  -0.845  54.606  1.00  0.00    -0.268 N
HETATM   21  N10 UNL     1       8.816   0.571  52.564  1.00  0.00    -0.077 NA
ATOM     22  H9  UNL     1       9.696  -0.885  54.806  1.00  0.00     0.190 HD
BRANCH  17  23
HETATM   23  N1  UNL     1       5.913   0.086  52.859  1.00  0.00    -0.382 N
ATOM     24  H12 UNL     1       5.316   0.895  53.025  1.00  0.00     0.157 HD
ATOM     25  H11 UNL     1       5.649  -0.246  51.931  1.00  0.00     0.157 HD
ENDBRANCH  17  23
ENDBRANCH  14  15
ENDBRANCH   1  14
BRANCH  11  26
HETATM   26  N7  UNL     1       8.606  -6.625  57.967  1.00  0.00    -0.384 N
ATOM     27  H72 UNL     1       8.097  -6.437  58.831  1.00  0.00     0.157 HD
ATOM     28  H71 UNL     1       9.222  -7.436  57.916  1.00  0.00     0.157 HD
ENDBRANCH  11  26
BRANCH   6  29
HETATM   29  C7  UNL     1       8.152  -7.731  51.699  1.00  0.00     0.312 C
BRANCH  29  30
HETATM   30  N5  UNL     1       8.215  -6.668  50.736  1.00  0.00     0.096 N
HETATM   31  C8  UNL     1       7.710  -7.018  49.446  1.00  0.00     0.299 C
HETATM   32  C9  UNL     1       8.180  -5.990  48.430  1.00  0.00     0.198 C
HETATM   33  O1  UNL     1       8.428  -4.761  48.992  1.00  0.00    -0.388 OA
HETATM   34  C10 UNL     1       9.394  -4.749  49.966  1.00  0.00     0.198 C
HETATM   35  C11 UNL     1       9.561  -6.153  50.563  1.00  0.00     0.299 C
ENDBRANCH  29  30
ENDBRANCH   6  29
TORSDOF 6
ENDMDL