MODEL 4
REMARK VINA RESULT: -6.345578048      1.793      3.739
REMARK  7 active torsions:
REMARK  status: ('A' for Active; 'I' for Inactive)
REMARK    1  A    between atoms: N1_1  and  C1_5
REMARK    2  A    between atoms: C1_5  and  C2_6
REMARK    3  A    between atoms: N2_9  and  C5_10
REMARK    4  A    between atoms: C7_16  and  N5_17
REMARK    5  A    between atoms: N5_17  and  N6_19
REMARK    6  A    between atoms: C8_24  and  N8_25
REMARK    7  A    between atoms: N8_25  and  C9_27
ROOT
HETATM    1  C5  UNL     1       7.589  -3.207  54.616  1.00  0.00     0.684 A
HETATM    2  N3  UNL     1       7.805  -3.661  53.367  1.00  0.00    -0.175 N
ATOM      3  H3  UNL     1       7.775  -2.995  52.595  1.00  0.00     0.186 HD
HETATM    4  C6  UNL     1       8.061  -4.957  53.089  1.00  0.00     0.156 A
HETATM    5  N4  UNL     1       8.268  -5.371  51.820  1.00  0.00    -0.173 N
ATOM      6  H4  UNL     1       8.233  -4.692  51.059  1.00  0.00     0.186 HD
HETATM    7  C7  UNL     1       8.518  -6.658  51.546  1.00  0.00     0.699 A
HETATM    8  N7  UNL     1       8.554  -7.513  52.567  1.00  0.00    -0.174 N
ATOM      9  H7  UNL     1       8.744  -8.494  52.363  1.00  0.00     0.186 HD
HETATM   10  C8  UNL     1       8.350  -7.153  53.879  1.00  0.00     0.137 A
HETATM   11  C12 UNL     1       8.093  -5.834  54.171  1.00  0.00     0.122 A
HETATM   12  C13 UNL     1       7.872  -5.368  55.447  1.00  0.00     0.277 A
HETATM   13  O1  UNL     1       7.887  -6.108  56.453  1.00  0.00    -0.266 OA
HETATM   14  N9  UNL     1       7.619  -4.049  55.665  1.00  0.00    -0.155 N
ATOM     15  H9  UNL     1       7.455  -3.704  56.611  1.00  0.00     0.187 HD
ENDROOT
BRANCH   1  16
HETATM   16  N2  UNL     1       7.324  -1.822  54.847  1.00  0.00    -0.217 N
HETATM   17  C4  UNL     1       6.548  -1.043  53.934  1.00  0.00     0.141 C
HETATM   18  C3  UNL     1       6.223   0.279  54.593  1.00  0.00     0.027 C
HETATM   19  C2  UNL     1       7.502   0.965  54.948  1.00  0.00     0.014 C
HETATM   20  C15 UNL     1       8.512   0.098  55.624  1.00  0.00     0.027 C
HETATM   21  C14 UNL     1       7.850  -1.186  56.031  1.00  0.00     0.141 C
BRANCH  19  22
HETATM   22  C1  UNL     1       7.193   2.189  55.818  1.00  0.00     0.234 C
BRANCH  22  23
HETATM   23  N1  UNL     1       8.358   2.369  56.678  1.00  0.00    -0.079 N
ATOM     24  H13 UNL     1       8.682   1.506  57.113  1.00  0.00     0.274 HD
ATOM     25  H12 UNL     1       9.215   2.578  56.165  1.00  0.00     0.274 HD
ATOM     26  H11 UNL     1       8.099   3.092  57.349  1.00  0.00     0.274 HD
ENDBRANCH  22  23
ENDBRANCH  19  22
ENDBRANCH   1  16
BRANCH   7  27
HETATM   27  N5  UNL     1       8.718  -7.053  50.312  1.00  0.00    -0.138 N
ATOM     28  H5  UNL     1       9.470  -6.616  49.778  1.00  0.00     0.205 HD
BRANCH  27  29
HETATM   29  N6  UNL     1       7.957  -8.034  49.701  1.00  0.00    -0.331 N
ATOM     30  H62 UNL     1       7.021  -8.202  50.070  1.00  0.00     0.177 HD
ATOM     31  H61 UNL     1       8.292  -8.585  48.910  1.00  0.00     0.177 HD
ENDBRANCH  27  29
ENDBRANCH   7  27
BRANCH  10  32
HETATM   32  N8  UNL     1       8.424  -8.124  54.886  1.00  0.00    -0.370 N
ATOM     33  H8  UNL     1       7.599  -8.385  55.427  1.00  0.00     0.161 HD
BRANCH  32  34
HETATM   34  C9  UNL     1       9.729  -8.754  55.140  1.00  0.00     0.083 A
HETATM   35  C10 UNL     1      10.205  -8.779  56.607  1.00  0.00     0.027 A
HETATM   36  C11 UNL     1      10.876  -7.893  55.618  1.00  0.00     0.027 A
ENDBRANCH  32  34
ENDBRANCH  10  32
TORSDOF 7
ENDMDL