MODEL 5
REMARK VINA RESULT: -6.534182443      1.613      3.652
REMARK  6 active torsions:
REMARK  status: ('A' for Active; 'I' for Inactive)
REMARK    1  A    between atoms: N1_2  and  C2_4
REMARK    2  A    between atoms: C3_7  and  S1_8
REMARK    3  A    between atoms: S1_8  and  C4_9
REMARK    4  A    between atoms: C4_9  and  C5_10
REMARK    5  A    between atoms: C6_11  and  C7_12
REMARK    6  A    between atoms: C11_25  and  N7_26
ROOT
HETATM    1  C2  UNL     1       8.727  -2.820  52.116  1.00  0.00     0.694 A
HETATM    2  N2  UNL     1       8.377  -3.736  51.207  1.00  0.00    -0.169 N
ATOM      3  H2  UNL     1       7.505  -3.624  50.689  1.00  0.00     0.186 HD
HETATM    4  C3  UNL     1       9.158  -4.804  50.966  1.00  0.00     0.175 A
HETATM    5  N6  UNL     1      10.323  -4.954  51.656  1.00  0.00    -0.169 N
ATOM      6  H6  UNL     1      10.919  -5.763  51.478  1.00  0.00     0.186 HD
HETATM    7  C11 UNL     1      10.688  -4.043  52.570  1.00  0.00     0.697 A
HETATM    8  N9  UNL     1       9.890  -3.002  52.781  1.00  0.00    -0.022 N
ATOM      9  H9  UNL     1      10.168  -2.309  53.476  1.00  0.00     0.203 HD
ENDROOT
BRANCH   4  10
HETATM   10  S1  UNL     1       8.620  -5.984  49.739  1.00  0.00    -0.081 SA
BRANCH  10  11
HETATM   11  C4  UNL     1       7.430  -7.102  50.548  1.00  0.00     0.176 C
BRANCH  11  12
HETATM   12  C5  UNL     1       7.985  -7.526  51.834  1.00  0.00    -0.088 C
HETATM   13  C6  UNL     1       8.463  -7.872  52.888  1.00  0.00    -0.029 C
BRANCH  13  14
HETATM   14  C7  UNL     1       9.055  -8.274  54.138  1.00  0.00     0.162 A
HETATM   15  N3  UNL     1      10.320  -8.002  54.475  1.00  0.00    -0.322 N
HETATM   16  C8  UNL     1      10.876  -8.380  55.650  1.00  0.00     0.101 A
ATOM     17  H3  UNL     1      10.896  -7.482  53.812  1.00  0.00     0.169 HD
HETATM   18  N4  UNL     1      12.102  -8.098  55.938  1.00  0.00    -0.385 N
HETATM   19  C9  UNL     1      10.114  -9.084  56.559  1.00  0.00     0.065 A
ATOM     20  H42 UNL     1      12.665  -7.578  55.266  1.00  0.00     0.157 HD
ATOM     21  H41 UNL     1      12.521  -8.384  56.824  1.00  0.00     0.157 HD
HETATM   22  C10 UNL     1       8.809  -9.359  56.203  1.00  0.00     0.094 A
HETATM   23  N5  UNL     1       8.294  -8.963  55.017  1.00  0.00    -0.345 N
ATOM     24  H5  UNL     1       7.325  -9.184  54.786  1.00  0.00     0.167 HD
ENDBRANCH  13  14
ENDBRANCH  11  12
ENDBRANCH  10  11
ENDBRANCH   4  10
BRANCH   1  25
HETATM   25  N1  UNL     1       7.970  -1.815  52.327  1.00  0.00    -0.230 N
HETATM   26  C1  UNL     1       8.523  -0.482  52.269  1.00  0.00     0.165 C
ATOM     27  H1  UNL     1       6.981  -1.953  52.534  1.00  0.00     0.177 HD
ENDBRANCH   1  25
BRANCH   7  28
HETATM   28  N7  UNL     1      11.891  -4.196  53.283  1.00  0.00    -0.214 N
HETATM   29  C12 UNL     1      13.199  -4.316  52.691  1.00  0.00     0.168 C
HETATM   30  C13 UNL     1      14.167  -3.587  53.618  1.00  0.00     0.252 C
HETATM   31  N8  UNL     1      13.503  -2.495  54.305  1.00  0.00    -0.072 N
HETATM   32  C14 UNL     1      12.485  -2.945  55.221  1.00  0.00     0.252 C
ATOM     33  H82 UNL     1      14.180  -1.896  54.778  1.00  0.00     0.277 HD
ATOM     34  H81 UNL     1      13.122  -1.823  53.639  1.00  0.00     0.277 HD
HETATM   35  C15 UNL     1      11.839  -4.242  54.751  1.00  0.00     0.168 C
ENDBRANCH   7  28
TORSDOF 6
ENDMDL