MODEL 1
REMARK VINA RESULT: -7.122196000      0.000      0.000
REMARK  10 active torsions:
REMARK  status: ('A' for Active; 'I' for Inactive)
REMARK    1  A    between atoms: N1_1  and  C1_5
REMARK    2  A    between atoms: C3_7  and  O1_8
REMARK    3  A    between atoms: N2_11  and  C5_12
REMARK    4  A    between atoms: C5_12  and  C6_13
REMARK    5  A    between atoms: C6_13  and  C7_14
REMARK    6  A    between atoms: C7_14  and  C8_15
REMARK    7  A    between atoms: C8_15  and  C9_16
REMARK    8  A    between atoms: C9_16  and  C10_17
REMARK    9  A    between atoms: C10_17  and  N3_18
REMARK   10  A    between atoms: N3_18  and  C11_20
ROOT
HETATM    1  C6  UNL     1     -10.354  13.310 -18.240  1.00  0.00     0.044 C
ENDROOT
BRANCH   1   2
HETATM    2  C5  UNL     1     -10.648  11.897 -18.659  1.00  0.00     0.058 C
BRANCH   2   3
HETATM    3  N2  UNL     1      -9.749  11.350 -19.589  1.00  0.00    -0.389 N
HETATM    4  C4  UNL     1     -10.285  10.799 -20.783  1.00  0.00     0.153 C
HETATM    5  C3  UNL     1      -9.310  11.212 -21.895  1.00  0.00     0.138 C
HETATM    6  C2  UNL     1      -7.896  11.175 -21.480  1.00  0.00     0.067 C
HETATM    7  C1  UNL     1      -7.578  10.508 -20.192  1.00  0.00     0.203 C
HETATM    8  C17 UNL     1      -8.586  10.700 -19.100  1.00  0.00     0.154 C
BRANCH   5   9
HETATM    9  O1  UNL     1      -9.696  12.533 -22.232  1.00  0.00    -0.394 OA
ATOM     10  H1  UNL     1     -10.478  12.785 -21.755  1.00  0.00     0.210 HD
ENDBRANCH   5   9
BRANCH   7  11
HETATM   11  N1  UNL     1      -6.313  11.056 -19.712  1.00  0.00    -0.073 N
ATOM     12  H13 UNL     1      -6.022  11.889 -20.224  1.00  0.00     0.274 HD
ATOM     13  H12 UNL     1      -6.390  11.485 -18.791  1.00  0.00     0.274 HD
ATOM     14  H11 UNL     1      -5.622  10.308 -19.745  1.00  0.00     0.274 HD
ENDBRANCH   7  11
ENDBRANCH   2   3
ENDBRANCH   1   2
BRANCH   1  15
HETATM   15  C7  UNL     1     -10.537  14.277 -19.380  1.00  0.00     0.005 C
BRANCH  15  16
HETATM   16  C8  UNL     1      -9.409  15.260 -19.456  1.00  0.00     0.002 C
BRANCH  16  17
HETATM   17  C9  UNL     1      -8.110  14.615 -19.859  1.00  0.00     0.020 C
BRANCH  17  18
HETATM   18  C10 UNL     1      -6.924  15.396 -19.300  1.00  0.00     0.119 C
BRANCH  18  19
HETATM   19  N3  UNL     1      -6.295  14.718 -18.198  1.00  0.00    -0.390 N
ATOM     20  H3  UNL     1      -5.284  14.585 -18.223  1.00  0.00     0.159 HD
BRANCH  19  21
HETATM   21  C11 UNL     1      -7.013  14.229 -17.081  1.00  0.00     0.029 A
HETATM   22  C12 UNL     1      -7.127  12.897 -16.750  1.00  0.00     0.029 A
HETATM   23  C13 UNL     1      -7.831  12.480 -15.632  1.00  0.00     0.004 A
HETATM   24  C14 UNL     1      -8.454  13.380 -14.795  1.00  0.00     0.024 A
HETATM   25  C15 UNL     1      -8.351  14.718 -15.113  1.00  0.00     0.036 A
HETATM   26 CL1  UNL     1      -9.140  15.871 -14.051  1.00  0.00    -0.084 Cl
HETATM   27  C16 UNL     1      -7.651  15.132 -16.222  1.00  0.00     0.052 A
ENDBRANCH  19  21
ENDBRANCH  18  19
ENDBRANCH  17  18
ENDBRANCH  16  17
ENDBRANCH  15  16
ENDBRANCH   1  15
TORSDOF 10
ENDMDL