MODEL 4
REMARK VINA RESULT: -6.873062729      0.947      1.530
REMARK  9 active torsions:
REMARK  status: ('A' for Active; 'I' for Inactive)
REMARK    1  A    between atoms: C2_2  and  C3_3
REMARK    2  A    between atoms: C7_8  and  C8_9
REMARK    3  A    between atoms: C8_9  and  S1_10
REMARK    4  A    between atoms: S1_10  and  C9_11
REMARK    5  A    between atoms: C9_11  and  C10_12
REMARK    6  A    between atoms: C10_12  and  N1_13
REMARK    7  A    between atoms: N1_13  and  C11_16
REMARK    8  A    between atoms: C11_16  and  C12_17
REMARK    9  A    between atoms: C14_21  and  N3_22
ROOT
HETATM    1  N1  UNL     1      -8.896  14.774 -20.495  1.00  0.00    -0.070 N
ATOM      2  H11 UNL     1      -9.848  15.052 -20.736  1.00  0.00     0.277 HD
ATOM      3  H12 UNL     1      -9.039  14.552 -19.510  1.00  0.00     0.277 HD
ENDROOT
BRANCH   1   4
HETATM    4  C10 UNL     1      -7.967  15.876 -20.657  1.00  0.00     0.242 C
BRANCH   4   5
HETATM    5  C9  UNL     1      -6.596  15.332 -20.986  1.00  0.00     0.101 C
BRANCH   5   6
HETATM    6  S1  UNL     1      -5.541  15.166 -19.578  1.00  0.00    -0.163 SA
BRANCH   6   7
HETATM    7  C8  UNL     1      -5.790  13.578 -18.734  1.00  0.00     0.114 C
BRANCH   7   8
HETATM    8  C7  UNL     1      -6.854  13.721 -17.688  1.00  0.00    -0.027 A
HETATM    9  C6  UNL     1      -7.393  12.454 -17.360  1.00  0.00     0.041 A
HETATM   10  C5  UNL     1      -8.283  12.371 -16.327  1.00  0.00     0.025 A
HETATM   11 CL1  UNL     1      -6.938  11.028 -18.298  1.00  0.00    -0.084 Cl
HETATM   12  C4  UNL     1      -8.636  13.492 -15.636  1.00  0.00     0.009 A
HETATM   13  C3  UNL     1      -8.124  14.758 -15.927  1.00  0.00    -0.058 A
HETATM   14  C16 UNL     1      -7.219  14.814 -16.986  1.00  0.00     0.016 A
BRANCH  13  15
HETATM   15  C2  UNL     1      -8.490  15.858 -15.015  1.00  0.00     0.034 C
HETATM   16  C1  UNL     1      -9.258  15.505 -13.788  1.00  0.00     0.010 C
ENDBRANCH  13  15
ENDBRANCH   7   8
ENDBRANCH   6   7
ENDBRANCH   5   6
ENDBRANCH   4   5
ENDBRANCH   1   4
BRANCH   1  17
HETATM   17  C11 UNL     1      -8.485  13.613 -21.241  1.00  0.00     0.273 C
BRANCH  17  18
HETATM   18  C12 UNL     1      -9.224  12.403 -20.698  1.00  0.00    -0.001 A
HETATM   19  C13 UNL     1      -9.048  11.182 -21.362  1.00  0.00     0.116 A
HETATM   20  N2  UNL     1      -9.813  10.146 -20.959  1.00  0.00    -0.202 N
HETATM   21  C14 UNL     1     -10.699  10.280 -19.967  1.00  0.00     0.675 A
ATOM     22  H2  UNL     1      -9.712   9.242 -21.422  1.00  0.00     0.183 HD
HETATM   23  N4  UNL     1     -10.855  11.418 -19.347  1.00  0.00    -0.202 N
HETATM   24  C15 UNL     1     -10.112  12.525 -19.696  1.00  0.00     0.116 A
ATOM     25  H4  UNL     1     -11.538  11.489 -18.593  1.00  0.00     0.183 HD
BRANCH  21  26
HETATM   26  N3  UNL     1     -11.484   9.232 -19.694  1.00  0.00    -0.234 N
ATOM     27  H32 UNL     1     -11.109   8.283 -19.681  1.00  0.00     0.174 HD
ATOM     28  H31 UNL     1     -12.451   9.422 -19.432  1.00  0.00     0.174 HD
ENDBRANCH  21  26
ENDBRANCH  17  18
ENDBRANCH   1  17
TORSDOF 9
ENDMDL