MODEL 4
REMARK VINA RESULT: -7.661100683      2.231      4.788
REMARK  8 active torsions:
REMARK  status: ('A' for Active; 'I' for Inactive)
REMARK    1  A    between atoms: C4_5  and  N1_6
REMARK    2  A    between atoms: N1_6  and  C5_8
REMARK    3  A    between atoms: C5_8  and  C6_9
REMARK    4  A    between atoms: N2_13  and  C10_14
REMARK    5  A    between atoms: C10_14  and  C11_15
REMARK    6  A    between atoms: C11_15  and  N3_16
REMARK    7  A    between atoms: N3_16  and  C12_19
REMARK    8  A    between atoms: C12_19  and  C13_20
ROOT
HETATM    1  C6  UNL     1      -8.397  11.397 -19.104  1.00  0.00     0.029 A
HETATM    2  C7  UNL     1      -9.708  11.123 -18.686  1.00  0.00     0.028 A
HETATM    3  C8  UNL     1     -10.595  11.742 -19.539  1.00  0.00     0.019 A
HETATM    4  C9  UNL     1      -9.810  12.383 -20.469  1.00  0.00     0.091 A
HETATM    5  N2  UNL     1      -8.494  12.167 -20.195  1.00  0.00    -0.357 N
ENDROOT
BRANCH   5   6
HETATM    6  C10 UNL     1      -7.409  12.674 -20.996  1.00  0.00     0.155 C
BRANCH   6   7
HETATM    7  C11 UNL     1      -7.081  14.117 -20.736  1.00  0.00     0.253 C
BRANCH   7   8
HETATM    8  N3  UNL     1      -5.718  14.488 -20.911  1.00  0.00    -0.068 N
ATOM      9  H32 UNL     1      -5.522  14.711 -21.886  1.00  0.00     0.277 HD
ATOM     10  H31 UNL     1      -5.531  15.399 -20.493  1.00  0.00     0.277 HD
BRANCH   8  11
HETATM   11  C12 UNL     1      -4.795  13.484 -20.410  1.00  0.00     0.290 C
BRANCH  11  12
HETATM   12  C13 UNL     1      -3.955  14.089 -19.336  1.00  0.00     0.052 A
HETATM   13  C14 UNL     1      -4.180  15.273 -18.691  1.00  0.00     0.047 A
HETATM   14  C15 UNL     1      -3.153  15.429 -17.784  1.00  0.00     0.109 A
HETATM   15  N4  UNL     1      -2.331  14.365 -17.882  1.00  0.00    -0.312 N
HETATM   16  N5  UNL     1      -2.831  13.582 -18.814  1.00  0.00    -0.304 N
ATOM     17  H4  UNL     1      -1.483  14.198 -17.339  1.00  0.00     0.186 HD
ATOM     18  H5  UNL     1      -2.413  12.697 -19.103  1.00  0.00     0.186 HD
ENDBRANCH  11  12
ENDBRANCH   8  11
ENDBRANCH   7   8
ENDBRANCH   6   7
ENDBRANCH   5   6
BRANCH   1  19
HETATM   19  C5  UNL     1      -7.202  10.910 -18.403  1.00  0.00     0.177 C
BRANCH  19  20
HETATM   20  N1  UNL     1      -6.502  12.006 -17.717  1.00  0.00    -0.384 N
ATOM     21  H1  UNL     1      -5.500  12.115 -17.868  1.00  0.00     0.160 HD
BRANCH  20  22
HETATM   22  C4  UNL     1      -7.153  12.907 -16.867  1.00  0.00     0.028 A
HETATM   23  C3  UNL     1      -7.261  14.261 -17.112  1.00  0.00     0.031 A
HETATM   24  C2  UNL     1      -7.910  15.125 -16.255  1.00  0.00     0.026 A
HETATM   25  C1  UNL     1      -8.484  14.641 -15.093  1.00  0.00     0.034 A
HETATM   26 CL1  UNL     1      -9.325  15.701 -13.961  1.00  0.00    -0.084 Cl
HETATM   27  C17 UNL     1      -8.385  13.283 -14.830  1.00  0.00     0.026 A
HETATM   28  C16 UNL     1      -7.732  12.444 -15.705  1.00  0.00     0.031 A
ENDBRANCH  20  22
ENDBRANCH  19  20
ENDBRANCH   1  19
TORSDOF 8
ENDMDL