MODEL 4
REMARK VINA RESULT: -7.592899927      3.701      5.119
REMARK  9 active torsions:
REMARK  status: ('A' for Active; 'I' for Inactive)
REMARK    1  A    between atoms: N1_1  and  C1_5
REMARK    2  A    between atoms: C1_5  and  C2_6
REMARK    3  A    between atoms: C1_5  and  C4_14
REMARK    4  A    between atoms: C4_14  and  C5_15
REMARK    5  A    between atoms: C4_14  and  N5_23
REMARK    6  A    between atoms: C5_15  and  C6_16
REMARK    7  A    between atoms: C6_16  and  C7_17
REMARK    8  A    between atoms: N5_23  and  C13_25
REMARK    9  A    between atoms: C13_25  and  C14_26
ROOT
HETATM    1  C4  UNL     1      -7.932  14.667 -20.557  1.00  0.00     0.119 C
ENDROOT
BRANCH   1   2
HETATM    2  C1  UNL     1      -8.603  13.323 -20.828  1.00  0.00     0.274 C
BRANCH   2   3
HETATM    3  N1  UNL     1     -10.006  13.315 -20.588  1.00  0.00    -0.066 N
ATOM      4  H13 UNL     1     -10.236  12.851 -19.709  1.00  0.00     0.275 HD
ATOM      5  H12 UNL     1     -10.357  14.246 -20.366  1.00  0.00     0.275 HD
ATOM      6  H11 UNL     1     -10.503  12.900 -21.376  1.00  0.00     0.275 HD
ENDBRANCH   2   3
BRANCH   2   7
HETATM    7  C2  UNL     1      -7.955  12.217 -20.129  1.00  0.00     0.130 A
HETATM    8  N2  UNL     1      -8.606  11.119 -19.643  1.00  0.00    -0.338 N
HETATM    9  C3  UNL     1      -7.745  10.279 -19.070  1.00  0.00     0.198 A
ATOM     10  H2  UNL     1      -9.612  10.964 -19.709  1.00  0.00     0.168 HD
HETATM   11  N3  UNL     1      -6.543  10.851 -19.196  1.00  0.00    -0.295 N
HETATM   12  N4  UNL     1      -6.666  12.004 -19.826  1.00  0.00    -0.286 N
ATOM     13  H3  UNL     1      -5.665  10.457 -18.858  1.00  0.00     0.187 HD
ATOM     14  H4  UNL     1      -5.898  12.637 -20.049  1.00  0.00     0.188 HD
ENDBRANCH   2   7
ENDBRANCH   1   2
BRANCH   1  15
HETATM   15  C5  UNL     1      -8.367  15.169 -19.238  1.00  0.00     0.032 C
BRANCH  15  16
HETATM   16  C6  UNL     1      -7.399  15.174 -18.123  1.00  0.00     0.041 C
BRANCH  16  17
HETATM   17  C7  UNL     1      -7.845  14.591 -16.854  1.00  0.00    -0.058 A
HETATM   18  C8  UNL     1      -8.422  15.409 -15.879  1.00  0.00     0.007 A
HETATM   19  C9  UNL     1      -8.845  14.921 -14.672  1.00  0.00     0.001 A
HETATM   20  C10 UNL     1      -8.716  13.590 -14.371  1.00  0.00     0.000 A
HETATM   21  C11 UNL     1      -8.153  12.760 -15.307  1.00  0.00     0.001 A
HETATM   22  C12 UNL     1      -7.722  13.263 -16.537  1.00  0.00     0.007 A
ENDBRANCH  16  17
ENDBRANCH  15  16
ENDBRANCH   1  15
BRANCH   1  23
HETATM   23  N5  UNL     1      -7.978  15.576 -21.630  1.00  0.00    -0.391 N
ATOM     24  H5  UNL     1      -8.304  15.264 -22.545  1.00  0.00     0.159 HD
BRANCH  23  25
HETATM   25  C13 UNL     1      -7.576  16.910 -21.448  1.00  0.00     0.095 C
BRANCH  25  26
HETATM   26  C14 UNL     1      -8.487  17.901 -22.114  1.00  0.00    -0.018 A
HETATM   27  C15 UNL     1      -9.648  18.236 -21.453  1.00  0.00     0.013 A
HETATM   28  C16 UNL     1     -10.549  19.143 -21.994  1.00  0.00     0.004 A
HETATM   29  C17 UNL     1     -10.286  19.727 -23.216  1.00  0.00     0.042 A
HETATM   30  C18 UNL     1      -9.121  19.401 -23.897  1.00  0.00     0.117 A
HETATM   31  F1  UNL     1      -8.857  19.969 -25.098  1.00  0.00    -0.206 F
HETATM   32  C19 UNL     1      -8.237  18.483 -23.321  1.00  0.00     0.055 A
ENDBRANCH  25  26
ENDBRANCH  23  25
ENDBRANCH   1  23
TORSDOF 9
ENDMDL