MODEL 4
REMARK VINA RESULT: -8.140806519      1.776      2.435
REMARK  7 active torsions:
REMARK  status: ('A' for Active; 'I' for Inactive)
REMARK    1  A    between atoms: C6_10  and  C7_11
REMARK    2  A    between atoms: C7_11  and  N3_12
REMARK    3  A    between atoms: N3_12  and  C8_14
REMARK    4  A    between atoms: C9_15  and  C10_16
REMARK    5  A    between atoms: C10_16  and  C11_17
REMARK    6  A    between atoms: C11_17  and  C12_18
REMARK    7  A    between atoms: C12_18  and  C13_19
ROOT
HETATM    1  N1  UNL     1      -8.477  12.562 -24.416  1.00  0.00    -0.064 NA
HETATM    2  C1  UNL     1      -9.141  12.073 -23.250  1.00  0.00     0.189 A
HETATM    3  N2  UNL     1      -9.565  10.889 -23.145  1.00  0.00    -0.360 N
ATOM      4  H2  UNL     1      -9.403  10.277 -23.944  1.00  0.00     0.162 HD
HETATM    5  C2  UNL     1     -10.246  10.312 -22.028  1.00  0.00     0.166 A
HETATM    6  C3  UNL     1     -10.322  11.174 -20.828  1.00  0.00     0.025 A
HETATM    7  C4  UNL     1     -10.824  10.695 -19.615  1.00  0.00     0.127 A
HETATM    8  F1  UNL     1     -11.265   9.427 -19.558  1.00  0.00    -0.205 F
HETATM    9  C5  UNL     1     -10.849  11.556 -18.511  1.00  0.00     0.051 A
HETATM   10  C6  UNL     1     -10.403  12.855 -18.563  1.00  0.00    -0.035 A
HETATM   11  C19 UNL     1      -9.916  13.292 -19.783  1.00  0.00     0.039 A
HETATM   12  C20 UNL     1      -9.877  12.455 -20.900  1.00  0.00     0.046 A
HETATM   13  N4  UNL     1      -9.277  12.945 -22.102  1.00  0.00    -0.330 N
ATOM     14  H4  UNL     1      -8.944  13.908 -22.150  1.00  0.00     0.168 HD
ENDROOT
BRANCH  10  15
HETATM   15  C7  UNL     1     -10.285  13.761 -17.409  1.00  0.00     0.157 C
BRANCH  15  16
HETATM   16  N3  UNL     1      -9.508  13.254 -16.297  1.00  0.00    -0.395 N
ATOM     17  H3  UNL     1      -9.412  12.261 -16.085  1.00  0.00     0.159 HD
BRANCH  16  18
HETATM   18  C8  UNL     1      -8.897  14.275 -15.535  1.00  0.00     0.079 C
HETATM   19  C9  UNL     1      -8.112  15.349 -16.100  1.00  0.00    -0.010 C
BRANCH  19  20
HETATM   20  C10 UNL     1      -6.868  15.212 -16.832  1.00  0.00     0.029 C
BRANCH  20  21
HETATM   21  C11 UNL     1      -7.014  15.045 -18.343  1.00  0.00     0.008 C
BRANCH  21  22
HETATM   22  C12 UNL     1      -5.877  14.093 -18.710  1.00  0.00     0.039 C
BRANCH  22  23
HETATM   23  C13 UNL     1      -6.273  12.772 -19.153  1.00  0.00    -0.058 A
HETATM   24  C14 UNL     1      -6.035  12.360 -20.452  1.00  0.00     0.007 A
HETATM   25  C15 UNL     1      -6.392  11.074 -20.834  1.00  0.00     0.001 A
HETATM   26  C16 UNL     1      -6.974  10.197 -19.973  1.00  0.00     0.000 A
HETATM   27  C17 UNL     1      -7.220  10.603 -18.671  1.00  0.00     0.001 A
HETATM   28  C18 UNL     1      -6.875  11.864 -18.273  1.00  0.00     0.007 A
ENDBRANCH  22  23
ENDBRANCH  21  22
ENDBRANCH  20  21
ENDBRANCH  19  20
ENDBRANCH  16  18
ENDBRANCH  15  16
ENDBRANCH  10  15
TORSDOF 7
ENDMDL