MODEL 4
REMARK VINA RESULT: -6.327171196      3.855      5.707
REMARK  11 active torsions:
REMARK  status: ('A' for Active; 'I' for Inactive)
REMARK    1  A    between atoms: N1_1  and  C1_5
REMARK    2  A    between atoms: C1_5  and  C2_6
REMARK    3  A    between atoms: C2_6  and  C3_7
REMARK    4  A    between atoms: C3_7  and  C4_8
REMARK    5  A    between atoms: C4_8  and  C5_9
REMARK    6  A    between atoms: C5_9  and  C6_10
REMARK    7  A    between atoms: C6_10  and  N2_11
REMARK    8  A    between atoms: N2_11  and  C7_13
REMARK    9  A    between atoms: N3_16  and  C10_17
REMARK   10  A    between atoms: C10_17  and  C11_18
REMARK   11  A    between atoms: C17_25  and  O1_26
ROOT
HETATM    1  C7  UNL     1      -8.007  16.713 -21.078  1.00  0.00     0.033 A
HETATM    2  C8  UNL     1      -8.748  15.839 -20.319  1.00  0.00     0.046 A
HETATM    3  C9  UNL     1      -8.154  15.047 -19.373  1.00  0.00     0.096 A
HETATM    4  N3  UNL     1      -6.838  15.110 -19.169  1.00  0.00    -0.334 N
HETATM    5  C17 UNL     1      -6.082  15.948 -19.887  1.00  0.00     0.144 A
HETATM    6  C18 UNL     1      -6.654  16.774 -20.865  1.00  0.00     0.085 A
ENDROOT
BRANCH   1   7
HETATM    7  N2  UNL     1      -8.550  17.456 -21.963  1.00  0.00    -0.390 N
ATOM      8  H2  UNL     1      -8.262  17.333 -22.933  1.00  0.00     0.159 HD
BRANCH   7   9
HETATM    9  C6  UNL     1      -9.545  18.457 -21.673  1.00  0.00     0.119 C
BRANCH   9  10
HETATM   10  C5  UNL     1      -9.480  19.619 -22.636  1.00  0.00     0.020 C
BRANCH  10  11
HETATM   11  C4  UNL     1     -10.776  19.752 -23.367  1.00  0.00     0.002 C
BRANCH  11  12
HETATM   12  C3  UNL     1     -10.526  19.368 -24.817  1.00  0.00     0.002 C
BRANCH  12  13
HETATM   13  C2  UNL     1      -9.009  19.367 -25.007  1.00  0.00     0.027 C
BRANCH  13  14
HETATM   14  C1  UNL     1      -8.635  18.018 -25.613  1.00  0.00     0.229 C
BRANCH  14  15
HETATM   15  N1  UNL     1      -9.644  17.029 -25.305  1.00  0.00    -0.079 N
ATOM     16  H13 UNL     1     -10.582  17.362 -25.527  1.00  0.00     0.274 HD
ATOM     17  H12 UNL     1      -9.608  16.237 -25.947  1.00  0.00     0.274 HD
ATOM     18  H11 UNL     1      -9.566  16.732 -24.332  1.00  0.00     0.274 HD
ENDBRANCH  14  15
ENDBRANCH  13  14
ENDBRANCH  12  13
ENDBRANCH  11  12
ENDBRANCH  10  11
ENDBRANCH   9  10
ENDBRANCH   7   9
ENDBRANCH   1   7
BRANCH   5  19
HETATM   19  O1  UNL     1      -4.707  16.079 -19.744  1.00  0.00    -0.346 OA
ATOM     20  H1  UNL     1      -4.208  16.833 -20.036  1.00  0.00     0.219 HD
ENDBRANCH   5  19
BRANCH   4  21
HETATM   21  C10 UNL     1      -6.227  14.275 -18.165  1.00  0.00     0.169 C
BRANCH  21  22
HETATM   22  C11 UNL     1      -7.045  14.016 -16.983  1.00  0.00    -0.038 A
HETATM   23  C12 UNL     1      -7.334  12.704 -16.615  1.00  0.00     0.009 A
HETATM   24  C13 UNL     1      -8.097  12.419 -15.505  1.00  0.00     0.002 A
HETATM   25  C14 UNL     1      -8.599  13.460 -14.722  1.00  0.00     0.024 A
HETATM   26  C15 UNL     1      -8.311  14.773 -15.088  1.00  0.00     0.034 A
HETATM   27 CL1  UNL     1      -8.926  16.104 -14.128  1.00  0.00    -0.084 Cl
HETATM   28  C16 UNL     1      -7.536  15.045 -16.216  1.00  0.00     0.032 A
ENDBRANCH  21  22
ENDBRANCH   4  21
TORSDOF 11
ENDMDL