MODEL 3
REMARK VINA RESULT: -6.198262750      2.474      3.539
REMARK  10 active torsions:
REMARK  status: ('A' for Active; 'I' for Inactive)
REMARK    1  A    between atoms: N1_1  and  C1_5
REMARK    2  A    between atoms: C1_5  and  C2_6
REMARK    3  A    between atoms: C5_9  and  C6_10
REMARK    4  A    between atoms: C6_10  and  O1_11
REMARK    5  A    between atoms: C6_10  and  C7_13
REMARK    6  A    between atoms: C7_13  and  N2_14
REMARK    7  A    between atoms: N2_14  and  C8_16
REMARK    8  A    between atoms: C8_16  and  C9_17
REMARK    9  A    between atoms: C9_17  and  S1_18
REMARK   10  A    between atoms: S1_18  and  C10_19
ROOT
HETATM    1  C6  UNL     1      -8.080  14.362 -20.556  1.00  0.00     0.168 C
ENDROOT
BRANCH   1   2
HETATM    2  C5  UNL     1      -6.712  14.409 -20.022  1.00  0.00    -0.028 A
HETATM    3  C4  UNL     1      -5.821  13.431 -20.400  1.00  0.00     0.010 A
HETATM    4  C3  UNL     1      -4.532  13.425 -19.931  1.00  0.00     0.009 A
HETATM    5  C2  UNL     1      -4.078  14.402 -19.062  1.00  0.00    -0.033 A
HETATM    6  C17 UNL     1      -4.993  15.369 -18.701  1.00  0.00     0.009 A
HETATM    7  C16 UNL     1      -6.293  15.393 -19.161  1.00  0.00     0.010 A
BRANCH   5   8
HETATM    8  C1  UNL     1      -2.702  14.437 -18.537  1.00  0.00     0.268 C
BRANCH   8   9
HETATM    9  N1  UNL     1      -2.532  13.489 -17.453  1.00  0.00    -0.075 N
ATOM     10  H13 UNL     1      -3.411  13.314 -16.966  1.00  0.00     0.274 HD
ATOM     11  H12 UNL     1      -2.358  12.547 -17.803  1.00  0.00     0.274 HD
ATOM     12  H11 UNL     1      -1.800  13.793 -16.811  1.00  0.00     0.274 HD
ENDBRANCH   8   9
ENDBRANCH   5   8
ENDBRANCH   1   2
BRANCH   1  13
HETATM   13  O1  UNL     1      -8.446  15.534 -21.183  1.00  0.00    -0.389 OA
ATOM     14  H1  UNL     1      -9.110  16.014 -20.703  1.00  0.00     0.210 HD
ENDBRANCH   1  13
BRANCH   1  15
HETATM   15  C7  UNL     1      -8.198  13.152 -21.481  1.00  0.00     0.150 C
BRANCH  15  16
HETATM   16  N2  UNL     1      -9.587  12.907 -21.687  1.00  0.00    -0.418 N
ATOM     17  H2  UNL     1     -10.231  13.652 -21.950  1.00  0.00     0.153 HD
BRANCH  16  18
HETATM   18  C8  UNL     1     -10.024  11.562 -21.504  1.00  0.00     0.124 C
BRANCH  18  19
HETATM   19  C9  UNL     1      -8.964  10.767 -20.805  1.00  0.00     0.098 C
BRANCH  19  20
HETATM   20  S1  UNL     1      -9.358  10.389 -19.092  1.00  0.00    -0.128 SA
BRANCH  20  21
HETATM   21  C10 UNL     1      -8.943  11.783 -18.052  1.00  0.00     0.000 A
HETATM   22  C11 UNL     1      -7.725  11.933 -17.473  1.00  0.00     0.020 A
HETATM   23  C12 UNL     1      -7.442  13.038 -16.667  1.00  0.00     0.025 A
HETATM   24  C13 UNL     1      -8.380  14.021 -16.423  1.00  0.00     0.034 A
HETATM   25 CL1  UNL     1      -8.045  15.418 -15.416  1.00  0.00    -0.084 Cl
HETATM   26  C14 UNL     1      -9.621  13.852 -17.022  1.00  0.00     0.025 A
HETATM   27  C15 UNL     1      -9.908  12.766 -17.818  1.00  0.00     0.020 A
ENDBRANCH  20  21
ENDBRANCH  19  20
ENDBRANCH  18  19
ENDBRANCH  16  18
ENDBRANCH  15  16
ENDBRANCH   1  15
TORSDOF 10
ENDMDL