MODEL 5
REMARK VINA RESULT: -6.906845075      2.027      3.372
REMARK  8 active torsions:
REMARK  status: ('A' for Active; 'I' for Inactive)
REMARK    1  A    between atoms: C3_4  and  C4_5
REMARK    2  A    between atoms: C4_5  and  C5_6
REMARK    3  A    between atoms: C5_6  and  C6_7
REMARK    4  A    between atoms: C6_7  and  N1_8
REMARK    5  A    between atoms: N1_8  and  C7_11
REMARK    6  A    between atoms: C7_11  and  C8_12
REMARK    7  A    between atoms: C8_12  and  N2_13
REMARK    8  A    between atoms: N2_13  and  C9_15
ROOT
HETATM    1  C7  UNL     1      -8.701  10.349 -19.640  1.00  0.00     0.251 C
ENDROOT
BRANCH   1   2
HETATM    2  N1  UNL     1      -9.634  10.015 -18.626  1.00  0.00    -0.074 N
ATOM      3  H12 UNL     1      -9.164   9.596 -17.823  1.00  0.00     0.277 HD
ATOM      4  H11 UNL     1     -10.214   9.225 -18.910  1.00  0.00     0.277 HD
BRANCH   2   5
HETATM    5  C6  UNL     1     -10.456  11.142 -18.216  1.00  0.00     0.232 C
BRANCH   5   6
HETATM    6  C5  UNL     1     -10.685  12.120 -19.339  1.00  0.00     0.033 C
BRANCH   6   7
HETATM    7  C4  UNL     1     -10.346  13.514 -18.867  1.00  0.00     0.060 C
BRANCH   7   8
HETATM    8  C3  UNL     1      -9.506  14.273 -19.791  1.00  0.00     0.029 A
HETATM    9  C2  UNL     1      -9.165  15.596 -19.790  1.00  0.00     0.070 A
HETATM   10  C1  UNL     1      -8.352  15.821 -20.875  1.00  0.00     0.119 A
HETATM   11 CL1  UNL     1      -7.628  17.363 -21.345  1.00  0.00    -0.063 Cl
HETATM   12  N5  UNL     1      -8.205  14.646 -21.523  1.00  0.00    -0.290 N
HETATM   13  N4  UNL     1      -8.897  13.732 -20.869  1.00  0.00    -0.304 N
ATOM     14  H5  UNL     1      -7.656  14.492 -22.368  1.00  0.00     0.188 HD
ATOM     15  H4  UNL     1      -8.963  12.751 -21.139  1.00  0.00     0.186 HD
ENDBRANCH   7   8
ENDBRANCH   6   7
ENDBRANCH   5   6
ENDBRANCH   2   5
ENDBRANCH   1   2
BRANCH   1  16
HETATM   16  C8  UNL     1      -7.264  10.285 -19.203  1.00  0.00     0.147 C
BRANCH  16  17
HETATM   17  N2  UNL     1      -6.935  11.135 -18.104  1.00  0.00    -0.386 N
ATOM     18  H2  UNL     1      -6.887  10.678 -17.193  1.00  0.00     0.159 HD
BRANCH  17  19
HETATM   19  C9  UNL     1      -6.668  12.510 -18.105  1.00  0.00     0.056 A
HETATM   20  C10 UNL     1      -5.855  13.107 -19.037  1.00  0.00     0.031 A
HETATM   21  C11 UNL     1      -5.583  14.457 -18.990  1.00  0.00     0.003 A
HETATM   22  C12 UNL     1      -6.146  15.216 -17.982  1.00  0.00     0.014 A
HETATM   23  C13 UNL     1      -6.974  14.629 -17.026  1.00  0.00    -0.007 A
HETATM   24  C14 UNL     1      -7.545  15.374 -16.010  1.00  0.00     0.015 A
HETATM   25  C17 UNL     1      -7.241  13.280 -17.078  1.00  0.00     0.069 A
HETATM   26  C15 UNL     1      -8.368  14.760 -15.069  1.00  0.00     0.018 A
HETATM   27  C16 UNL     1      -8.616  13.404 -15.148  1.00  0.00     0.088 A
HETATM   28  N3  UNL     1      -8.044  12.728 -16.145  1.00  0.00    -0.363 N
ATOM     29  H3  UNL     1      -8.226  11.726 -16.205  1.00  0.00     0.165 HD
ENDBRANCH  17  19
ENDBRANCH  16  17
ENDBRANCH   1  16
TORSDOF 8
ENDMDL