MODEL 5
REMARK VINA RESULT: -6.681794401      2.382      3.589
REMARK  9 active torsions:
REMARK  status: ('A' for Active; 'I' for Inactive)
REMARK    1  A    between atoms: C6_7  and  N2_8
REMARK    2  A    between atoms: N2_8  and  C7_10
REMARK    3  A    between atoms: C7_10  and  C8_11
REMARK    4  A    between atoms: C8_11  and  N3_12
REMARK    5  A    between atoms: N3_12  and  C9_14
REMARK    6  A    between atoms: C9_14  and  C10_15
REMARK    7  A    between atoms: C10_15  and  O1_16
REMARK    8  A    between atoms: C10_15  and  C11_18
REMARK    9  A    between atoms: C11_18  and  C12_19
ROOT
HETATM    1  N1  UNL     1      -6.264  11.694 -16.788  1.00  0.00    -0.191 NA
HETATM    2  C1  UNL     1      -7.223  11.581 -17.426  1.00  0.00     0.099 C
HETATM    3  C2  UNL     1      -8.431  11.425 -18.207  1.00  0.00     0.046 A
HETATM    4  C3  UNL     1      -9.626  11.796 -17.623  1.00  0.00     0.023 A
HETATM    5  C4  UNL     1     -10.797  11.658 -18.339  1.00  0.00     0.004 A
HETATM    6  C5  UNL     1     -10.752  11.152 -19.626  1.00  0.00     0.029 A
HETATM    7  C6  UNL     1      -9.578  10.775 -20.234  1.00  0.00     0.029 A
HETATM    8  C18 UNL     1      -8.424  10.925 -19.491  1.00  0.00     0.051 A
ENDROOT
BRANCH   7   9
HETATM    9  N2  UNL     1      -9.601  10.254 -21.555  1.00  0.00    -0.388 N
ATOM     10  H2  UNL     1      -9.330   9.281 -21.701  1.00  0.00     0.159 HD
BRANCH   9  11
HETATM   11  C7  UNL     1      -9.992  11.045 -22.705  1.00  0.00     0.139 C
BRANCH  11  12
HETATM   12  C8  UNL     1      -8.838  11.885 -23.134  1.00  0.00     0.133 C
BRANCH  12  13
HETATM   13  N3  UNL     1      -8.752  13.181 -22.560  1.00  0.00    -0.417 N
ATOM     14  H3  UNL     1      -9.531  13.838 -22.592  1.00  0.00     0.153 HD
BRANCH  13  15
HETATM   15  C9  UNL     1      -7.510  13.511 -21.933  1.00  0.00     0.145 C
BRANCH  15  16
HETATM   16  C10 UNL     1      -7.727  14.769 -21.114  1.00  0.00     0.139 C
BRANCH  16  17
HETATM   17  O1  UNL     1      -7.910  15.823 -21.990  1.00  0.00    -0.394 OA
ATOM     18  H1  UNL     1      -7.096  16.311 -22.036  1.00  0.00     0.210 HD
ENDBRANCH  16  17
BRANCH  16  19
HETATM   19  C11 UNL     1      -6.634  15.025 -20.122  1.00  0.00     0.072 C
BRANCH  19  20
HETATM   20  C12 UNL     1      -7.293  15.135 -18.779  1.00  0.00    -0.056 A
HETATM   21  C13 UNL     1      -6.511  15.134 -17.626  1.00  0.00     0.009 A
HETATM   22  C14 UNL     1      -7.065  15.234 -16.379  1.00  0.00     0.024 A
HETATM   23  C15 UNL     1      -8.455  15.341 -16.241  1.00  0.00     0.034 A
HETATM   24 CL1  UNL     1      -9.103  15.465 -14.638  1.00  0.00    -0.084 Cl
HETATM   25  C16 UNL     1      -9.229  15.342 -17.391  1.00  0.00     0.024 A
HETATM   26  C17 UNL     1      -8.669  15.241 -18.645  1.00  0.00     0.009 A
ENDBRANCH  19  20
ENDBRANCH  16  19
ENDBRANCH  15  16
ENDBRANCH  13  15
ENDBRANCH  12  13
ENDBRANCH  11  12
ENDBRANCH   9  11
ENDBRANCH   7   9
TORSDOF 9
ENDMDL