MODEL 3
REMARK VINA RESULT: -7.043898638      2.205      3.068
REMARK  8 active torsions:
REMARK  status: ('A' for Active; 'I' for Inactive)
REMARK    1  A    between atoms: C3_3  and  C4_4
REMARK    2  A    between atoms: C4_4  and  C5_5
REMARK    3  A    between atoms: C5_5  and  C6_6
REMARK    4  A    between atoms: C6_6  and  N1_7
REMARK    5  A    between atoms: N1_7  and  C7_10
REMARK    6  A    between atoms: C7_10  and  C8_11
REMARK    7  A    between atoms: C8_11  and  S1_12
REMARK    8  A    between atoms: S1_12  and  C9_13
ROOT
HETATM    1  C1  UNL     1      -8.276  15.196 -15.849  1.00  0.00     0.012 C
HETATM    2  C2  UNL     1      -9.041  14.532 -16.500  1.00  0.00    -0.117 C
HETATM    3  C3  UNL     1      -9.988  13.748 -17.279  1.00  0.00     0.093 C
ENDROOT
BRANCH   3   4
HETATM    4  C4  UNL     1      -9.515  12.295 -17.314  1.00  0.00     0.014 C
BRANCH   4   5
HETATM    5  C5  UNL     1     -10.458  11.578 -18.257  1.00  0.00     0.028 C
BRANCH   5   6
HETATM    6  C6  UNL     1     -10.124  10.126 -18.461  1.00  0.00     0.232 C
BRANCH   6   7
HETATM    7  N1  UNL     1     -11.116   9.578 -19.365  1.00  0.00    -0.074 N
ATOM      8  H12 UNL     1     -10.797   8.695 -19.766  1.00  0.00     0.277 HD
ATOM      9  H11 UNL     1     -11.932   9.241 -18.853  1.00  0.00     0.277 HD
BRANCH   7  10
HETATM   10  C7  UNL     1     -11.505  10.508 -20.404  1.00  0.00     0.242 C
BRANCH  10  11
HETATM   11  C8  UNL     1     -11.487   9.896 -21.775  1.00  0.00     0.110 C
BRANCH  11  12
HETATM   12  S1  UNL     1     -10.216  10.674 -22.801  1.00  0.00    -0.092 SA
BRANCH  12  13
HETATM   13  C9  UNL     1      -8.993  11.420 -21.733  1.00  0.00     0.146 A
HETATM   14  N2  UNL     1      -9.036  12.764 -21.466  1.00  0.00    -0.336 N
HETATM   15  C10 UNL     1      -8.151  13.356 -20.652  1.00  0.00     0.048 A
ATOM     16  H2  UNL     1      -9.765  13.331 -21.899  1.00  0.00     0.168 HD
HETATM   17  C11 UNL     1      -8.139  14.699 -20.343  1.00  0.00     0.032 A
HETATM   18  C15 UNL     1      -7.176  12.549 -20.083  1.00  0.00     0.036 A
HETATM   19  C12 UNL     1      -7.200  15.248 -19.498  1.00  0.00     0.026 A
HETATM   20  C13 UNL     1      -6.228  14.446 -18.931  1.00  0.00     0.035 A
HETATM   21 CL1  UNL     1      -5.048  15.146 -17.865  1.00  0.00    -0.084 Cl
HETATM   22  C14 UNL     1      -6.222  13.101 -19.226  1.00  0.00     0.041 A
HETATM   23  C16 UNL     1      -7.139  11.201 -20.357  1.00  0.00     0.113 A
HETATM   24  N3  UNL     1      -6.242  10.453 -19.832  1.00  0.00    -0.385 N
HETATM   25  N4  UNL     1      -8.051  10.645 -21.186  1.00  0.00    -0.323 N
ATOM     26  H32 UNL     1      -5.553  10.872 -19.207  1.00  0.00     0.157 HD
ATOM     27  H31 UNL     1      -6.214   9.453 -20.035  1.00  0.00     0.157 HD
ATOM     28  H4  UNL     1      -8.022   9.646 -21.390  1.00  0.00     0.169 HD
ENDBRANCH  12  13
ENDBRANCH  11  12
ENDBRANCH  10  11
ENDBRANCH   7  10
ENDBRANCH   6   7
ENDBRANCH   5   6
ENDBRANCH   4   5
ENDBRANCH   3   4
TORSDOF 8
ENDMDL