MODEL 4
REMARK VINA RESULT: -6.812964495      2.762      5.194
REMARK  9 active torsions:
REMARK  status: ('A' for Active; 'I' for Inactive)
REMARK    1  A    between atoms: N2_3  and  C2_5
REMARK    2  A    between atoms: C2_5  and  C3_6
REMARK    3  A    between atoms: C3_6  and  C4_7
REMARK    4  A    between atoms: C4_7  and  C5_8
REMARK    5  A    between atoms: C5_8  and  C6_9
REMARK    6  A    between atoms: C6_9  and  C7_10
REMARK    7  A    between atoms: C7_10  and  N3_11
REMARK    8  A    between atoms: N3_11  and  N4_13
REMARK    9  A    between atoms: N4_13  and  C8_15
ROOT
HETATM    1  N1  UNL     1      -7.229  12.286 -15.346  1.00  0.00    -0.172 NA
HETATM    2  C1  UNL     1      -8.067  12.931 -14.888  1.00  0.00     0.177 C
HETATM    3  N2  UNL     1      -9.106  13.706 -14.340  1.00  0.00    -0.329 N
ATOM      4  H2  UNL     1      -9.934  13.246 -13.961  1.00  0.00     0.171 HD
ENDROOT
BRANCH   3   5
HETATM    5  C2  UNL     1      -9.010  15.144 -14.310  1.00  0.00     0.131 C
BRANCH   5   6
HETATM    6  C3  UNL     1      -8.144  15.585 -15.483  1.00  0.00     0.020 C
BRANCH   6   7
HETATM    7  C4  UNL     1      -8.965  15.653 -16.743  1.00  0.00     0.002 C
BRANCH   7   8
HETATM    8  C5  UNL     1      -8.118  15.279 -17.920  1.00  0.00     0.002 C
BRANCH   8   9
HETATM    9  C6  UNL     1      -6.677  15.211 -17.491  1.00  0.00     0.021 C
BRANCH   9  10
HETATM   10  C7  UNL     1      -5.834  14.462 -18.516  1.00  0.00     0.139 C
BRANCH  10  11
HETATM   11  N3  UNL     1      -5.523  13.153 -18.011  1.00  0.00    -0.336 N
ATOM     12  H3  UNL     1      -4.620  13.004 -17.563  1.00  0.00     0.180 HD
BRANCH  11  13
HETATM   13  N4  UNL     1      -6.325  12.175 -18.099  1.00  0.00    -0.301 N
ATOM     14  H4  UNL     1      -6.682  11.709 -17.265  1.00  0.00     0.186 HD
BRANCH  13  15
HETATM   15  C8  UNL     1      -6.711  11.751 -19.401  1.00  0.00     0.108 A
HETATM   16  C9  UNL     1      -5.869  11.653 -20.505  1.00  0.00     0.147 A
HETATM   17  N5  UNL     1      -4.473  11.956 -20.535  1.00  0.00    -0.080 NA
HETATM   18  N6  UNL     1      -6.638  11.220 -21.513  1.00  0.00    -0.328 N
HETATM   19  C10 UNL     1      -7.918  11.032 -21.138  1.00  0.00     0.127 A
ATOM     20  H6  UNL     1      -6.293  11.051 -22.459  1.00  0.00     0.168 HD
HETATM   21  N7  UNL     1      -9.031  10.613 -21.795  1.00  0.00    -0.318 N
HETATM   22  C13 UNL     1      -7.970  11.367 -19.803  1.00  0.00     0.107 A
HETATM   23  C11 UNL     1     -10.216  10.509 -21.176  1.00  0.00     0.183 A
ATOM     24  H7  UNL     1      -8.965  10.372 -22.784  1.00  0.00     0.170 HD
HETATM   25 CL1  UNL     1     -11.658   9.961 -22.052  1.00  0.00    -0.045 Cl
HETATM   26  N8  UNL     1     -10.289  10.831 -19.874  1.00  0.00    -0.299 N
HETATM   27  C12 UNL     1      -9.196  11.254 -19.183  1.00  0.00     0.264 A
ATOM     28  H8  UNL     1     -11.186  10.757 -19.392  1.00  0.00     0.171 HD
HETATM   29  O1  UNL     1      -9.255  11.556 -17.968  1.00  0.00    -0.267 OA
ENDBRANCH  13  15
ENDBRANCH  11  13
ENDBRANCH  10  11
ENDBRANCH   9  10
ENDBRANCH   8   9
ENDBRANCH   7   8
ENDBRANCH   6   7
ENDBRANCH   5   6
ENDBRANCH   3   5
TORSDOF 9
ENDMDL