MODEL 5
REMARK VINA RESULT: -6.514114757      3.462      4.844
REMARK  9 active torsions:
REMARK  status: ('A' for Active; 'I' for Inactive)
REMARK    1  A    between atoms: N1_1  and  C1_4
REMARK    2  A    between atoms: C4_14  and  N5_15
REMARK    3  A    between atoms: N6_18  and  C5_19
REMARK    4  A    between atoms: C5_19  and  C6_20
REMARK    5  A    between atoms: C6_20  and  C7_21
REMARK    6  A    between atoms: C7_21  and  C8_22
REMARK    7  A    between atoms: C8_22  and  C9_23
REMARK    8  A    between atoms: C9_23  and  C10_24
REMARK    9  A    between atoms: C10_24  and  C11_25
ROOT
HETATM    1  C1  UNL     1      -8.617  10.832 -19.206  1.00  0.00     0.679 A
HETATM    2  N2  UNL     1      -8.455  10.462 -20.489  1.00  0.00    -0.175 N
ATOM      3  H2  UNL     1      -9.092   9.798 -20.931  1.00  0.00     0.186 HD
HETATM    4  C2  UNL     1      -7.426  10.994 -21.168  1.00  0.00     0.145 A
HETATM    5  N3  UNL     1      -7.265  10.645 -22.391  1.00  0.00    -0.383 N
ATOM      6  H31 UNL     1      -6.483  11.050 -22.907  1.00  0.00     0.157 HD
ATOM      7  H32 UNL     1      -7.905   9.983 -22.829  1.00  0.00     0.157 HD
HETATM    8  C3  UNL     1      -6.563  11.888 -20.578  1.00  0.00     0.125 A
HETATM    9  N4  UNL     1      -5.476  12.568 -20.986  1.00  0.00    -0.317 N
ATOM     10  H4  UNL     1      -5.075  12.516 -21.922  1.00  0.00     0.169 HD
HETATM   11  C4  UNL     1      -4.996  13.326 -19.988  1.00  0.00     0.254 A
HETATM   12  N6  UNL     1      -5.763  13.151 -18.908  1.00  0.00    -0.297 N
HETATM   13  C12 UNL     1      -6.736  12.263 -19.261  1.00  0.00     0.157 A
HETATM   14  N7  UNL     1      -7.780  11.706 -18.621  1.00  0.00    -0.174 N
ATOM     15  H7  UNL     1      -7.943  11.958 -17.646  1.00  0.00     0.186 HD
ENDROOT
BRANCH  12  16
HETATM   16  C5  UNL     1      -5.643  13.751 -17.592  1.00  0.00     0.134 C
BRANCH  16  17
HETATM   17  C6  UNL     1      -6.287  15.137 -17.545  1.00  0.00     0.020 C
BRANCH  17  18
HETATM   18  C7  UNL     1      -7.285  15.116 -16.411  1.00  0.00     0.002 C
BRANCH  18  19
HETATM   19  C8  UNL     1      -8.626  15.657 -16.803  1.00  0.00     0.000 C
BRANCH  19  20
HETATM   20  C9  UNL     1      -9.193  14.746 -17.872  1.00  0.00     0.001 C
BRANCH  20  21
HETATM   21  C10 UNL     1      -9.461  15.523 -19.138  1.00  0.00     0.011 C
BRANCH  21  22
HETATM   22  C11 UNL     1      -8.748  14.900 -20.297  1.00  0.00     0.086 C
HETATM   23  S1  UNL     1      -7.546  16.032 -21.017  1.00  0.00    -0.098 SA
ENDBRANCH  21  22
ENDBRANCH  20  21
ENDBRANCH  19  20
ENDBRANCH  18  19
ENDBRANCH  17  18
ENDBRANCH  16  17
ENDBRANCH  12  16
BRANCH  11  24
HETATM   24  N5  UNL     1      -3.855  14.167 -20.093  1.00  0.00    -0.079 N
HETATM   25  O1  UNL     1      -2.685  13.749 -20.021  1.00  0.00    -0.529 OA
HETATM   26  O2  UNL     1      -3.995  15.524 -20.285  1.00  0.00    -0.529 OA
ENDBRANCH  11  24
BRANCH   1  27
HETATM   27  N1  UNL     1      -9.609  10.313 -18.567  1.00  0.00    -0.234 N
ATOM     28  H12 UNL     1      -9.510   9.969 -17.612  1.00  0.00     0.174 HD
ATOM     29  H11 UNL     1     -10.501  10.263 -19.059  1.00  0.00     0.174 HD
ENDBRANCH   1  27
TORSDOF 9
ENDMDL