MODEL 3
REMARK VINA RESULT: -6.865942375      1.386      1.825
REMARK  11 active torsions:
REMARK  status: ('A' for Active; 'I' for Inactive)
REMARK    1  A    between atoms: N1_1  and  C1_4
REMARK    2  A    between atoms: C2_8  and  O1_9
REMARK    3  A    between atoms: O1_9  and  C3_10
REMARK    4  A    between atoms: C3_10  and  C4_11
REMARK    5  A    between atoms: C4_11  and  N3_12
REMARK    6  A    between atoms: N3_12  and  C5_14
REMARK    7  A    between atoms: C5_14  and  C6_15
REMARK    8  A    between atoms: C6_15  and  N4_16
REMARK    9  A    between atoms: C6_15  and  C7_20
REMARK   10  A    between atoms: C13_27  and  N5_28
REMARK   11  A    between atoms: N5_28  and  O2_30
ROOT
HETATM    1  C4  UNL     1      -7.059  13.915 -20.975  1.00  0.00     0.082 C
ENDROOT
BRANCH   1   2
HETATM    2  C3  UNL     1      -7.578  13.000 -22.011  1.00  0.00     0.220 C
BRANCH   2   3
HETATM    3  O1  UNL     1      -9.035  13.030 -22.006  1.00  0.00    -0.336 OA
BRANCH   3   4
HETATM    4  C2  UNL     1      -9.682  11.891 -21.533  1.00  0.00     0.159 A
HETATM    5  S1  UNL     1     -10.250  10.660 -22.653  1.00  0.00     0.015 SA
HETATM    6  N2  UNL     1     -10.905   9.590 -21.539  1.00  0.00    -0.309 N
HETATM    7  C1  UNL     1     -10.690  10.181 -20.347  1.00  0.00     0.137 A
ATOM      8  H2  UNL     1     -11.362   8.697 -21.721  1.00  0.00     0.176 HD
HETATM    9  C13 UNL     1     -10.051  11.377 -20.359  1.00  0.00     0.140 A
BRANCH   7  10
HETATM   10  N1  UNL     1     -11.136   9.556 -19.283  1.00  0.00    -0.383 N
ATOM     11  H12 UNL     1     -10.664   9.497 -18.382  1.00  0.00     0.157 HD
ATOM     12  H11 UNL     1     -12.046   9.102 -19.359  1.00  0.00     0.157 HD
ENDBRANCH   7  10
BRANCH   9  13
HETATM   13  N5  UNL     1      -9.756  12.090 -19.125  1.00  0.00    -0.262 N
ATOM     14  H5  UNL     1      -8.834  12.510 -19.009  1.00  0.00     0.194 HD
BRANCH  13  15
HETATM   15  O2  UNL     1     -10.578  12.204 -18.218  1.00  0.00    -0.289 OA
ATOM     16  H2  UNL     1     -11.027  11.456 -17.842  1.00  0.00     0.244 HD
ENDBRANCH  13  15
ENDBRANCH   9  13
ENDBRANCH   3   4
ENDBRANCH   2   3
ENDBRANCH   1   2
BRANCH   1  17
HETATM   17  N3  UNL     1      -7.868  14.767 -20.254  1.00  0.00    -0.398 N
ATOM     18  H3  UNL     1      -8.873  14.824 -20.417  1.00  0.00     0.158 HD
BRANCH  17  19
HETATM   19  C5  UNL     1      -7.203  15.579 -19.247  1.00  0.00     0.156 C
BRANCH  19  20
HETATM   20  C6  UNL     1      -6.558  14.513 -18.292  1.00  0.00     0.235 C
BRANCH  20  21
HETATM   21  N4  UNL     1      -5.267  15.170 -17.928  1.00  0.00    -0.069 N
ATOM     22  H43 UNL     1      -5.353  16.111 -17.542  1.00  0.00     0.275 HD
ATOM     23  H42 UNL     1      -4.796  14.777 -17.114  1.00  0.00     0.275 HD
ATOM     24  H41 UNL     1      -4.745  15.107 -18.802  1.00  0.00     0.275 HD
ENDBRANCH  20  21
BRANCH  20  25
HETATM   25  C7  UNL     1      -7.405  14.442 -17.072  1.00  0.00    -0.005 A
HETATM   26  C8  UNL     1      -7.978  15.522 -16.494  1.00  0.00     0.011 A
HETATM   27  C9  UNL     1      -8.649  15.464 -15.309  1.00  0.00     0.001 A
HETATM   28  C10 UNL     1      -8.728  14.201 -14.687  1.00  0.00     0.002 A
HETATM   29  C11 UNL     1      -8.150  13.106 -15.275  1.00  0.00     0.024 A
HETATM   30  C12 UNL     1      -7.470  13.170 -16.470  1.00  0.00     0.042 A
HETATM   31 CL1  UNL     1      -6.771  11.767 -17.232  1.00  0.00    -0.084 Cl
ENDBRANCH  20  25
ENDBRANCH  19  20
ENDBRANCH  17  19
ENDBRANCH   1  17
TORSDOF 11
ENDMDL