MODEL 4
REMARK VINA RESULT: -7.296256851      2.067      6.676
REMARK  9 active torsions:
REMARK  status: ('A' for Active; 'I' for Inactive)
REMARK    1  A    between atoms: N1_1  and  C1_4
REMARK    2  A    between atoms: C2_9  and  C3_10
REMARK    3  A    between atoms: C3_10  and  C4_11
REMARK    4  A    between atoms: C4_11  and  C5_12
REMARK    5  A    between atoms: C5_12  and  C6_13
REMARK    6  A    between atoms: C6_13  and  N4_14
REMARK    7  A    between atoms: N4_14  and  C7_17
REMARK    8  A    between atoms: C7_17  and  C8_18
REMARK    9  A    between atoms: C8_18  and  N5_19
ROOT
HETATM    1  N4  UNL     1      -8.407  15.380 -16.322  1.00  0.00    -0.074 N
ATOM      2  H41 UNL     1      -7.848  15.345 -15.469  1.00  0.00     0.277 HD
ATOM      3  H42 UNL     1      -8.872  16.276 -16.174  1.00  0.00     0.277 HD
ENDROOT
BRANCH   1   4
HETATM    4  C6  UNL     1      -9.368  14.288 -16.367  1.00  0.00     0.232 C
BRANCH   4   5
HETATM    5  C5  UNL     1      -8.751  12.964 -16.066  1.00  0.00     0.028 C
BRANCH   5   6
HETATM    6  C4  UNL     1      -9.012  11.992 -17.188  1.00  0.00     0.009 C
BRANCH   6   7
HETATM    7  C3  UNL     1      -9.915  12.528 -18.264  1.00  0.00     0.078 C
BRANCH   7   8
HETATM    8  C2  UNL     1     -10.370  11.362 -19.088  1.00  0.00     0.112 A
HETATM    9  N3  UNL     1     -10.955  10.228 -18.667  1.00  0.00    -0.274 N
HETATM   10  N2  UNL     1     -11.202   9.456 -19.711  1.00  0.00    -0.131 N
ATOM     11  H3  UNL     1     -11.174   9.999 -17.697  1.00  0.00     0.189 HD
HETATM   12  C1  UNL     1     -10.784  10.064 -20.832  1.00  0.00     0.691 A
ATOM     13  H2  UNL     1     -11.642   8.536 -19.670  1.00  0.00     0.205 HD
HETATM   14  N9  UNL     1     -10.268  11.255 -20.423  1.00  0.00    -0.178 N
ATOM     15  H9  UNL     1      -9.863  11.961 -21.038  1.00  0.00     0.185 HD
BRANCH  12  16
HETATM   16  N1  UNL     1     -10.853   9.621 -22.052  1.00  0.00    -0.233 N
ATOM     17  H12 UNL     1     -11.537   9.883 -22.761  1.00  0.00     0.174 HD
ATOM     18  H11 UNL     1     -10.241   8.943 -22.507  1.00  0.00     0.174 HD
ENDBRANCH  12  16
ENDBRANCH   7   8
ENDBRANCH   6   7
ENDBRANCH   5   6
ENDBRANCH   4   5
ENDBRANCH   1   4
BRANCH   1  19
HETATM   19  C7  UNL     1      -7.569  15.415 -17.493  1.00  0.00     0.252 C
BRANCH  19  20
HETATM   20  C8  UNL     1      -6.148  15.146 -17.094  1.00  0.00     0.159 C
BRANCH  20  21
HETATM   21  N5  UNL     1      -5.260  14.859 -18.196  1.00  0.00    -0.326 N
HETATM   22  C9  UNL     1      -4.240  15.635 -18.643  1.00  0.00     0.185 A
HETATM   23  N6  UNL     1      -3.624  15.050 -19.679  1.00  0.00    -0.348 N
HETATM   24  C10 UNL     1      -4.236  13.886 -19.925  1.00  0.00     0.102 A
ATOM     25  H6  UNL     1      -2.827  15.428 -20.192  1.00  0.00     0.167 HD
HETATM   26  C11 UNL     1      -3.996  12.905 -20.887  1.00  0.00     0.080 A
HETATM   27  C14 UNL     1      -5.251  13.772 -19.000  1.00  0.00     0.138 A
HETATM   28  N7  UNL     1      -2.943  13.087 -21.797  1.00  0.00    -0.100 NA
HETATM   29  C12 UNL     1      -4.840  11.819 -20.852  1.00  0.00     0.071 A
HETATM   30  C13 UNL     1      -5.856  11.722 -19.917  1.00  0.00     0.106 A
HETATM   31 CL1  UNL     1      -6.893  10.288 -19.947  1.00  0.00    -0.064 Cl
HETATM   32  N8  UNL     1      -6.051  12.689 -19.008  1.00  0.00    -0.331 N
ATOM     33  H8  UNL     1      -6.803  12.604 -18.324  1.00  0.00     0.168 HD
ENDBRANCH  20  21
ENDBRANCH  19  20
ENDBRANCH   1  19
TORSDOF 9
ENDMDL