MODEL 5
REMARK VINA RESULT: -6.902976259      2.886      5.940
REMARK  10 active torsions:
REMARK  status: ('A' for Active; 'I' for Inactive)
REMARK    1  A    between atoms: N1_1  and  C1_4
REMARK    2  A    between atoms: C3_11  and  C4_12
REMARK    3  A    between atoms: C4_12  and  C5_13
REMARK    4  A    between atoms: C5_13  and  C6_14
REMARK    5  A    between atoms: C6_14  and  C7_15
REMARK    6  A    between atoms: C7_15  and  C8_16
REMARK    7  A    between atoms: C8_16  and  C9_17
REMARK    8  A    between atoms: C9_17  and  S1_18
REMARK    9  A    between atoms: S1_18  and  C10_19
REMARK   10  A    between atoms: C11_22  and  O1_23
ROOT
HETATM    1  C5  UNL     1      -7.182  15.468 -16.635  1.00  0.00    -0.023 C
ENDROOT
BRANCH   1   2
HETATM    2  C4  UNL     1      -6.840  15.217 -18.029  1.00  0.00     0.045 C
BRANCH   2   3
HETATM    3  C3  UNL     1      -5.560  14.691 -18.445  1.00  0.00     0.122 A
HETATM    4  N4  UNL     1      -4.371  14.955 -17.860  1.00  0.00    -0.316 N
HETATM    5  C2  UNL     1      -3.196  14.453 -18.267  1.00  0.00     0.208 A
ATOM      6  H4  UNL     1      -4.366  15.579 -17.054  1.00  0.00     0.170 HD
HETATM    7  N2  UNL     1      -3.192  13.619 -19.344  1.00  0.00    -0.164 N
HETATM    8  N3  UNL     1      -1.964  14.751 -17.627  1.00  0.00    -0.063 NA
HETATM    9  C1  UNL     1      -4.356  13.347 -19.937  1.00  0.00     0.679 A
ATOM     10  H2  UNL     1      -2.321  13.214 -19.688  1.00  0.00     0.187 HD
HETATM   11  N7  UNL     1      -5.519  13.862 -19.509  1.00  0.00    -0.177 N
ATOM     12  H7  UNL     1      -6.383  13.625 -19.995  1.00  0.00     0.185 HD
BRANCH   9  13
HETATM   13  N1  UNL     1      -4.418  12.554 -20.976  1.00  0.00    -0.234 N
ATOM     14  H12 UNL     1      -3.573  12.026 -21.193  1.00  0.00     0.174 HD
ATOM     15  H11 UNL     1      -5.271  12.477 -21.531  1.00  0.00     0.174 HD
ENDBRANCH   9  13
ENDBRANCH   2   3
ENDBRANCH   1   2
BRANCH   1  16
HETATM   16  C6  UNL     1      -8.543  15.339 -16.090  1.00  0.00     0.027 C
BRANCH  16  17
HETATM   17  C7  UNL     1      -8.744  14.239 -15.136  1.00  0.00     0.004 C
BRANCH  17  18
HETATM   18  C8  UNL     1      -8.566  12.863 -15.784  1.00  0.00     0.011 C
BRANCH  18  19
HETATM   19  C9  UNL     1      -9.437  12.700 -16.985  1.00  0.00     0.082 C
BRANCH  19  20
HETATM   20  S1  UNL     1      -8.570  11.789 -18.295  1.00  0.00    -0.094 SA
BRANCH  20  21
HETATM   21  C10 UNL     1      -9.788  11.201 -19.457  1.00  0.00     0.147 A
HETATM   22  N5  UNL     1     -10.147  11.867 -20.567  1.00  0.00    -0.315 N
HETATM   23  C11 UNL     1     -11.083  11.159 -21.230  1.00  0.00     0.181 A
ATOM     24  H5  UNL     1      -9.769  12.768 -20.862  1.00  0.00     0.170 HD
HETATM   25  C12 UNL     1     -11.317  10.015 -20.510  1.00  0.00     0.156 A
HETATM   26 CL1  UNL     1     -12.447   8.765 -20.945  1.00  0.00    -0.060 Cl
HETATM   27  N6  UNL     1     -10.521  10.055 -19.435  1.00  0.00    -0.324 N
ATOM     28  H6  UNL     1     -10.472   9.338 -18.712  1.00  0.00     0.169 HD
BRANCH  23  29
HETATM   29  O1  UNL     1     -11.695  11.524 -22.415  1.00  0.00    -0.344 OA
ATOM     30  H1  UNL     1     -12.290  10.988 -22.926  1.00  0.00     0.219 HD
ENDBRANCH  23  29
ENDBRANCH  20  21
ENDBRANCH  19  20
ENDBRANCH  18  19
ENDBRANCH  17  18
ENDBRANCH  16  17
ENDBRANCH   1  16
TORSDOF 10
ENDMDL