MODEL 3
REMARK VINA RESULT: -6.551838054      2.733      3.874
REMARK  9 active torsions:
REMARK  status: ('A' for Active; 'I' for Inactive)
REMARK    1  A    between atoms: N1_1  and  C1_4
REMARK    2  A    between atoms: C2_9  and  C3_10
REMARK    3  A    between atoms: C3_10  and  C4_11
REMARK    4  A    between atoms: C4_11  and  C5_12
REMARK    5  A    between atoms: C5_12  and  N4_13
REMARK    6  A    between atoms: N4_13  and  C6_15
REMARK    7  A    between atoms: C7_16  and  C8_17
REMARK    8  A    between atoms: C8_17  and  N5_18
REMARK    9  A    between atoms: C12_26  and  N6_27
ROOT
HETATM    1  N4  UNL     1     -10.284  13.435 -17.926  1.00  0.00    -0.387 N
ATOM      2  H4  UNL     1     -11.281  13.582 -17.770  1.00  0.00     0.159 HD
ENDROOT
BRANCH   1   3
HETATM    3  C5  UNL     1      -9.359  13.675 -16.866  1.00  0.00     0.120 C
BRANCH   3   4
HETATM    4  C4  UNL     1      -8.597  12.447 -16.443  1.00  0.00     0.027 C
BRANCH   4   5
HETATM    5  C3  UNL     1      -7.103  12.643 -16.545  1.00  0.00     0.080 C
BRANCH   5   6
HETATM    6  C2  UNL     1      -6.611  12.157 -17.855  1.00  0.00     0.112 A
HETATM    7  N3  UNL     1      -5.809  12.846 -18.716  1.00  0.00    -0.274 N
HETATM    8  N2  UNL     1      -5.576  12.101 -19.785  1.00  0.00    -0.131 N
ATOM      9  H3  UNL     1      -5.446  13.786 -18.561  1.00  0.00     0.189 HD
HETATM   10  C1  UNL     1      -6.208  10.922 -19.654  1.00  0.00     0.691 A
ATOM     11  H2  UNL     1      -5.005  12.379 -20.583  1.00  0.00     0.205 HD
HETATM   12  N7  UNL     1      -6.836  10.978 -18.465  1.00  0.00    -0.178 N
ATOM     13  H7  UNL     1      -7.406  10.227 -18.078  1.00  0.00     0.185 HD
BRANCH  10  14
HETATM   14  N1  UNL     1      -6.205   9.933 -20.515  1.00  0.00    -0.233 N
ATOM     15  H12 UNL     1      -6.853   9.147 -20.566  1.00  0.00     0.174 HD
ATOM     16  H11 UNL     1      -5.544   9.793 -21.279  1.00  0.00     0.174 HD
ENDBRANCH  10  14
ENDBRANCH   5   6
ENDBRANCH   4   5
ENDBRANCH   3   4
ENDBRANCH   1   3
BRANCH   1  17
HETATM   17  C6  UNL     1      -9.833  12.997 -19.180  1.00  0.00     0.071 A
HETATM   18  C7  UNL     1     -10.129  11.741 -19.621  1.00  0.00    -0.004 A
HETATM   19  C9  UNL     1      -9.675  11.308 -20.872  1.00  0.00     0.013 A
HETATM   20  C10 UNL     1      -8.928  12.134 -21.673  1.00  0.00     0.027 A
HETATM   21  C11 UNL     1      -8.620  13.417 -21.229  1.00  0.00     0.069 A
HETATM   22 CL1  UNL     1      -7.669  14.517 -22.207  1.00  0.00    -0.082 Cl
HETATM   23  C12 UNL     1      -9.084  13.811 -19.992  1.00  0.00     0.151 A
BRANCH  18  24
HETATM   24  C8  UNL     1     -10.921  10.813 -18.822  1.00  0.00     0.270 C
BRANCH  24  25
HETATM   25  N5  UNL     1     -11.120   9.528 -19.511  1.00  0.00    -0.075 N
ATOM     26  H53 UNL     1     -11.146   9.650 -20.524  1.00  0.00     0.274 HD
ATOM     27  H52 UNL     1     -10.291   8.937 -19.442  1.00  0.00     0.274 HD
ATOM     28  H51 UNL     1     -11.951   9.041 -19.176  1.00  0.00     0.274 HD
ENDBRANCH  24  25
ENDBRANCH  18  24
BRANCH  23  29
HETATM   29  N6  UNL     1      -8.766  15.119 -19.548  1.00  0.00    -0.112 N
HETATM   30  O1  UNL     1      -9.625  16.017 -19.566  1.00  0.00    -0.532 OA
HETATM   31  O2  UNL     1      -7.522  15.453 -19.087  1.00  0.00    -0.532 OA
ENDBRANCH  23  29
ENDBRANCH   1  17
TORSDOF 9
ENDMDL