MODEL 2
REMARK VINA RESULT: -7.386652613      2.453      4.155
REMARK  9 active torsions:
REMARK  status: ('A' for Active; 'I' for Inactive)
REMARK    1  A    between atoms: N1_1  and  C1_5
REMARK    2  A    between atoms: C1_5  and  C2_6
REMARK    3  A    between atoms: C2_6  and  C3_7
REMARK    4  A    between atoms: C2_6  and  N2_11
REMARK    5  A    between atoms: C3_7  and  C4_8
REMARK    6  A    between atoms: N2_11  and  C5_13
REMARK    7  A    between atoms: C9_19  and  N4_20
REMARK    8  A    between atoms: N4_20  and  N5_22
REMARK    9  A    between atoms: N5_22  and  C10_24
ROOT
HETATM    1  C5  UNL     1      -8.306  10.713 -20.255  1.00  0.00     0.072 A
HETATM    2  C6  UNL     1      -9.506  10.755 -20.915  1.00  0.00     0.119 A
HETATM    3  N3  UNL     1     -10.718  11.003 -20.335  1.00  0.00    -0.373 N
ATOM      4  H3  UNL     1     -11.571  11.019 -20.894  1.00  0.00     0.164 HD
HETATM    5  C7  UNL     1     -10.759  11.225 -19.019  1.00  0.00     0.090 A
HETATM    6  C8  UNL     1      -9.605  11.202 -18.260  1.00  0.00     0.050 A
HETATM    7  C9  UNL     1      -8.401  10.952 -18.852  1.00  0.00     0.077 A
ENDROOT
BRANCH   1   8
HETATM    8  N2  UNL     1      -7.030  10.545 -20.783  1.00  0.00    -0.380 N
ATOM      9  H2  UNL     1      -6.433   9.963 -20.196  1.00  0.00     0.160 HD
BRANCH   8  10
HETATM   10  C2  UNL     1      -6.382  10.995 -21.937  1.00  0.00     0.117 C
BRANCH  10  11
HETATM   11  C1  UNL     1      -5.439   9.894 -22.486  1.00  0.00     0.255 C
BRANCH  11  12
HETATM   12  N1  UNL     1      -5.346   8.773 -21.567  1.00  0.00    -0.077 N
ATOM     13  H13 UNL     1      -5.469   9.071 -20.600  1.00  0.00     0.274 HD
ATOM     14  H12 UNL     1      -6.155   8.157 -21.644  1.00  0.00     0.274 HD
ATOM     15  H11 UNL     1      -4.472   8.262 -21.694  1.00  0.00     0.274 HD
ENDBRANCH  11  12
ENDBRANCH  10  11
BRANCH  10  16
HETATM   16  C3  UNL     1      -5.662  12.281 -21.956  1.00  0.00     0.139 C
BRANCH  16  17
HETATM   17  C4  UNL     1      -5.602  12.852 -20.561  1.00  0.00     0.174 C
HETATM   18  O1  UNL     1      -4.729  12.476 -19.751  1.00  0.00    -0.648 OA
HETATM   19  O2  UNL     1      -6.507  13.808 -20.132  1.00  0.00    -0.648 OA
ENDBRANCH  16  17
ENDBRANCH  10  16
ENDBRANCH   8  10
ENDBRANCH   1   8
BRANCH   7  20
HETATM   20  N4  UNL     1      -7.198  10.830 -18.094  1.00  0.00    -0.297 N
ATOM     21  H4  UNL     1      -6.773   9.912 -17.966  1.00  0.00     0.187 HD
BRANCH  20  22
HETATM   22  N5  UNL     1      -6.611  11.930 -17.540  1.00  0.00    -0.285 N
ATOM     23  H5  UNL     1      -5.614  12.036 -17.730  1.00  0.00     0.188 HD
BRANCH  22  24
HETATM   24  C10 UNL     1      -7.185  12.938 -16.744  1.00  0.00     0.119 A
HETATM   25  C11 UNL     1      -7.777  12.563 -15.530  1.00  0.00     0.051 A
HETATM   26  C12 UNL     1      -8.316  13.564 -14.750  1.00  0.00     0.029 A
HETATM   27  C13 UNL     1      -8.303  14.893 -15.101  1.00  0.00     0.049 A
HETATM   28 CL1  UNL     1      -8.996  16.120 -14.059  1.00  0.00    -0.083 Cl
HETATM   29  C14 UNL     1      -7.703  15.198 -16.318  1.00  0.00     0.113 A
HETATM   30  N6  UNL     1      -7.179  14.233 -17.077  1.00  0.00    -0.350 N
ATOM     31  H6  UNL     1      -6.749  14.498 -17.962  1.00  0.00     0.166 HD
ENDBRANCH  22  24
ENDBRANCH  20  22
ENDBRANCH   7  20
TORSDOF 9
ENDMDL