MODEL 3
REMARK VINA RESULT: -7.490371189      3.062      4.312
REMARK  9 active torsions:
REMARK  status: ('A' for Active; 'I' for Inactive)
REMARK    1  A    between atoms: C2_3  and  C3_4
REMARK    2  A    between atoms: C10_17  and  N4_18
REMARK    3  A    between atoms: N5_20  and  C11_22
REMARK    4  A    between atoms: C11_22  and  C12_23
REMARK    5  A    between atoms: C12_23  and  C13_24
REMARK    6  A    between atoms: C13_24  and  N6_25
REMARK    7  A    between atoms: N6_25  and  C14_28
REMARK    8  A    between atoms: C14_28  and  C15_29
REMARK    9  A    between atoms: C15_29  and  O2_30
ROOT
HETATM    1  N1  UNL     1      -8.438  14.551 -19.677  1.00  0.00    -0.097 NA
HETATM    2  C1  UNL     1      -7.073  14.938 -19.602  1.00  0.00     0.108 A
HETATM    3  C2  UNL     1      -6.436  14.884 -18.373  1.00  0.00     0.085 A
HETATM    4  N2  UNL     1      -5.135  15.276 -18.371  1.00  0.00    -0.295 N
ATOM      5  H2  UNL     1      -4.611  15.259 -17.496  1.00  0.00     0.187 HD
HETATM    6  N3  UNL     1      -4.532  15.681 -19.476  1.00  0.00    -0.264 N
ATOM      7  H3  UNL     1      -3.554  15.964 -19.415  1.00  0.00     0.190 HD
HETATM    8  C9  UNL     1      -5.130  15.738 -20.665  1.00  0.00     0.289 A
HETATM    9  O1  UNL     1      -4.536  16.128 -21.713  1.00  0.00    -0.264 OA
HETATM   10  C10 UNL     1      -6.438  15.362 -20.756  1.00  0.00     0.144 A
ENDROOT
BRANCH  10  11
HETATM   11  N4  UNL     1      -7.208  15.378 -21.954  1.00  0.00    -0.298 N
HETATM   12  N5  UNL     1      -7.799  16.410 -22.335  1.00  0.00    -0.336 N
ATOM     13  H5  UNL     1      -8.332  16.350 -23.202  1.00  0.00     0.180 HD
ATOM     14  H4  UNL     1      -7.279  14.528 -22.513  1.00  0.00     0.186 HD
BRANCH  12  15
HETATM   15  C11 UNL     1      -7.791  17.686 -21.649  1.00  0.00     0.141 C
BRANCH  15  16
HETATM   16  C12 UNL     1      -6.931  18.606 -22.525  1.00  0.00     0.048 C
BRANCH  16  17
HETATM   17  C13 UNL     1      -7.520  18.666 -23.925  1.00  0.00     0.234 C
BRANCH  17  18
HETATM   18  N6  UNL     1      -8.374  19.816 -24.075  1.00  0.00    -0.073 N
ATOM     19  H62 UNL     1      -8.339  20.423 -23.256  1.00  0.00     0.277 HD
ATOM     20  H61 UNL     1      -8.007  20.470 -24.767  1.00  0.00     0.277 HD
BRANCH  18  21
HETATM   21  C14 UNL     1      -9.727  19.412 -24.385  1.00  0.00     0.258 C
BRANCH  21  22
HETATM   22  C15 UNL     1     -10.621  19.715 -23.188  1.00  0.00     0.191 C
BRANCH  22  23
HETATM   23  O2  UNL     1      -9.957  20.450 -22.232  1.00  0.00    -0.399 OA
ATOM     24  H2  UNL     1     -10.550  21.011 -21.746  1.00  0.00     0.209 HD
ENDBRANCH  22  23
ENDBRANCH  21  22
ENDBRANCH  18  21
ENDBRANCH  17  18
ENDBRANCH  16  17
ENDBRANCH  15  16
ENDBRANCH  12  15
ENDBRANCH  10  11
BRANCH   3  25
HETATM   25  C3  UNL     1      -7.115  14.450 -17.150  1.00  0.00    -0.004 A
HETATM   26  C4  UNL     1      -7.232  13.104 -16.832  1.00  0.00     0.014 A
HETATM   27  C5  UNL     1      -7.888  12.717 -15.663  1.00  0.00     0.003 A
HETATM   28  C6  UNL     1      -8.434  13.629 -14.796  1.00  0.00     0.024 A
HETATM   29  C7  UNL     1      -8.317  14.965 -15.112  1.00  0.00     0.035 A
HETATM   30 CL1  UNL     1      -9.009  16.142 -14.017  1.00  0.00    -0.084 Cl
HETATM   31  C8  UNL     1      -7.669  15.357 -16.270  1.00  0.00     0.037 A
ENDBRANCH   3  25
TORSDOF 9
ENDMDL