MODEL 1
REMARK VINA RESULT: -8.935430627      0.000      0.000
REMARK  7 active torsions:
REMARK  status: ('A' for Active; 'I' for Inactive)
REMARK    1  A    between atoms: N1_1  and  N2_4
REMARK    2  A    between atoms: N2_4  and  C1_5
REMARK    3  A    between atoms: C1_5  and  C2_6
REMARK    4  A    between atoms: C2_6  and  N3_7
REMARK    5  A    between atoms: N3_7  and  C3_9
REMARK    6  A    between atoms: C5_11  and  N4_12
REMARK    7  A    between atoms: N4_12  and  N5_14
ROOT
HETATM    1  C3  UNL     1      -9.118  12.868 -21.739  1.00  0.00     0.103 A
HETATM    2  C4  UNL     1      -9.707  11.679 -22.082  1.00  0.00     0.081 A
HETATM    3  C5  UNL     1     -10.154  10.777 -21.106  1.00  0.00     0.088 A
HETATM    4  C6  UNL     1      -9.949  11.192 -19.810  1.00  0.00     0.105 A
HETATM    5  N6  UNL     1     -10.243  10.597 -18.658  1.00  0.00    -0.296 N
ATOM      6  H6  UNL     1     -10.693   9.686 -18.574  1.00  0.00     0.187 HD
HETATM    7  N7  UNL     1      -9.866  11.358 -17.630  1.00  0.00    -0.297 N
ATOM      8  H7  UNL     1      -9.981  11.126 -16.643  1.00  0.00     0.187 HD
HETATM    9  C7  UNL     1      -9.309  12.482 -18.115  1.00  0.00     0.087 A
HETATM   10  C8  UNL     1      -8.777  13.556 -17.306  1.00  0.00    -0.003 A
HETATM   11  C9  UNL     1      -7.563  14.109 -17.624  1.00  0.00     0.014 A
HETATM   12  C10 UNL     1      -6.999  15.138 -16.892  1.00  0.00     0.004 A
HETATM   13  C11 UNL     1      -7.731  15.593 -15.801  1.00  0.00     0.042 A
HETATM   14  C12 UNL     1      -8.952  15.075 -15.439  1.00  0.00     0.117 A
HETATM   15  F1  UNL     1      -9.583  15.579 -14.370  1.00  0.00    -0.206 F
HETATM   16  C13 UNL     1      -9.456  14.043 -16.219  1.00  0.00     0.056 A
HETATM   17  C14 UNL     1      -9.348  12.402 -19.499  1.00  0.00     0.093 A
HETATM   18  N8  UNL     1      -8.933  13.241 -20.466  1.00  0.00    -0.339 N
ATOM     19  H8  UNL     1      -8.493  14.132 -20.237  1.00  0.00     0.167 HD
ENDROOT
BRANCH   1  20
HETATM   20  N3  UNL     1      -8.683  13.746 -22.799  1.00  0.00    -0.375 N
ATOM     21  H3  UNL     1      -8.757  14.756 -22.683  1.00  0.00     0.161 HD
BRANCH  20  22
HETATM   22  C2  UNL     1      -8.145  13.204 -24.016  1.00  0.00     0.139 C
BRANCH  22  23
HETATM   23  C1  UNL     1      -8.256  14.234 -25.114  1.00  0.00     0.153 C
BRANCH  23  24
HETATM   24  N2  UNL     1      -9.477  14.087 -25.870  1.00  0.00    -0.147 NA
BRANCH  24  25
HETATM   25  N1  UNL     1     -10.247  15.236 -25.880  1.00  0.00    -0.348 N
ATOM     26  H12 UNL     1     -10.268  15.891 -25.099  1.00  0.00     0.172 HD
ATOM     27  H11 UNL     1     -10.781  15.350 -26.742  1.00  0.00     0.172 HD
ENDBRANCH  24  25
ENDBRANCH  23  24
ENDBRANCH  22  23
ENDBRANCH  20  22
ENDBRANCH   1  20
BRANCH   3  28
HETATM   28  N4  UNL     1     -10.745   9.585 -21.515  1.00  0.00    -0.239 N
ATOM     29  H4  UNL     1     -10.112   8.786 -21.563  1.00  0.00     0.193 HD
BRANCH  28  30
HETATM   30  N5  UNL     1     -12.043   9.315 -21.865  1.00  0.00    -0.038 N
HETATM   31  O1  UNL     1     -12.542   9.977 -22.818  1.00  0.00    -0.516 OA
HETATM   32  O2  UNL     1     -12.848   8.394 -21.260  1.00  0.00    -0.516 OA
ENDBRANCH  28  30
ENDBRANCH   3  28
TORSDOF 7
ENDMDL