MODEL 1
REMARK VINA RESULT: -7.172010663      0.000      0.000
REMARK  9 active torsions:
REMARK  status: ('A' for Active; 'I' for Inactive)
REMARK    1  A    between atoms: N1_1  and  C1_4
REMARK    2  A    between atoms: C2_7  and  C3_8
REMARK    3  A    between atoms: C6_14  and  N4_15
REMARK    4  A    between atoms: N4_15  and  C7_17
REMARK    5  A    between atoms: C7_17  and  C8_18
REMARK    6  A    between atoms: C8_18  and  C9_19
REMARK    7  A    between atoms: C9_19  and  C10_20
REMARK    8  A    between atoms: C10_20  and  C11_21
REMARK    9  A    between atoms: C11_21  and  N5_22
ROOT
HETATM    1  C3  UNL     1      -7.721  12.969 -16.398  1.00  0.00     0.063 A
HETATM    2  C4  UNL     1      -8.149  12.325 -15.258  1.00  0.00     0.107 A
HETATM    3  N3  UNL     1      -8.648  13.232 -14.401  1.00  0.00    -0.354 N
ATOM      4  H3  UNL     1      -9.031  13.014 -13.481  1.00  0.00     0.166 HD
HETATM    5  C5  UNL     1      -8.572  14.473 -14.929  1.00  0.00     0.131 A
HETATM    6 CL1  UNL     1      -9.128  15.970 -14.160  1.00  0.00    -0.062 Cl
HETATM    7  C6  UNL     1      -7.994  14.315 -16.176  1.00  0.00     0.083 A
ENDROOT
BRANCH   7   8
HETATM    8  N4  UNL     1      -7.706  15.322 -17.107  1.00  0.00    -0.387 N
ATOM      9  H4  UNL     1      -6.930  15.955 -16.910  1.00  0.00     0.159 HD
BRANCH   8  10
HETATM   10  C7  UNL     1      -8.446  15.511 -18.324  1.00  0.00     0.120 C
BRANCH  10  11
HETATM   11  C8  UNL     1      -7.507  15.498 -19.492  1.00  0.00     0.020 C
BRANCH  11  12
HETATM   12  C9  UNL     1      -8.008  14.583 -20.608  1.00  0.00     0.003 C
BRANCH  12  13
HETATM   13  C10 UNL     1      -9.277  13.936 -20.119  1.00  0.00     0.022 C
BRANCH  13  14
HETATM   14  C11 UNL     1      -9.726  12.762 -20.924  1.00  0.00     0.145 C
BRANCH  14  15
HETATM   15  N5  UNL     1     -10.340  11.759 -20.110  1.00  0.00    -0.296 N
HETATM   16  C12 UNL     1     -10.467  10.342 -20.417  1.00  0.00     0.280 C
HETATM   17  N6  UNL     1     -10.482   9.797 -19.055  1.00  0.00    -0.103 NA
HETATM   18  N7  UNL     1     -11.020  10.809 -18.258  1.00  0.00    -0.231 N
HETATM   19  N8  UNL     1     -10.936  11.928 -18.865  1.00  0.00    -0.232 N
ATOM     20  H7  UNL     1     -11.420  10.674 -17.329  1.00  0.00     0.205 HD
ATOM     21  H8  UNL     1     -11.261  12.820 -18.491  1.00  0.00     0.209 HD
ENDBRANCH  14  15
ENDBRANCH  13  14
ENDBRANCH  12  13
ENDBRANCH  11  12
ENDBRANCH  10  11
ENDBRANCH   8  10
ENDBRANCH   7   8
BRANCH   1  22
HETATM   22  C2  UNL     1      -7.129  12.319 -17.561  1.00  0.00     0.199 A
HETATM   23  N2  UNL     1      -7.586  11.273 -18.244  1.00  0.00    -0.166 N
HETATM   24  C1  UNL     1      -6.720  11.014 -19.239  1.00  0.00     0.698 A
ATOM     25  H2  UNL     1      -8.443  10.758 -18.047  1.00  0.00     0.186 HD
HETATM   26  N9  UNL     1      -5.727  11.915 -19.156  1.00  0.00    -0.089 N
HETATM   27  O1  UNL     1      -6.003  12.671 -18.150  1.00  0.00    -0.204 OA
ATOM     28  H9  UNL     1      -4.914  11.987 -19.768  1.00  0.00     0.213 HD
BRANCH  24  29
HETATM   29  N1  UNL     1      -6.778  10.087 -20.135  1.00  0.00    -0.233 N
ATOM     30  H12 UNL     1      -6.028   9.886 -20.797  1.00  0.00     0.174 HD
ATOM     31  H11 UNL     1      -7.537   9.433 -20.326  1.00  0.00     0.174 HD
ENDBRANCH  24  29
ENDBRANCH   1  22
TORSDOF 9
ENDMDL