MODEL 5
REMARK VINA RESULT: -8.325954330      1.271      1.727
REMARK  13 active torsions:
REMARK  status: ('A' for Active; 'I' for Inactive)
REMARK       I    between atoms: C1_4  and  N2_5
REMARK       I    between atoms: C1_4  and  N6_28
REMARK    1  A    between atoms: N2_5  and  C2_7
REMARK    2  A    between atoms: C2_7  and  C3_8
REMARK    3  A    between atoms: C2_7  and  N3_15
REMARK    4  A    between atoms: C3_8  and  C4_9
REMARK    5  A    between atoms: C4_9  and  P1_10
REMARK    6  A    between atoms: P1_10  and  O1_11
REMARK    7  A    between atoms: P1_10  and  O2_13
REMARK       I    between atoms: N3_15  and  C5_17
REMARK    8  A    between atoms: C5_17  and  C6_19
REMARK    9  A    between atoms: C13_36  and  C14_37
REMARK   10  A    between atoms: C14_37  and  C15_38
REMARK   11  A    between atoms: C15_38  and  C16_39
REMARK   12  A    between atoms: C17_40  and  C18_41
REMARK   13  A    between atoms: C19_42  and  O5_43
ROOT
HETATM    1  N1  UNL     1     113.325  75.600   6.351  1.00  0.00    -0.234 N
ATOM      2  H11 UNL     1     113.192  75.429   7.348  1.00  0.00     0.174 HD
ATOM      3  H12 UNL     1     112.711  75.069   5.734  1.00  0.00     0.174 HD
HETATM    4  C1  UNL     1     114.155  76.354   5.951  1.00  0.00     0.681 C
HETATM    5  N2  UNL     1     114.338  76.590   4.575  1.00  0.00    -0.205 N
ATOM      6  H2  UNL     1     115.017  77.316   4.349  1.00  0.00     0.179 HD
HETATM    7  N6  UNL     1     115.048  77.127   6.850  1.00  0.00    -0.142 N
HETATM    8  C10 UNL     1     116.438  76.928   6.637  1.00  0.00     0.223 A
HETATM    9  N7  UNL     1     117.263  77.742   7.274  1.00  0.00    -0.295 N
ATOM     10  H7  UNL     1     118.271  77.644   7.153  1.00  0.00     0.187 HD
HETATM   11  N8  UNL     1     116.763  78.720   8.097  1.00  0.00    -0.309 N
ATOM     12  H8  UNL     1     117.463  79.309   8.549  1.00  0.00     0.186 HD
HETATM   13  C11 UNL     1     115.548  79.000   8.383  1.00  0.00     0.137 A
HETATM   14  C12 UNL     1     114.538  78.111   7.696  1.00  0.00     0.075 A
HETATM   15  C13 UNL     1     113.309  78.179   8.054  1.00  0.00     0.040 C
ENDROOT
BRANCH   5  16
HETATM   16  C2  UNL     1     113.727  75.975   3.458  1.00  0.00     0.202 C
BRANCH  16  17
HETATM   17  C3  UNL     1     113.343  74.524   3.592  1.00  0.00     0.056 C
BRANCH  17  18
HETATM   18  C4  UNL     1     112.155  74.142   2.754  1.00  0.00     0.097 C
BRANCH  18  19
HETATM   19  P1  UNL     1     110.657  73.732   3.722  1.00  0.00     0.163 P
BRANCH  19  20
HETATM   20  O1  UNL     1     110.416  72.066   3.999  1.00  0.00    -0.350 OA
ATOM     21  H1  UNL     1     110.153  71.568   3.234  1.00  0.00     0.217 HD
ENDBRANCH  19  20
BRANCH  19  22
HETATM   22  O2  UNL     1     110.687  74.567   5.252  1.00  0.00    -0.350 OA
ATOM     23  H2  UNL     1     109.894  74.380   5.740  1.00  0.00     0.217 HD
ENDBRANCH  19  22
ENDBRANCH  18  19
ENDBRANCH  17  18
ENDBRANCH  16  17
BRANCH  16  24
HETATM   24  N3  UNL     1     114.492  76.138   2.203  1.00  0.00    -0.335 N
HETATM   25  C5  UNL     1     114.367  77.351   1.466  1.00  0.00     0.256 C
HETATM   26  O3  UNL     1     113.615  78.288   1.859  1.00  0.00    -0.268 OA
ATOM     27  H3  UNL     1     115.102  75.391   1.869  1.00  0.00     0.164 HD
BRANCH  25  28
HETATM   28  C6  UNL     1     115.111  77.535   0.235  1.00  0.00     0.063 A
HETATM   29  C7  UNL     1     116.275  78.259   0.192  1.00  0.00     0.111 A
HETATM   30  N4  UNL     1     116.939  78.340  -0.980  1.00  0.00    -0.318 N
HETATM   31  C8  UNL     1     116.505  77.734  -2.101  1.00  0.00     0.324 A
ATOM     32  H4  UNL     1     117.803  78.882  -1.019  1.00  0.00     0.170 HD
HETATM   33  O4  UNL     1     117.131  77.807  -3.171  1.00  0.00    -0.247 OA
HETATM   34  N5  UNL     1     115.368  77.027  -2.066  1.00  0.00    -0.318 N
HETATM   35  C9  UNL     1     114.650  76.908  -0.927  1.00  0.00     0.111 A
ATOM     36  H5  UNL     1     115.037  76.569  -2.915  1.00  0.00     0.170 HD
ENDBRANCH  25  28
ENDBRANCH  16  24
ENDBRANCH   5  16
BRANCH  15  37
HETATM   37  C14 UNL     1     112.813  79.264   8.949  1.00  0.00     0.058 C
BRANCH  37  38
HETATM   38  C15 UNL     1     111.638  79.326   9.258  1.00  0.00    -0.128 C
BRANCH  38  39
HETATM   39  C16 UNL     1     110.277  79.402   9.612  1.00  0.00     0.055 C
HETATM   40  C17 UNL     1     109.770  79.734  10.768  1.00  0.00     0.010 C
BRANCH  40  41
HETATM   41  C18 UNL     1     110.449  80.111  11.984  1.00  0.00     0.024 C
HETATM   42  C19 UNL     1     109.647  80.142  13.112  1.00  0.00     0.131 C
BRANCH  42  43
HETATM   43  O5  UNL     1     108.336  79.817  12.919  1.00  0.00    -0.373 OA
ATOM     44  H5  UNL     1     107.871  80.334  12.272  1.00  0.00     0.216 HD
ENDBRANCH  42  43
ENDBRANCH  40  41
ENDBRANCH  38  39
ENDBRANCH  37  38
ENDBRANCH  15  37
TORSDOF 13
ENDMDL