MODEL 2
REMARK VINA RESULT: -6.651235200      1.870      4.150
REMARK  18 active torsions:
REMARK  status: ('A' for Active; 'I' for Inactive)
REMARK    1  A    between atoms: C2_2  and  N1_3
REMARK    2  A    between atoms: C3_6  and  N3_7
REMARK    3  A    between atoms: C5_11  and  C6_12
REMARK    4  A    between atoms: N6_18  and  C10_19
REMARK    5  A    between atoms: C10_19  and  C11_20
REMARK    6  A    between atoms: C11_20  and  O1_21
REMARK    7  A    between atoms: C11_20  and  C12_23
REMARK    8  A    between atoms: C12_23  and  O2_24
REMARK    9  A    between atoms: O2_24  and  C13_25
REMARK   10  A    between atoms: C13_25  and  C14_26
REMARK   11  A    between atoms: C14_26  and  C15_27
REMARK   12  A    between atoms: C17_29  and  N7_30
REMARK   13  A    between atoms: N7_30  and  C18_32
REMARK   14  A    between atoms: C18_32  and  C19_33
REMARK   15  A    between atoms: C19_33  and  O3_34
REMARK   16  A    between atoms: O3_34  and  P1_35
REMARK   17  A    between atoms: P1_35  and  O4_36
REMARK   18  A    between atoms: P1_35  and  O5_38
ROOT
HETATM    1  N1  UNL     1     111.170  74.376   4.237  1.00  0.00    -0.206 N
HETATM    2  N2  UNL     1     112.363  74.234   3.562  1.00  0.00    -0.264 N
ATOM      3  H2  UNL     1     112.511  73.384   3.017  1.00  0.00     0.190 HD
HETATM    4  C3  UNL     1     113.284  75.098   3.582  1.00  0.00     0.140 A
HETATM    5  C5  UNL     1     113.169  76.390   4.353  1.00  0.00     0.099 A
HETATM    6  C17 UNL     1     111.939  76.493   5.036  1.00  0.00     0.135 A
HETATM    7  N8  UNL     1     111.011  75.515   4.953  1.00  0.00    -0.264 N
ATOM      8  H8  UNL     1     110.135  75.643   5.460  1.00  0.00     0.190 HD
ENDROOT
BRANCH   5   9
HETATM    9  C6  UNL     1     114.252  77.093   4.394  1.00  0.00     0.125 A
HETATM   10  N5  UNL     1     115.207  76.614   5.419  1.00  0.00    -0.351 N
HETATM   11  C7  UNL     1     116.380  77.007   5.601  1.00  0.00     0.091 A
ATOM     12  H5  UNL     1     114.871  75.883   6.047  1.00  0.00     0.166 HD
HETATM   13  C8  UNL     1     116.960  78.036   4.768  1.00  0.00     0.034 A
HETATM   14  C9  UNL     1     116.183  78.512   3.826  1.00  0.00     0.094 A
HETATM   15  N6  UNL     1     114.830  78.080   3.587  1.00  0.00    -0.340 N
BRANCH  15  16
HETATM   16  C10 UNL     1     114.221  78.492   2.373  1.00  0.00     0.164 C
BRANCH  16  17
HETATM   17  C11 UNL     1     114.769  77.882   1.103  1.00  0.00     0.160 C
BRANCH  17  18
HETATM   18  O1  UNL     1     115.829  78.483   0.516  1.00  0.00    -0.392 OA
ATOM     19  H1  UNL     1     115.696  79.335   0.118  1.00  0.00     0.210 HD
ENDBRANCH  17  18
BRANCH  17  20
HETATM   20  C12 UNL     1     113.706  77.263   0.258  1.00  0.00     0.200 C
BRANCH  20  21
HETATM   21  O2  UNL     1     114.001  75.925   0.169  1.00  0.00    -0.389 OA
BRANCH  21  22
HETATM   22  C13 UNL     1     114.435  75.452  -1.031  1.00  0.00     0.167 C
BRANCH  22  23
HETATM   23  C14 UNL     1     115.112  74.102  -0.964  1.00  0.00     0.026 C
BRANCH  23  24
HETATM   24  C15 UNL     1     114.100  72.967  -0.993  1.00  0.00    -0.002 C
HETATM   25  C16 UNL     1     114.842  71.733  -0.457  1.00  0.00     0.005 C
ENDBRANCH  23  24
ENDBRANCH  22  23
ENDBRANCH  21  22
ENDBRANCH  20  21
ENDBRANCH  17  20
ENDBRANCH  16  17
ENDBRANCH  15  16
ENDBRANCH   5   9
BRANCH   4  26
HETATM   26  N3  UNL     1     114.456  74.801   2.829  1.00  0.00    -0.339 N
HETATM   27  C4  UNL     1     114.984  73.652   2.730  1.00  0.00     0.191 C
HETATM   28  N4  UNL     1     114.402  72.552   3.399  1.00  0.00    -0.097 NA
ATOM     29  H3  UNL     1     114.904  75.570   2.331  1.00  0.00     0.167 HD
ENDBRANCH   4  26
BRANCH   6  30
HETATM   30  N7  UNL     1     111.550  77.370   6.054  1.00  0.00    -0.372 N
ATOM     31  H7  UNL     1     112.195  78.119   6.306  1.00  0.00     0.161 HD
BRANCH  30  32
HETATM   32  C18 UNL     1     110.302  77.291   6.771  1.00  0.00     0.148 C
BRANCH  32  33
HETATM   33  C19 UNL     1     110.078  78.149   7.940  1.00  0.00     0.197 C
BRANCH  33  34
HETATM   34  O3  UNL     1     109.277  79.245   7.721  1.00  0.00    -0.316 OA
BRANCH  34  35
HETATM   35  P1  UNL     1     107.779  78.796   6.969  1.00  0.00     0.329 P
BRANCH  35  36
HETATM   36  O4  UNL     1     107.625  79.714   5.486  1.00  0.00    -0.328 OA
ATOM     37  H4  UNL     1     106.777  80.142   5.495  1.00  0.00     0.219 HD
ENDBRANCH  35  36
BRANCH  35  38
HETATM   38  O5  UNL     1     106.435  79.154   8.024  1.00  0.00    -0.328 OA
ATOM     39  H5  UNL     1     106.150  78.369   8.477  1.00  0.00     0.219 HD
ENDBRANCH  35  38
ENDBRANCH  34  35
ENDBRANCH  33  34
ENDBRANCH  32  33
ENDBRANCH  30  32
ENDBRANCH   6  30
BRANCH   1  40
HETATM   40  C2  UNL     1     110.156  73.356   4.179  1.00  0.00     0.126 C
HETATM   41  C1  UNL     1     110.177  72.377   3.314  1.00  0.00     0.033 C
ENDBRANCH   1  40
TORSDOF 18
ENDMDL