MODEL 2
REMARK VINA RESULT: -7.144756428      1.753      2.452
REMARK  15 active torsions:
REMARK  status: ('A' for Active; 'I' for Inactive)
REMARK    1  A    between atoms: C2_2  and  C3_3
REMARK    2  A    between atoms: C3_3  and  C4_4
REMARK    3  A    between atoms: C4_4  and  C5_5
REMARK    4  A    between atoms: C5_5  and  O1_6
REMARK    5  A    between atoms: O1_6  and  C6_7
REMARK    6  A    between atoms: C6_7  and  C7_8
REMARK    7  A    between atoms: C7_8  and  C8_9
REMARK    8  A    between atoms: C9_10  and  N1_11
REMARK    9  A    between atoms: N1_11  and  C10_13
REMARK   10  A    between atoms: C10_13  and  O2_14
REMARK       I    between atoms: N5_26  and  C16_27
REMARK   11  A    between atoms: C16_27  and  C17_29
REMARK   12  A    between atoms: C17_29  and  N6_30
REMARK       I    between atoms: N6_30  and  C19_32
REMARK       I    between atoms: C19_32  and  N8_36
REMARK   13  A    between atoms: N8_36  and  P1_38
REMARK   14  A    between atoms: P1_38  and  O4_39
REMARK   15  A    between atoms: P1_38  and  O5_41
ROOT
HETATM    1  C8  UNL     1     113.233  77.201   5.150  1.00  0.00     0.146 C
HETATM    2  C9  UNL     1     111.865  76.755   5.250  1.00  0.00     0.061 C
HETATM    3  C11 UNL     1     111.501  75.558   4.673  1.00  0.00     0.102 A
HETATM    4  C12 UNL     1     112.528  74.809   3.940  1.00  0.00     0.079 A
HETATM    5  N2  UNL     1     112.359  73.627   3.502  1.00  0.00    -0.348 N
ATOM      6  H2  UNL     1     113.105  73.143   3.001  1.00  0.00     0.167 HD
HETATM    7  C13 UNL     1     111.131  73.009   3.723  1.00  0.00     0.198 A
HETATM    8  N3  UNL     1     110.167  73.551   4.329  1.00  0.00    -0.294 N
ATOM      9  H3  UNL     1     109.295  73.035   4.447  1.00  0.00     0.188 HD
HETATM   10  N4  UNL     1     110.280  74.938   4.876  1.00  0.00    -0.292 N
HETATM   11  C14 UNL     1     109.108  75.460   5.420  1.00  0.00     0.178 C
HETATM   12  C15 UNL     1     113.750  75.472   3.412  1.00  0.00     0.127 C
HETATM   13  N5  UNL     1     114.040  76.663   4.017  1.00  0.00    -0.314 N
HETATM   14  C16 UNL     1     115.213  77.392   3.657  1.00  0.00     0.242 C
HETATM   15  O3  UNL     1     115.459  78.571   4.089  1.00  0.00    -0.271 OA
ENDROOT
BRANCH   1  16
HETATM   16  C7  UNL     1     114.084  76.368   6.237  1.00  0.00     0.058 C
BRANCH  16  17
HETATM   17  C6  UNL     1     114.949  77.233   7.090  1.00  0.00     0.170 C
BRANCH  17  18
HETATM   18  O1  UNL     1     114.125  77.973   7.808  1.00  0.00    -0.391 OA
BRANCH  18  19
HETATM   19  C5  UNL     1     114.183  78.913   8.658  1.00  0.00     0.167 C
BRANCH  19  20
HETATM   20  C4  UNL     1     112.991  79.472   9.319  1.00  0.00     0.026 C
BRANCH  20  21
HETATM   21  C3  UNL     1     113.225  79.984  10.714  1.00  0.00     0.002 C
BRANCH  21  22
HETATM   22  C2  UNL     1     111.891  79.690  11.415  1.00  0.00    -0.004 C
HETATM   23  C1  UNL     1     110.753  79.787  10.475  1.00  0.00     0.005 C
ENDBRANCH  21  22
ENDBRANCH  20  21
ENDBRANCH  19  20
ENDBRANCH  18  19
ENDBRANCH  17  18
ENDBRANCH  16  17
ENDBRANCH   1  16
BRANCH  14  24
HETATM   24  C17 UNL     1     116.225  76.803   2.787  1.00  0.00     0.228 C
BRANCH  24  25
HETATM   25  N6  UNL     1     116.851  77.708   1.833  1.00  0.00    -0.349 N
HETATM   26  C18 UNL     1     116.231  78.113   0.604  1.00  0.00     0.153 C
HETATM   27  C19 UNL     1     118.143  78.183   2.148  1.00  0.00     0.177 C
HETATM   28  N7  UNL     1     119.112  78.385   1.282  1.00  0.00    -0.371 N
HETATM   29  N8  UNL     1     118.532  78.469   3.554  1.00  0.00    -0.292 N
ATOM     30  H72 UNL     1     118.846  78.189   0.317  1.00  0.00     0.159 HD
ATOM     31  H71 UNL     1     120.046  78.729   1.510  1.00  0.00     0.159 HD
ATOM     32  H8  UNL     1     118.247  79.302   4.070  1.00  0.00     0.171 HD
BRANCH  29  33
HETATM   33  P1  UNL     1     119.564  77.171   4.230  1.00  0.00     0.286 P
BRANCH  33  34
HETATM   34  O4  UNL     1     118.928  76.730   5.774  1.00  0.00    -0.333 OA
ATOM     35  H4  UNL     1     119.560  76.164   6.203  1.00  0.00     0.219 HD
ENDBRANCH  33  34
BRANCH  33  36
HETATM   36  O5  UNL     1     119.658  75.812   3.193  1.00  0.00    -0.333 OA
ATOM     37  H5  UNL     1     120.486  75.771   2.729  1.00  0.00     0.219 HD
ENDBRANCH  33  36
ENDBRANCH  29  33
ENDBRANCH  24  25
ENDBRANCH  14  24
BRANCH   2  38
HETATM   38  N1  UNL     1     110.795  77.411   5.901  1.00  0.00    -0.368 N
ATOM     39  H1  UNL     1     109.987  77.648   5.325  1.00  0.00     0.161 HD
BRANCH  38  40
HETATM   40  C10 UNL     1     110.724  77.783   7.307  1.00  0.00     0.287 C
BRANCH  40  41
HETATM   41  O2  UNL     1     111.260  76.666   7.974  1.00  0.00    -0.382 OA
ATOM     42  H2  UNL     1     112.064  76.999   8.357  1.00  0.00     0.211 HD
ENDBRANCH  40  41
ENDBRANCH  38  40
ENDBRANCH   2  38
TORSDOF 15
ENDMDL