MODEL 1
REMARK VINA RESULT: -7.493900165      0.000      0.000
REMARK  19 active torsions:
REMARK  status: ('A' for Active; 'I' for Inactive)
REMARK    1  A    between atoms: C2_2  and  C3_3
REMARK    2  A    between atoms: C2_2  and  C5_10
REMARK    3  A    between atoms: C3_3  and  C4_4
REMARK    4  A    between atoms: C4_4  and  P1_5
REMARK    5  A    between atoms: P1_5  and  O1_6
REMARK    6  A    between atoms: P1_5  and  O2_8
REMARK       I    between atoms: C5_10  and  N1_12
REMARK    7  A    between atoms: N1_12  and  C6_14
REMARK    8  A    between atoms: C6_14  and  C7_15
REMARK    9  A    between atoms: C6_14  and  N8_35
REMARK   10  A    between atoms: C7_15  and  C8_16
REMARK   11  A    between atoms: C8_16  and  N2_17
REMARK   12  A    between atoms: N2_17  and  C9_19
REMARK   13  A    between atoms: C9_19  and  N7_31
REMARK   14  A    between atoms: N7_31  and  C14_33
REMARK   15  A    between atoms: N8_35  and  C15_36
REMARK   16  A    between atoms: N8_35  and  C17_38
REMARK   17  A    between atoms: C17_38  and  C18_39
REMARK   18  A    between atoms: C18_39  and  C19_40
REMARK   19  A    between atoms: C19_40  and  O5_41
ROOT
HETATM    1  C6  UNL     1     115.528  77.619   7.269  1.00  0.00     0.325 C
ENDROOT
BRANCH   1   2
HETATM    2  N1  UNL     1     114.885  78.530   8.290  1.00  0.00    -0.326 N
HETATM    3  C5  UNL     1     113.569  78.691   8.590  1.00  0.00     0.260 C
HETATM    4  O3  UNL     1     112.650  78.035   8.056  1.00  0.00    -0.267 OA
ATOM      5  H1  UNL     1     115.531  79.105   8.831  1.00  0.00     0.165 HD
BRANCH   3   6
HETATM    6  C2  UNL     1     113.116  79.675   9.592  1.00  0.00     0.068 C
HETATM    7  C1  UNL     1     114.085  80.259  10.395  1.00  0.00     0.038 C
BRANCH   6   8
HETATM    8  C3  UNL     1     111.849  80.107   9.852  1.00  0.00    -0.107 C
BRANCH   8   9
HETATM    9  C4  UNL     1     110.652  80.509  10.065  1.00  0.00     0.121 C
BRANCH   9  10
HETATM   10  P1  UNL     1     109.878  80.172  11.736  1.00  0.00     0.197 P
BRANCH  10  11
HETATM   11  O1  UNL     1     108.150  80.278  11.603  1.00  0.00    -0.346 OA
ATOM     12  H1  UNL     1     107.752  79.952  12.402  1.00  0.00     0.217 HD
ENDBRANCH  10  11
BRANCH  10  13
HETATM   13  O2  UNL     1     110.411  81.308  12.904  1.00  0.00    -0.346 OA
ATOM     14  H2  UNL     1     109.731  81.487  13.542  1.00  0.00     0.217 HD
ENDBRANCH  10  13
ENDBRANCH   9  10
ENDBRANCH   8   9
ENDBRANCH   6   8
ENDBRANCH   3   6
ENDBRANCH   1   2
BRANCH   1  15
HETATM   15  C7  UNL     1     114.705  77.648   6.069  1.00  0.00     0.077 C
BRANCH  15  16
HETATM   16  C8  UNL     1     114.278  76.380   5.385  1.00  0.00     0.125 C
BRANCH  16  17
HETATM   17  N2  UNL     1     113.030  75.881   5.871  1.00  0.00    -0.373 N
ATOM     18  H2  UNL     1     112.874  75.924   6.879  1.00  0.00     0.161 HD
BRANCH  17  19
HETATM   19  C9  UNL     1     111.965  75.317   5.062  1.00  0.00     0.151 C
HETATM   20  C10 UNL     1     110.735  75.806   5.310  1.00  0.00     0.167 A
HETATM   21  N3  UNL     1     109.614  75.356   4.605  1.00  0.00    -0.268 N
HETATM   22  N6  UNL     1     110.504  76.848   6.259  1.00  0.00    -0.327 N
HETATM   23  N4  UNL     1     108.442  75.861   4.806  1.00  0.00    -0.240 N
ATOM     24  H3  UNL     1     109.724  74.612   3.917  1.00  0.00     0.190 HD
HETATM   25  N5  UNL     1     108.241  76.871   5.727  1.00  0.00    -0.275 N
ATOM     26  H4  UNL     1     107.649  75.506   4.273  1.00  0.00     0.208 HD
HETATM   27  C11 UNL     1     109.174  77.381   6.447  1.00  0.00     0.094 A
ATOM     28  H5  UNL     1     107.294  77.234   5.842  1.00  0.00     0.189 HD
HETATM   29  C12 UNL     1     108.870  78.458   7.401  1.00  0.00     0.090 C
ATOM     30  H6  UNL     1     111.281  77.218   6.807  1.00  0.00     0.169 HD
BRANCH  19  31
HETATM   31  N7  UNL     1     112.157  74.298   4.149  1.00  0.00    -0.313 N
HETATM   32  C13 UNL     1     112.596  74.654   2.770  1.00  0.00     0.160 C
BRANCH  31  33
HETATM   33  C14 UNL     1     111.936  72.925   4.320  1.00  0.00     0.356 C
HETATM   34  O4  UNL     1     110.731  72.439   4.299  1.00  0.00    -0.283 OA
ENDBRANCH  31  33
ENDBRANCH  19  31
ENDBRANCH  17  19
ENDBRANCH  16  17
ENDBRANCH  15  16
ENDBRANCH   1  15
BRANCH   1  35
HETATM   35  N8  UNL     1     116.885  77.994   7.283  1.00  0.00     0.111 N
BRANCH  35  36
HETATM   36  C15 UNL     1     117.429  77.945   5.917  1.00  0.00     0.270 C
HETATM   37  C16 UNL     1     117.904  79.260   5.420  1.00  0.00     0.037 C
ENDBRANCH  35  36
BRANCH  35  38
HETATM   38  C17 UNL     1     117.343  79.121   7.981  1.00  0.00     0.277 C
BRANCH  38  39
HETATM   39  C18 UNL     1     118.377  78.820   9.058  1.00  0.00     0.056 C
BRANCH  39  40
HETATM   40  C19 UNL     1     118.422  80.009  10.021  1.00  0.00     0.165 C
BRANCH  40  41
HETATM   41  O5  UNL     1     117.450  80.942   9.577  1.00  0.00    -0.401 OA
ATOM     42  H5  UNL     1     117.820  81.395   8.828  1.00  0.00     0.209 HD
ENDBRANCH  40  41
ENDBRANCH  39  40
ENDBRANCH  38  39
ENDBRANCH  35  38
ENDBRANCH   1  35
TORSDOF 19
ENDMDL