MODEL 1
REMARK VINA RESULT: -7.966082041      0.000      0.000
REMARK  15 active torsions:
REMARK  status: ('A' for Active; 'I' for Inactive)
REMARK    1  A    between atoms: C2_2  and  N1_3
REMARK    2  A    between atoms: C2_2  and  C3_7
REMARK    3  A    between atoms: C3_7  and  C4_8
REMARK       I    between atoms: C4_8  and  N2_10
REMARK    4  A    between atoms: N2_10  and  C5_12
REMARK    5  A    between atoms: C5_12  and  C6_13
REMARK    6  A    between atoms: C8_19  and  C9_20
REMARK    7  A    between atoms: C9_20  and  N6_34
REMARK    8  A    between atoms: N5_21  and  C10_23
REMARK    9  A    between atoms: C13_26  and  P1_27
REMARK   10  A    between atoms: P1_27  and  O2_28
REMARK   11  A    between atoms: P1_27  and  O3_30
REMARK       I    between atoms: N6_34  and  C16_36
REMARK       I    between atoms: C16_36  and  N7_38
REMARK   12  A    between atoms: N7_38  and  C17_40
REMARK   13  A    between atoms: C17_40  and  C18_41
REMARK   14  A    between atoms: C18_41  and  C19_42
REMARK   15  A    between atoms: C19_42  and  O5_43
ROOT
HETATM    1  C9  UNL     1     111.359  80.299  11.900  1.00  0.00     0.138 C
HETATM    2  N5  UNL     1     112.407  79.509  11.859  1.00  0.00    -0.340 N
ATOM      3  H5  UNL     1     112.394  78.633  11.336  1.00  0.00     0.167 HD
ENDROOT
BRANCH   1   4
HETATM    4  C8  UNL     1     110.182  79.867  11.168  1.00  0.00     0.095 A
HETATM    5  C7  UNL     1     108.963  79.911  11.773  1.00  0.00     0.140 A
HETATM    6  N4  UNL     1     107.874  79.514  11.085  1.00  0.00    -0.308 N
HETATM    7  N3  UNL     1     108.017  79.097   9.851  1.00  0.00    -0.288 N
ATOM      8  H4  UNL     1     106.951  79.538  11.519  1.00  0.00     0.186 HD
HETATM    9  C6  UNL     1     109.193  79.046   9.240  1.00  0.00     0.114 A
ATOM     10  H3  UNL     1     107.188  78.799   9.337  1.00  0.00     0.188 HD
HETATM   11  N8  UNL     1     110.299  79.438   9.908  1.00  0.00    -0.339 N
ATOM     12  H8  UNL     1     111.214  79.407   9.455  1.00  0.00     0.167 HD
BRANCH   9  13
HETATM   13  C5  UNL     1     109.387  78.573   7.857  1.00  0.00     0.200 C
BRANCH  13  14
HETATM   14  N2  UNL     1     110.754  78.096   7.699  1.00  0.00    -0.354 N
HETATM   15  C4  UNL     1     111.059  76.939   6.944  1.00  0.00     0.219 C
HETATM   16  O1  UNL     1     110.172  76.258   6.370  1.00  0.00    -0.274 OA
ATOM     17  H2  UNL     1     111.513  78.611   8.145  1.00  0.00     0.162 HD
BRANCH  15  18
HETATM   18  C3  UNL     1     112.470  76.511   6.824  1.00  0.00     0.135 C
BRANCH  18  19
HETATM   19  C2  UNL     1     112.882  76.434   5.356  1.00  0.00     0.188 C
HETATM   20  C1  UNL     1     114.347  76.214   5.221  1.00  0.00     0.040 C
BRANCH  19  21
HETATM   21  N1  UNL     1     112.433  77.644   4.695  1.00  0.00    -0.075 N
ATOM     22  H13 UNL     1     112.775  78.474   5.179  1.00  0.00     0.274 HD
ATOM     23  H12 UNL     1     112.905  77.768   3.800  1.00  0.00     0.274 HD
ATOM     24  H11 UNL     1     111.420  77.679   4.582  1.00  0.00     0.274 HD
ENDBRANCH  19  21
ENDBRANCH  18  19
ENDBRANCH  15  18
ENDBRANCH  13  14
ENDBRANCH   9  13
ENDBRANCH   1   4
BRANCH   1  25
HETATM   25  N6  UNL     1     111.396  81.499  12.621  1.00  0.00    -0.293 N
HETATM   26  C16 UNL     1     111.570  82.747  12.004  1.00  0.00     0.321 C
HETATM   27  O4  UNL     1     111.703  82.829  10.772  1.00  0.00    -0.247 OA
HETATM   28  N7  UNL     1     111.598  83.953  12.768  1.00  0.00    -0.343 N
ATOM     29  H7  UNL     1     111.497  83.881  13.781  1.00  0.00     0.164 HD
ATOM     30  H6  UNL     1     111.292  81.465  13.635  1.00  0.00     0.172 HD
BRANCH  28  31
HETATM   31  C17 UNL     1     111.760  85.255  12.197  1.00  0.00     0.126 C
BRANCH  31  32
HETATM   32  C18 UNL     1     113.191  85.541  11.838  1.00  0.00     0.046 C
BRANCH  32  33
HETATM   33  C19 UNL     1     113.222  86.083  10.410  1.00  0.00     0.165 C
BRANCH  33  34
HETATM   34  O5  UNL     1     112.042  85.790   9.739  1.00  0.00    -0.401 OA
ATOM     35  H5  UNL     1     112.216  85.318   8.933  1.00  0.00     0.209 HD
ENDBRANCH  33  34
ENDBRANCH  32  33
ENDBRANCH  31  32
ENDBRANCH  28  31
ENDBRANCH   1  25
BRANCH   2  36
HETATM   36  C10 UNL     1     113.566  79.928  12.577  1.00  0.00     0.033 A
HETATM   37  C11 UNL     1     113.742  79.562  13.901  1.00  0.00     0.030 A
HETATM   38  C12 UNL     1     114.855  79.963  14.601  1.00  0.00     0.019 A
HETATM   39  C13 UNL     1     115.820  80.740  14.000  1.00  0.00     0.022 A
HETATM   40  C14 UNL     1     115.649  81.111  12.674  1.00  0.00     0.019 A
HETATM   41  C15 UNL     1     114.541  80.715  11.963  1.00  0.00     0.030 A
BRANCH  39  42
HETATM   42  P1  UNL     1     117.289  81.266  14.935  1.00  0.00     0.200 P
BRANCH  42  43
HETATM   43  O2  UNL     1     118.583  81.528  13.813  1.00  0.00    -0.346 OA
ATOM     44  H2  UNL     1     118.953  80.684  13.582  1.00  0.00     0.217 HD
ENDBRANCH  42  43
BRANCH  42  45
HETATM   45  O3  UNL     1     117.711  80.013  16.055  1.00  0.00    -0.346 OA
ATOM     46  H3  UNL     1     118.591  79.714  15.858  1.00  0.00     0.217 HD
ENDBRANCH  42  45
ENDBRANCH  39  42
ENDBRANCH   2  36
TORSDOF 15
ENDMDL