MODEL 1
REMARK VINA RESULT: -6.777771458      0.000      0.000
REMARK  16 active torsions:
REMARK  status: ('A' for Active; 'I' for Inactive)
REMARK    1  A    between atoms: C2_2  and  O1_3
REMARK    2  A    between atoms: O1_3  and  P1_4
REMARK    3  A    between atoms: P1_4  and  O2_5
REMARK    4  A    between atoms: P1_4  and  O3_8
REMARK    5  A    between atoms: O2_5  and  C3_6
REMARK    6  A    between atoms: O3_8  and  C5_9
REMARK    7  A    between atoms: C5_9  and  C6_10
REMARK    8  A    between atoms: C6_10  and  N1_11
REMARK    9  A    between atoms: N1_11  and  C7_13
REMARK   10  A    between atoms: C9_17  and  C10_18
REMARK   11  A    between atoms: N3_19  and  N4_21
REMARK   12  A    between atoms: C11_24  and  C13_26
REMARK       I    between atoms: C13_26  and  N5_28
REMARK   13  A    between atoms: N5_28  and  C14_30
REMARK   14  A    between atoms: C14_30  and  C15_31
REMARK   15  A    between atoms: C15_31  and  O5_32
REMARK   16  A    between atoms: C17_35  and  C18_36
ROOT
HETATM    1  C7  UNL     1     111.921  81.652  12.641  1.00  0.00     0.119 C
HETATM    2  N2  UNL     1     111.676  80.344  12.723  1.00  0.00    -0.344 N
ATOM      3  H2  UNL     1     112.058  79.704  13.420  1.00  0.00     0.167 HD
HETATM    4  C8  UNL     1     110.728  79.975  11.598  1.00  0.00     0.033 C
HETATM    5  C9  UNL     1     109.449  79.782  11.787  1.00  0.00     0.045 C
HETATM    6  C11 UNL     1     111.428  80.051  10.329  1.00  0.00     0.098 C
HETATM    7  C12 UNL     1     112.873  79.495  10.498  1.00  0.00     0.037 C
HETATM    8  C16 UNL     1     111.609  81.580  10.223  1.00  0.00     0.017 C
HETATM    9  C17 UNL     1     111.844  82.296  11.310  1.00  0.00     0.051 C
ENDROOT
BRANCH   1  10
HETATM   10  N1  UNL     1     112.741  82.363  13.575  1.00  0.00    -0.353 N
ATOM     11  H1  UNL     1     112.237  82.838  14.323  1.00  0.00     0.166 HD
BRANCH  10  12
HETATM   12  C6  UNL     1     114.119  82.500  13.611  1.00  0.00     0.089 C
BRANCH  12  13
HETATM   13  C5  UNL     1     114.885  83.764  13.681  1.00  0.00     0.222 C
BRANCH  13  14
HETATM   14  O3  UNL     1     114.413  84.440  12.483  1.00  0.00    -0.312 OA
BRANCH  14  15
HETATM   15  P1  UNL     1     115.848  84.813  11.523  1.00  0.00     0.334 P
BRANCH  15  16
HETATM   16  O1  UNL     1     115.034  85.882  10.169  1.00  0.00    -0.318 OA
BRANCH  16  17
HETATM   17  C2  UNL     1     115.507  87.143  10.510  1.00  0.00     0.173 C
HETATM   18  C1  UNL     1     116.665  87.019  11.456  1.00  0.00     0.034 C
ENDBRANCH  16  17
ENDBRANCH  15  16
BRANCH  15  19
HETATM   19  O2  UNL     1     116.180  83.507  10.359  1.00  0.00    -0.318 OA
BRANCH  19  20
HETATM   20  C3  UNL     1     116.931  82.534  10.950  1.00  0.00     0.173 C
HETATM   21  C4  UNL     1     116.161  81.218  10.846  1.00  0.00     0.034 C
ENDBRANCH  19  20
ENDBRANCH  15  19
ENDBRANCH  14  15
ENDBRANCH  13  14
ENDBRANCH  12  13
ENDBRANCH  10  12
ENDBRANCH   1  10
BRANCH   9  22
HETATM   22  C18 UNL     1     111.823  83.790  11.208  1.00  0.00     0.134 A
HETATM   23  N6  UNL     1     111.232  84.632  12.108  1.00  0.00    -0.336 N
HETATM   24  C19 UNL     1     111.371  85.915  11.670  1.00  0.00     0.199 A
ATOM     25  H6  UNL     1     110.763  84.347  12.967  1.00  0.00     0.168 HD
HETATM   26  N7  UNL     1     112.055  85.837  10.518  1.00  0.00    -0.295 N
HETATM   27  N8  UNL     1     112.315  84.530  10.254  1.00  0.00    -0.284 N
ATOM     28  H7  UNL     1     112.334  86.628   9.936  1.00  0.00     0.187 HD
ATOM     29  H8  UNL     1     112.817  84.181   9.437  1.00  0.00     0.188 HD
ENDBRANCH   9  22
BRANCH   5  30
HETATM   30  C10 UNL     1     108.759  79.905  13.078  1.00  0.00     0.108 C
HETATM   31  N3  UNL     1     107.475  79.778  13.137  1.00  0.00    -0.318 N
ATOM     32  H3  UNL     1     107.008  79.859  14.040  1.00  0.00     0.185 HD
BRANCH  31  33
HETATM   33  N4  UNL     1     106.701  79.527  11.978  1.00  0.00    -0.345 N
ATOM     34  H42 UNL     1     106.968  78.744  11.380  1.00  0.00     0.176 HD
ATOM     35  H41 UNL     1     105.898  80.107  11.737  1.00  0.00     0.176 HD
ENDBRANCH  31  33
ENDBRANCH   5  30
BRANCH   6  36
HETATM   36  C13 UNL     1     110.910  79.446   9.134  1.00  0.00     0.235 C
HETATM   37  O4  UNL     1     109.811  79.702   8.540  1.00  0.00    -0.272 OA
HETATM   38  N5  UNL     1     111.704  78.429   8.507  1.00  0.00    -0.358 N
ATOM     39  H5  UNL     1     112.598  78.155   8.913  1.00  0.00     0.162 HD
BRANCH  38  40
HETATM   40  C14 UNL     1     111.224  77.784   7.275  1.00  0.00     0.148 C
BRANCH  40  41
HETATM   41  C15 UNL     1     112.405  77.285   6.459  1.00  0.00     0.183 C
BRANCH  41  42
HETATM   42  O5  UNL     1     112.080  77.626   5.101  1.00  0.00    -0.399 OA
ATOM     43  H5  UNL     1     112.354  78.530   5.007  1.00  0.00     0.209 HD
ENDBRANCH  41  42
ENDBRANCH  40  41
ENDBRANCH  38  40
ENDBRANCH   6  36
TORSDOF 16
ENDMDL