MODEL 4
REMARK VINA RESULT: -7.412537755      2.793      3.151
REMARK  15 active torsions:
REMARK  status: ('A' for Active; 'I' for Inactive)
REMARK    1  A    between atoms: C2_2  and  C3_3
REMARK    2  A    between atoms: C2_2  and  N8_31
REMARK    3  A    between atoms: C3_3  and  C4_4
REMARK    4  A    between atoms: C4_4  and  N1_5
REMARK       I    between atoms: N1_5  and  C5_7
REMARK    5  A    between atoms: C5_7  and  C6_9
REMARK    6  A    between atoms: C6_9  and  O2_10
REMARK    7  A    between atoms: C6_9  and  C7_12
REMARK    8  A    between atoms: C7_12  and  N2_13
REMARK    9  A    between atoms: C10_18  and  N4_19
REMARK   10  A    between atoms: N8_31  and  C16_33
REMARK   11  A    between atoms: C16_33  and  C17_34
REMARK   12  A    between atoms: C17_34  and  C18_35
REMARK   13  A    between atoms: C18_35  and  P1_36
REMARK   14  A    between atoms: P1_36  and  O4_37
REMARK   15  A    between atoms: P1_36  and  O5_39
ROOT
HETATM    1  C6  UNL     1     110.507  79.986  10.870  1.00  0.00     0.228 C
ENDROOT
BRANCH   1   2
HETATM    2  C5  UNL     1     110.176  79.254   9.634  1.00  0.00     0.248 C
HETATM    3  N1  UNL     1     111.201  78.716   8.830  1.00  0.00    -0.359 N
ATOM      4  H1  UNL     1     112.178  78.827   9.102  1.00  0.00     0.162 HD
HETATM    5  O1  UNL     1     108.981  79.115   9.304  1.00  0.00    -0.271 OA
BRANCH   3   6
HETATM    6  C4  UNL     1     110.858  78.006   7.618  1.00  0.00     0.124 C
BRANCH   6   7
HETATM    7  C3  UNL     1     111.805  76.868   7.353  1.00  0.00     0.044 C
BRANCH   7   8
HETATM    8  C2  UNL     1     111.811  76.420   5.892  1.00  0.00     0.078 C
HETATM    9  C1  UNL     1     112.624  77.298   5.016  1.00  0.00     0.032 C
BRANCH   8  10
HETATM   10  N8  UNL     1     110.475  76.262   5.468  1.00  0.00    -0.398 N
ATOM     11  H8  UNL     1     109.819  77.028   5.617  1.00  0.00     0.159 HD
BRANCH  10  12
HETATM   12  C16 UNL     1     110.022  75.098   4.852  1.00  0.00     0.056 C
BRANCH  12  13
HETATM   13  C17 UNL     1     110.937  73.972   4.565  1.00  0.00     0.053 C
BRANCH  13  14
HETATM   14  C18 UNL     1     110.981  73.555   3.097  1.00  0.00     0.098 C
BRANCH  14  15
HETATM   15  P1  UNL     1     112.794  73.239   2.728  1.00  0.00     0.163 P
BRANCH  15  16
HETATM   16  O4  UNL     1     112.969  73.020   1.008  1.00  0.00    -0.350 OA
ATOM     17  H4  UNL     1     113.094  72.094   0.839  1.00  0.00     0.217 HD
ENDBRANCH  15  16
BRANCH  15  18
HETATM   18  O5  UNL     1     113.756  74.592   3.184  1.00  0.00    -0.350 OA
ATOM     19  H5  UNL     1     113.670  74.770   4.113  1.00  0.00     0.217 HD
ENDBRANCH  15  18
ENDBRANCH  14  15
ENDBRANCH  13  14
ENDBRANCH  12  13
ENDBRANCH  10  12
ENDBRANCH   8  10
ENDBRANCH   7   8
ENDBRANCH   6   7
ENDBRANCH   3   6
ENDBRANCH   1   2
BRANCH   1  20
HETATM   20  O2  UNL     1     109.421  80.839  11.167  1.00  0.00    -0.384 OA
ATOM     21  H2  UNL     1     109.021  80.528  11.971  1.00  0.00     0.210 HD
ENDBRANCH   1  20
BRANCH   1  22
HETATM   22  C7  UNL     1     111.687  80.913  10.658  1.00  0.00     0.172 C
BRANCH  22  23
HETATM   23  N2  UNL     1     112.526  80.846  11.844  1.00  0.00    -0.325 N
HETATM   24  C8  UNL     1     112.876  79.760  12.551  1.00  0.00     0.184 A
HETATM   25  N3  UNL     1     113.672  80.102  13.583  1.00  0.00    -0.358 N
HETATM   26  C9  UNL     1     113.845  81.416  13.553  1.00  0.00     0.138 A
ATOM     27  H3  UNL     1     114.073  79.461  14.268  1.00  0.00     0.166 HD
HETATM   28  C10 UNL     1     113.133  81.884  12.470  1.00  0.00     0.135 A
BRANCH  28  29
HETATM   29  N4  UNL     1     113.034  83.249  12.059  1.00  0.00    -0.242 N
HETATM   30  C11 UNL     1     111.952  83.959  12.487  1.00  0.00     0.212 A
HETATM   31  N5  UNL     1     111.822  85.253  12.122  1.00  0.00    -0.186 N
HETATM   32  C12 UNL     1     112.732  85.866  11.345  1.00  0.00     0.693 A
ATOM     33  H5  UNL     1     111.010  85.780  12.445  1.00  0.00     0.185 HD
HETATM   34  N6  UNL     1     112.853  87.112  10.840  1.00  0.00    -0.200 N
HETATM   35  N7  UNL     1     113.817  85.166  10.910  1.00  0.00    -0.105 N
HETATM   36  C13 UNL     1     113.977  87.221  10.103  1.00  0.00     0.124 A
ATOM     37  H6  UNL     1     112.185  87.867  10.994  1.00  0.00     0.183 HD
HETATM   38  C14 UNL     1     114.570  85.985  10.161  1.00  0.00     0.137 A
HETATM   39  C15 UNL     1     113.928  83.870  11.289  1.00  0.00     0.354 A
HETATM   40  O3  UNL     1     114.939  83.205  10.890  1.00  0.00    -0.245 OA
ENDBRANCH  28  29
ENDBRANCH  22  23
ENDBRANCH   1  22
TORSDOF 15
ENDMDL