MODEL 3
REMARK VINA RESULT: -8.341279983      0.998      1.196
REMARK  15 active torsions:
REMARK  status: ('A' for Active; 'I' for Inactive)
REMARK    1  A    between atoms: C2_2  and  C4_4
REMARK    2  A    between atoms: N1_6  and  C6_7
REMARK    3  A    between atoms: C6_7  and  O1_8
REMARK    4  A    between atoms: C6_7  and  N2_10
REMARK    5  A    between atoms: C9_13  and  C11_15
REMARK    6  A    between atoms: C11_15  and  C12_16
REMARK    7  A    between atoms: C12_16  and  N3_17
REMARK    8  A    between atoms: N3_17  and  C13_19
REMARK    9  A    between atoms: C16_22  and  N4_23
REMARK   10  A    between atoms: N4_23  and  N5_25
REMARK   11  A    between atoms: N5_25  and  C17_26
REMARK   12  A    between atoms: C17_26  and  C18_27
REMARK   13  A    between atoms: C18_27  and  P1_28
REMARK   14  A    between atoms: P1_28  and  O2_29
REMARK   15  A    between atoms: P1_28  and  O3_31
ROOT
HETATM    1  C12 UNL     1     112.464  79.607  11.878  1.00  0.00     0.126 C
ENDROOT
BRANCH   1   2
HETATM    2  C11 UNL     1     113.829  79.981  12.417  1.00  0.00     0.081 C
BRANCH   2   3
HETATM    3  C9  UNL     1     113.903  81.385  12.949  1.00  0.00     0.147 C
HETATM    4  N1  UNL     1     114.658  82.309  12.076  1.00  0.00    -0.313 N
HETATM    5  C5  UNL     1     114.105  83.377  11.298  1.00  0.00     0.155 C
HETATM    6  C4  UNL     1     113.782  84.609  12.112  1.00  0.00     0.108 C
HETATM    7  N8  UNL     1     112.606  84.313  12.903  1.00  0.00    -0.330 N
HETATM    8  C19 UNL     1     112.009  83.078  13.177  1.00  0.00     0.363 C
ATOM      9  H8  UNL     1     112.147  85.123  13.321  1.00  0.00     0.165 HD
HETATM   10  O4  UNL     1     112.550  81.818  13.041  1.00  0.00    -0.272 OA
HETATM   11  O5  UNL     1     110.816  83.133  13.607  1.00  0.00    -0.238 OA
HETATM   12  C10 UNL     1     114.453  81.344  14.342  1.00  0.00     0.072 C
BRANCH   4  13
HETATM   13  C6  UNL     1     116.014  82.097  12.055  1.00  0.00     0.218 C
BRANCH  13  14
HETATM   14  O1  UNL     1     116.705  83.156  12.463  1.00  0.00    -0.332 OA
ATOM     15  H1  UNL     1     117.538  83.246  12.014  1.00  0.00     0.220 HD
ENDBRANCH  13  14
BRANCH  13  16
HETATM   16  N2  UNL     1     116.880  81.066  11.720  1.00  0.00    -0.356 N
HETATM   17  C7  UNL     1     116.997  80.655  10.277  1.00  0.00     0.152 C
HETATM   18  C8  UNL     1     117.702  80.307  12.587  1.00  0.00     0.152 C
ENDBRANCH  13  16
ENDBRANCH   4  13
BRANCH   6  19
HETATM   19  C2  UNL     1     113.474  85.718  11.110  1.00  0.00     0.002 C
HETATM   20  C1  UNL     1     112.090  85.553  10.567  1.00  0.00     0.011 C
HETATM   21  C3  UNL     1     114.534  85.825  10.061  1.00  0.00     0.011 C
ENDBRANCH   6  19
ENDBRANCH   2   3
ENDBRANCH   1   2
BRANCH   1  22
HETATM   22  N3  UNL     1     112.183  80.136  10.573  1.00  0.00    -0.375 N
ATOM     23  H3  UNL     1     112.353  81.130  10.419  1.00  0.00     0.161 HD
BRANCH  22  24
HETATM   24  C13 UNL     1     111.684  79.371   9.475  1.00  0.00     0.115 A
HETATM   25  C14 UNL     1     110.341  79.299   9.187  1.00  0.00     0.053 A
HETATM   26  C15 UNL     1     109.933  78.555   8.091  1.00  0.00     0.054 A
HETATM   27  C16 UNL     1     110.850  77.905   7.315  1.00  0.00     0.131 A
HETATM   28  N6  UNL     1     112.145  78.011   7.645  1.00  0.00    -0.283 N
HETATM   29  N7  UNL     1     112.538  78.708   8.671  1.00  0.00    -0.284 N
ATOM     30  H6  UNL     1     112.842  77.531   7.076  1.00  0.00     0.188 HD
ATOM     31  H7  UNL     1     113.536  78.755   8.875  1.00  0.00     0.188 HD
BRANCH  27  32
HETATM   32  N4  UNL     1     110.461  77.129   6.178  1.00  0.00    -0.288 N
ATOM     33  H4  UNL     1     109.775  77.499   5.519  1.00  0.00     0.184 HD
BRANCH  32  34
HETATM   34  N5  UNL     1     111.012  75.879   5.970  1.00  0.00    -0.139 NA
BRANCH  34  35
HETATM   35  C17 UNL     1     111.913  75.853   4.831  1.00  0.00     0.144 C
BRANCH  35  36
HETATM   36  C18 UNL     1     112.461  74.469   4.614  1.00  0.00     0.111 C
BRANCH  36  37
HETATM   37  P1  UNL     1     111.113  73.328   4.053  1.00  0.00     0.164 P
BRANCH  37  38
HETATM   38  O2  UNL     1     109.687  73.518   5.005  1.00  0.00    -0.350 OA
ATOM     39  H2  UNL     1     109.508  74.433   5.185  1.00  0.00     0.217 HD
ENDBRANCH  37  38
BRANCH  37  40
HETATM   40  O3  UNL     1     110.747  73.658   2.378  1.00  0.00    -0.350 OA
ATOM     41  H3  UNL     1     110.507  72.845   1.947  1.00  0.00     0.217 HD
ENDBRANCH  37  40
ENDBRANCH  36  37
ENDBRANCH  35  36
ENDBRANCH  34  35
ENDBRANCH  32  34
ENDBRANCH  27  32
ENDBRANCH  22  24
ENDBRANCH   1  22
TORSDOF 15
ENDMDL