MODEL 5
REMARK VINA RESULT: -8.457845462      1.501      1.877
REMARK  16 active torsions:
REMARK  status: ('A' for Active; 'I' for Inactive)
REMARK    1  A    between atoms: C2_2  and  C3_3
REMARK    2  A    between atoms: C3_3  and  C4_4
REMARK    3  A    between atoms: C4_4  and  N1_5
REMARK    4  A    between atoms: N1_5  and  C5_7
REMARK    5  A    between atoms: C5_7  and  N2_8
REMARK    6  A    between atoms: N2_8  and  C6_10
REMARK    7  A    between atoms: C6_10  and  C7_11
REMARK    8  A    between atoms: C7_11  and  O1_12
REMARK    9  A    between atoms: C8_14  and  C10_16
REMARK   10  A    between atoms: C12_23  and  N6_24
REMARK   11  A    between atoms: N6_24  and  C13_26
REMARK   12  A    between atoms: C13_26  and  C16_34
REMARK   13  A    between atoms: C14_27  and  C15_28
REMARK   14  A    between atoms: C15_28  and  P1_29
REMARK   15  A    between atoms: P1_29  and  O2_30
REMARK   16  A    between atoms: P1_29  and  O3_32
ROOT
HETATM    1  C10 UNL     1     111.666  79.086   8.863  1.00  0.00     0.060 A
HETATM    2  N3  UNL     1     112.436  78.334   8.089  1.00  0.00    -0.278 N
ATOM      3  H3  UNL     1     113.424  78.380   8.338  1.00  0.00     0.188 HD
HETATM    4  N4  UNL     1     112.183  77.507   7.021  1.00  0.00    -0.080 N
HETATM    5  C11 UNL     1     113.336  76.884   6.478  1.00  0.00     0.242 A
HETATM    6  N5  UNL     1     113.251  76.083   5.474  1.00  0.00    -0.185 N
ATOM      7  H5  UNL     1     114.106  75.658   5.116  1.00  0.00     0.185 HD
HETATM    8  C12 UNL     1     112.023  75.764   4.845  1.00  0.00     0.698 A
HETATM    9  N7  UNL     1     110.942  76.301   5.299  1.00  0.00    -0.020 N
ATOM     10  H7  UNL     1     110.054  76.077   4.850  1.00  0.00     0.203 HD
HETATM   11  C17 UNL     1     110.946  77.199   6.406  1.00  0.00     0.718 A
HETATM   12  N8  UNL     1     109.778  77.645   6.730  1.00  0.00    -0.199 N
ATOM     13  H8  UNL     1     109.003  77.304   6.161  1.00  0.00     0.183 HD
HETATM   14  C18 UNL     1     109.425  78.543   7.769  1.00  0.00     0.108 A
HETATM   15  C19 UNL     1     110.239  79.147   8.668  1.00  0.00     0.049 A
ENDROOT
BRANCH   1  16
HETATM   16  C8  UNL     1     112.328  79.816   9.890  1.00  0.00     0.010 C
HETATM   17  C5  UNL     1     111.913  80.538  10.857  1.00  0.00     0.105 C
HETATM   18  C9  UNL     1     113.866  79.717   9.816  1.00  0.00     0.054 C
BRANCH  17  19
HETATM   19  N1  UNL     1     112.948  81.136  11.713  1.00  0.00    -0.376 N
ATOM     20  H1  UNL     1     113.622  80.548  12.203  1.00  0.00     0.161 HD
BRANCH  19  21
HETATM   21  C4  UNL     1     112.992  82.549  11.842  1.00  0.00     0.121 C
BRANCH  21  22
HETATM   22  C3  UNL     1     112.758  82.989  13.265  1.00  0.00     0.019 C
BRANCH  22  23
HETATM   23  C2  UNL     1     111.426  83.694  13.327  1.00  0.00    -0.003 C
HETATM   24  C1  UNL     1     111.211  84.485  12.059  1.00  0.00     0.005 C
ENDBRANCH  22  23
ENDBRANCH  21  22
ENDBRANCH  19  21
ENDBRANCH  17  19
BRANCH  17  25
HETATM   25  N2  UNL     1     110.590  80.846  11.225  1.00  0.00    -0.374 N
ATOM     26  H2  UNL     1     110.086  81.582  10.731  1.00  0.00     0.161 HD
BRANCH  25  27
HETATM   27  C6  UNL     1     109.931  80.119  12.307  1.00  0.00     0.147 C
BRANCH  27  28
HETATM   28  C7  UNL     1     108.502  79.804  11.970  1.00  0.00     0.183 C
BRANCH  28  29
HETATM   29  O1  UNL     1     107.680  79.777  13.097  1.00  0.00    -0.399 OA
ATOM     30  H1  UNL     1     106.852  79.342  12.933  1.00  0.00     0.209 HD
ENDBRANCH  28  29
ENDBRANCH  27  28
ENDBRANCH  25  27
ENDBRANCH  17  25
ENDBRANCH   1  16
BRANCH   8  31
HETATM   31  N6  UNL     1     111.978  74.859   3.723  1.00  0.00    -0.185 N
ATOM     32  H6  UNL     1     111.101  74.737   3.218  1.00  0.00     0.184 HD
BRANCH  31  33
HETATM   33  C13 UNL     1     113.122  74.137   3.306  1.00  0.00     0.122 C
HETATM   34  C14 UNL     1     113.865  74.637   2.343  1.00  0.00     0.019 C
BRANCH  34  35
HETATM   35  C15 UNL     1     113.519  75.923   1.710  1.00  0.00     0.122 C
BRANCH  35  36
HETATM   36  P1  UNL     1     114.614  77.304   2.293  1.00  0.00     0.166 P
BRANCH  36  37
HETATM   37  O2  UNL     1     113.673  78.681   2.773  1.00  0.00    -0.349 OA
ATOM     38  H2  UNL     1     112.900  78.771   2.228  1.00  0.00     0.217 HD
ENDBRANCH  36  37
BRANCH  36  39
HETATM   39  O3  UNL     1     115.662  76.773   3.570  1.00  0.00    -0.349 OA
ATOM     40  H3  UNL     1     115.226  76.823   4.412  1.00  0.00     0.217 HD
ENDBRANCH  36  39
ENDBRANCH  35  36
ENDBRANCH  34  35
BRANCH  33  41
HETATM   41  C16 UNL     1     113.458  72.857   3.945  1.00  0.00     0.227 C
HETATM   42  O4  UNL     1     112.733  72.425   4.856  1.00  0.00    -0.643 OA
HETATM   43  O5  UNL     1     114.575  72.170   3.511  1.00  0.00    -0.643 OA
ENDBRANCH  33  41
ENDBRANCH  31  33
ENDBRANCH   8  31
TORSDOF 16
ENDMDL