MODEL 4
REMARK VINA RESULT: -8.219035151      1.698      3.414
REMARK  14 active torsions:
REMARK  status: ('A' for Active; 'I' for Inactive)
REMARK    1  A    between atoms: N1_1  and  C1_5
REMARK    2  A    between atoms: C1_5  and  C2_6
REMARK    3  A    between atoms: C2_6  and  O1_7
REMARK    4  A    between atoms: O1_7  and  C3_8
REMARK    5  A    between atoms: C3_8  and  C4_9
REMARK    6  A    between atoms: C4_9  and  N2_10
REMARK    7  A    between atoms: C6_16  and  N5_17
REMARK    8  A    between atoms: C11_26  and  C12_27
REMARK    9  A    between atoms: C12_27  and  N8_28
REMARK   10  A    between atoms: N8_28  and  C13_30
REMARK   11  A    between atoms: C16_33  and  P1_34
REMARK   12  A    between atoms: P1_34  and  O3_35
REMARK   13  A    between atoms: P1_34  and  O4_37
REMARK   14  A    between atoms: O4_37  and  O5_38
ROOT
HETATM    1  C3  UNL     1     112.582  75.213   5.187  1.00  0.00     0.090 C
HETATM    2  C8  UNL     1     112.447  76.276   4.125  1.00  0.00     0.067 C
HETATM    3  C9  UNL     1     113.558  77.264   4.079  1.00  0.00     0.170 C
HETATM    4  O2  UNL     1     114.024  77.679   5.329  1.00  0.00    -0.390 OA
HETATM    5  C10 UNL     1     114.461  76.600   6.086  1.00  0.00     0.180 C
HETATM    6  C11 UNL     1     113.191  75.801   6.402  1.00  0.00     0.084 C
ENDROOT
BRANCH   1   7
HETATM    7  O1  UNL     1     111.282  74.773   5.494  1.00  0.00    -0.376 OA
BRANCH   7   8
HETATM    8  C2  UNL     1     110.297  75.299   4.714  1.00  0.00     0.196 C
BRANCH   8   9
HETATM    9  C1  UNL     1     109.052  75.649   5.541  1.00  0.00     0.255 C
BRANCH   9  10
HETATM   10  N1  UNL     1     109.028  76.982   5.972  1.00  0.00    -0.077 N
ATOM     11  H13 UNL     1     108.773  77.606   5.206  1.00  0.00     0.274 HD
ATOM     12  H12 UNL     1     108.237  77.148   6.594  1.00  0.00     0.274 HD
ATOM     13  H11 UNL     1     109.900  77.282   6.408  1.00  0.00     0.274 HD
ENDBRANCH   9  10
ENDBRANCH   8   9
ENDBRANCH   7   8
ENDBRANCH   1   7
BRANCH   1  14
HETATM   14  C4  UNL     1     113.407  74.087   4.625  1.00  0.00     0.187 C
BRANCH  14  15
HETATM   15  N2  UNL     1     113.230  73.733   3.269  1.00  0.00    -0.174 N
HETATM   16  C5  UNL     1     112.186  73.161   2.600  1.00  0.00     0.218 A
HETATM   17  N3  UNL     1     112.434  73.052   1.289  1.00  0.00    -0.281 N
HETATM   18  N4  UNL     1     113.611  73.534   1.080  1.00  0.00    -0.131 N
ATOM     19  H3  UNL     1     111.807  72.660   0.586  1.00  0.00     0.188 HD
HETATM   20  C6  UNL     1     114.134  73.958   2.250  1.00  0.00     0.702 A
ATOM     21  H4  UNL     1     114.075  73.586   0.173  1.00  0.00     0.205 HD
BRANCH  20  22
HETATM   22  N5  UNL     1     115.438  74.490   2.398  1.00  0.00    -0.164 N
HETATM   23  C7  UNL     1     115.825  75.527   1.772  1.00  0.00     0.215 C
HETATM   24  N6  UNL     1     114.959  76.206   0.892  1.00  0.00    -0.066 NA
HETATM   25  N7  UNL     1     117.161  76.033   1.954  1.00  0.00    -0.066 NA
ATOM     26  H5  UNL     1     116.091  74.025   3.029  1.00  0.00     0.186 HD
ENDBRANCH  20  22
ENDBRANCH  14  15
ENDBRANCH   1  14
BRANCH   6  27
HETATM   27  C12 UNL     1     112.369  76.547   7.344  1.00  0.00     0.071 C
BRANCH  27  28
HETATM   28  N8  UNL     1     112.163  77.940   7.258  1.00  0.00    -0.369 N
ATOM     29  H8  UNL     1     112.139  78.391   6.343  1.00  0.00     0.165 HD
BRANCH  28  30
HETATM   30  C13 UNL     1     111.984  78.747   8.465  1.00  0.00     0.031 A
HETATM   31  C14 UNL     1     110.704  78.977   8.898  1.00  0.00     0.030 A
HETATM   32  C15 UNL     1     110.531  79.742  10.039  1.00  0.00     0.019 A
HETATM   33  C16 UNL     1     111.616  80.256  10.718  1.00  0.00     0.025 A
HETATM   34  C17 UNL     1     112.895  80.007  10.259  1.00  0.00     0.019 A
HETATM   35  C18 UNL     1     113.054  79.251   9.132  1.00  0.00     0.030 A
BRANCH  33  36
HETATM   36  P1  UNL     1     111.384  81.264  12.221  1.00  0.00     0.239 P
BRANCH  36  37
HETATM   37  O3  UNL     1     112.750  81.007  13.293  1.00  0.00    -0.344 OA
ATOM     38  H3  UNL     1     112.921  81.810  13.771  1.00  0.00     0.217 HD
ENDBRANCH  36  37
BRANCH  36  39
HETATM   39  O4  UNL     1     109.908  80.926  13.019  1.00  0.00    -0.181 OA
BRANCH  39  40
HETATM   40  O5  UNL     1     109.925  79.787  13.676  1.00  0.00    -0.244 OA
ATOM     41  H5  UNL     1     109.079  79.554  14.041  1.00  0.00     0.254 HD
ENDBRANCH  39  40
ENDBRANCH  36  39
ENDBRANCH  33  36
ENDBRANCH  28  30
ENDBRANCH  27  28
ENDBRANCH   6  27
TORSDOF 14
ENDMDL