MODEL 3
REMARK VINA RESULT: -9.403123674      3.183     12.448
REMARK  12 active torsions:
REMARK  status: ('A' for Active; 'I' for Inactive)
REMARK    1  A    between atoms: C2_2  and  C4_4
REMARK    2  A    between atoms: C4_4  and  N1_5
REMARK    3  A    between atoms: C4_4  and  C13_22
REMARK       I    between atoms: N1_5  and  C5_7
REMARK    4  A    between atoms: C5_7  and  C6_9
REMARK    5  A    between atoms: C6_9  and  C7_10
REMARK    6  A    between atoms: C7_10  and  N2_11
REMARK       I    between atoms: N3_14  and  C10_15
REMARK       I    between atoms: C13_22  and  N6_24
REMARK    7  A    between atoms: N6_24  and  C15_26
REMARK    8  A    between atoms: N7_29  and  C18_30
REMARK    9  A    between atoms: C18_30  and  C19_31
REMARK   10  A    between atoms: N8_34  and  C22_35
REMARK   11  A    between atoms: C22_35  and  O3_36
REMARK   12  A    between atoms: C22_35  and  N9_38
ROOT
HETATM    1  C15 UNL     1      -2.527 -17.813  33.850  1.00  0.00     0.090 C
HETATM    2  C16 UNL     1      -1.481 -18.871  33.618  1.00  0.00     0.055 C
HETATM    3  C17 UNL     1      -1.345 -19.678  34.899  1.00  0.00     0.274 C
HETATM    4  N7  UNL     1      -2.639 -20.150  35.329  1.00  0.00     0.088 N
HETATM    5  C33 UNL     1      -3.650 -19.940  34.296  1.00  0.00     0.274 C
HETATM    6  C34 UNL     1      -3.856 -18.460  34.051  1.00  0.00     0.055 C
ENDROOT
BRANCH   1   7
HETATM    7  N6  UNL     1      -2.522 -16.780  32.819  1.00  0.00    -0.350 N
HETATM    8  C13 UNL     1      -1.420 -15.952  32.582  1.00  0.00     0.243 C
HETATM    9  O2  UNL     1      -0.431 -16.118  33.385  1.00  0.00    -0.271 OA
HETATM   10  C14 UNL     1      -3.733 -16.665  32.039  1.00  0.00     0.153 C
BRANCH   8  11
HETATM   11  C4  UNL     1      -1.258 -14.940  31.553  1.00  0.00     0.180 C
BRANCH  11  12
HETATM   12  C2  UNL     1      -2.485 -14.563  30.772  1.00  0.00     0.009 C
HETATM   13  C1  UNL     1      -2.258 -14.323  29.306  1.00  0.00     0.012 C
HETATM   14  C3  UNL     1      -2.934 -13.192  31.372  1.00  0.00     0.012 C
ENDBRANCH  11  12
BRANCH  11  15
HETATM   15  N1  UNL     1      -0.151 -15.183  30.661  1.00  0.00    -0.347 N
HETATM   16  C5  UNL     1       0.444 -16.376  30.273  1.00  0.00     0.220 C
HETATM   17  O1  UNL     1       0.129 -17.537  30.629  1.00  0.00    -0.274 OA
ATOM     18  H1  UNL     1       0.261 -14.345  30.249  1.00  0.00     0.163 HD
BRANCH  16  19
HETATM   19  C6  UNL     1       1.607 -16.317  29.309  1.00  0.00     0.133 C
BRANCH  19  20
HETATM   20  C7  UNL     1       2.054 -17.707  29.022  1.00  0.00     0.281 C
BRANCH  20  21
HETATM   21  N2  UNL     1       3.462 -17.915  29.309  1.00  0.00     0.092 N
HETATM   22  C8  UNL     1       4.105 -18.719  28.310  1.00  0.00     0.292 C
HETATM   23  C9  UNL     1       5.590 -18.800  28.627  1.00  0.00     0.156 C
HETATM   24  N3  UNL     1       5.682 -19.395  29.935  1.00  0.00    -0.353 N
HETATM   25  C10 UNL     1       6.939 -19.605  30.536  1.00  0.00     0.184 C
HETATM   26  C11 UNL     1       4.463 -19.764  30.608  1.00  0.00     0.156 C
HETATM   27  N4  UNL     1       7.958 -18.804  30.324  1.00  0.00    -0.374 N
HETATM   28  N5  UNL     1       7.220 -20.686  31.414  1.00  0.00    -0.064 NA
ATOM     29  H42 UNL     1       7.756 -18.028  29.694  1.00  0.00     0.158 HD
ATOM     30  H41 UNL     1       8.868 -18.957  30.760  1.00  0.00     0.158 HD
HETATM   31  C12 UNL     1       3.557 -18.540  30.609  1.00  0.00     0.292 C
ENDBRANCH  20  21
ENDBRANCH  19  20
ENDBRANCH  16  19
ENDBRANCH  11  15
ENDBRANCH   8  11
ENDBRANCH   1   7
BRANCH   4  32
HETATM   32  C18 UNL     1      -3.070 -19.621  36.596  1.00  0.00     0.277 C
BRANCH  32  33
HETATM   33  C19 UNL     1      -2.105 -20.121  37.670  1.00  0.00     0.017 C
HETATM   34  C20 UNL     1      -2.319 -21.578  37.874  1.00  0.00     0.026 C
HETATM   35  C21 UNL     1      -1.382 -22.057  39.001  1.00  0.00     0.127 C
HETATM   36  N8  UNL     1      -1.753 -21.404  40.206  1.00  0.00    -0.347 N
HETATM   37  C31 UNL     1      -2.761 -20.321  40.030  1.00  0.00     0.127 C
HETATM   38  C32 UNL     1      -2.282 -19.379  38.951  1.00  0.00     0.026 C
BRANCH  36  39
HETATM   39  C22 UNL     1      -1.303 -21.584  41.521  1.00  0.00     0.217 C
BRANCH  39  40
HETATM   40  O3  UNL     1      -2.187 -22.123  42.322  1.00  0.00    -0.333 OA
ATOM     41  H3  UNL     1      -2.878 -21.530  42.594  1.00  0.00     0.220 HD
ENDBRANCH  39  40
BRANCH  39  42
HETATM   42  N9  UNL     1      -0.068 -21.284  42.126  1.00  0.00    -0.348 N
HETATM   43  C23 UNL     1      -0.126 -20.467  43.358  1.00  0.00     0.126 C
HETATM   44  C24 UNL     1       0.986 -19.465  43.463  1.00  0.00     0.020 C
HETATM   45  C25 UNL     1       0.530 -18.067  43.156  1.00  0.00     0.002 C
HETATM   46  C26 UNL     1       0.794 -17.553  41.805  1.00  0.00     0.000 C
HETATM   47  C27 UNL     1       1.775 -18.349  40.986  1.00  0.00     0.000 C
HETATM   48  C28 UNL     1       1.093 -19.533  40.309  1.00  0.00     0.002 C
HETATM   49  C29 UNL     1       1.792 -20.823  40.550  1.00  0.00     0.020 C
HETATM   50  C30 UNL     1       1.199 -21.706  41.610  1.00  0.00     0.126 C
ENDBRANCH  39  42
ENDBRANCH  36  39
ENDBRANCH  32  33
ENDBRANCH   4  32
TORSDOF 12
ENDMDL