MODEL 2
REMARK VINA RESULT: -7.233030287      9.204     14.938
REMARK  13 active torsions:
REMARK  status: ('A' for Active; 'I' for Inactive)
REMARK    1  A    between atoms: C2_2  and  C4_4
REMARK    2  A    between atoms: C4_4  and  C5_5
REMARK    3  A    between atoms: C5_5  and  O1_6
REMARK    4  A    between atoms: C5_5  and  N1_8
REMARK    5  A    between atoms: N1_8  and  C6_10
REMARK    6  A    between atoms: C6_10  and  C7_11
REMARK    7  A    between atoms: C6_10  and  C18_31
REMARK       I    between atoms: C7_11  and  N2_13
REMARK       I    between atoms: N3_16  and  C10_17
REMARK    8  A    between atoms: C10_17  and  O4_19
REMARK    9  A    between atoms: O4_19  and  C11_20
REMARK   10  A    between atoms: C11_20  and  C12_21
REMARK   11  A    between atoms: C12_21  and  C13_22
REMARK   12  A    between atoms: C13_22  and  C14_23
REMARK   13  A    between atoms: C14_23  and  N4_24
ROOT
HETATM    1  C6  UNL     1      -1.175 -21.096  40.831  1.00  0.00     0.205 C
ENDROOT
BRANCH   1   2
HETATM    2  N1  UNL     1      -2.611 -20.704  40.804  1.00  0.00    -0.354 N
ATOM      3  H1  UNL     1      -2.936 -20.081  40.064  1.00  0.00     0.162 HD
BRANCH   2   4
HETATM    4  C5  UNL     1      -3.523 -21.154  41.743  1.00  0.00     0.136 C
BRANCH   4   5
HETATM    5  C4  UNL     1      -4.935 -20.882  41.788  1.00  0.00     0.057 C
BRANCH   5   6
HETATM    6  C2  UNL     1      -5.705 -20.119  41.101  1.00  0.00    -0.084 C
HETATM    7  C1  UNL     1      -6.004 -18.727  41.635  1.00  0.00     0.043 C
HETATM    8  C3  UNL     1      -6.352 -20.449  39.828  1.00  0.00     0.043 C
ENDBRANCH   5   6
ENDBRANCH   4   5
BRANCH   4   9
HETATM    9  O1  UNL     1      -3.124 -21.916  42.728  1.00  0.00    -0.346 OA
ATOM     10  H1  UNL     1      -3.315 -21.543  43.580  1.00  0.00     0.219 HD
ENDBRANCH   4   9
ENDBRANCH   2   4
ENDBRANCH   1   2
BRANCH   1  11
HETATM   11  C7  UNL     1      -0.901 -21.896  39.611  1.00  0.00     0.247 C
HETATM   12  O2  UNL     1       0.204 -22.555  39.541  1.00  0.00    -0.271 OA
HETATM   13  N2  UNL     1      -1.707 -22.035  38.482  1.00  0.00    -0.347 N
HETATM   14  C8  UNL     1      -1.290 -22.885  37.386  1.00  0.00     0.146 C
HETATM   15  C17 UNL     1      -2.963 -21.348  38.310  1.00  0.00     0.146 C
HETATM   16  C9  UNL     1      -1.852 -22.422  36.063  1.00  0.00     0.148 C
HETATM   17  N3  UNL     1      -2.000 -20.986  36.120  1.00  0.00    -0.325 N
HETATM   18  C10 UNL     1      -1.249 -20.156  35.230  1.00  0.00     0.362 C
HETATM   19  C16 UNL     1      -2.917 -20.426  37.087  1.00  0.00     0.148 C
HETATM   20  O3  UNL     1      -0.459 -20.613  34.389  1.00  0.00    -0.238 OA
BRANCH  18  21
HETATM   21  O4  UNL     1      -1.418 -18.805  35.320  1.00  0.00    -0.304 OA
BRANCH  21  22
HETATM   22  C11 UNL     1      -1.884 -17.938  34.346  1.00  0.00     0.180 C
BRANCH  22  23
HETATM   23  C12 UNL     1      -3.223 -18.350  33.831  1.00  0.00     0.028 C
BRANCH  23  24
HETATM   24  C13 UNL     1      -3.749 -17.171  33.002  1.00  0.00     0.022 C
BRANCH  24  25
HETATM   25  C14 UNL     1      -2.643 -16.146  32.816  1.00  0.00     0.122 C
BRANCH  25  26
HETATM   26  N4  UNL     1      -2.337 -15.940  31.436  1.00  0.00    -0.367 N
HETATM   27  C15 UNL     1      -2.760 -14.947  30.763  1.00  0.00     0.196 C
HETATM   28  N5  UNL     1      -2.405 -14.820  29.386  1.00  0.00    -0.067 NA
HETATM   29  N6  UNL     1      -3.579 -13.954  31.336  1.00  0.00    -0.067 NA
ATOM     30  H4  UNL     1      -1.748 -16.627  30.965  1.00  0.00     0.161 HD
ENDBRANCH  25  26
ENDBRANCH  24  25
ENDBRANCH  23  24
ENDBRANCH  22  23
ENDBRANCH  21  22
ENDBRANCH  18  21
ENDBRANCH   1  11
BRANCH   1  31
HETATM   31  C18 UNL     1      -0.377 -19.773  40.856  1.00  0.00    -0.048 C
HETATM   32  C19 UNL     1      -0.833 -18.968  42.023  1.00  0.00     0.037 C
HETATM   33  C20 UNL     1      -0.598 -19.486  43.386  1.00  0.00     0.004 C
HETATM   34  C21 UNL     1      -0.234 -18.396  44.403  1.00  0.00     0.000 C
HETATM   35  C22 UNL     1       1.096 -18.657  45.060  1.00  0.00     0.000 C
HETATM   36  C23 UNL     1       1.961 -17.485  45.279  1.00  0.00     0.002 C
HETATM   37  C24 UNL     1       2.630 -16.894  44.062  1.00  0.00     0.028 C
HETATM   38  C25 UNL     1       3.626 -17.761  43.399  1.00  0.00     0.243 C
HETATM   39  N7  UNL     1       3.643 -17.677  41.924  1.00  0.00    -0.043 N
HETATM   40  C26 UNL     1       3.636 -16.226  41.680  1.00  0.00     0.271 C
HETATM   41  C31 UNL     1       4.892 -18.124  41.392  1.00  0.00     0.271 C
HETATM   42  C32 UNL     1       2.457 -18.163  41.342  1.00  0.00     0.209 C
HETATM   43  C27 UNL     1       4.125 -15.875  40.290  1.00  0.00     0.265 C
HETATM   44  N8  UNL     1       5.552 -16.013  40.299  1.00  0.00    -0.071 N
HETATM   45  C28 UNL     1       6.097 -16.280  38.982  1.00  0.00     0.272 C
HETATM   46  C29 UNL     1       6.137 -14.733  40.716  1.00  0.00     0.272 C
HETATM   47  C30 UNL     1       5.915 -16.982  41.271  1.00  0.00     0.265 C
HETATM   48  C33 UNL     1       2.249 -19.571  40.969  1.00  0.00    -0.038 C
HETATM   49  C34 UNL     1       2.788 -20.659  41.810  1.00  0.00     0.049 C
HETATM   50  C35 UNL     1       0.943 -19.761  40.323  1.00  0.00     0.013 C
ENDBRANCH   1  31
TORSDOF 13
ENDMDL