MODEL 2
REMARK VINA RESULT: -9.048671664      2.189      4.631
REMARK  9 active torsions:
REMARK  status: ('A' for Active; 'I' for Inactive)
REMARK    1  A    between atoms: C2_2  and  N1_4
REMARK       I    between atoms: N1_4  and  C4_5
REMARK    2  A    between atoms: N1_4  and  C23_35
REMARK    3  A    between atoms: C4_5  and  C5_7
REMARK    4  A    between atoms: C7_9  and  N2_10
REMARK       I    between atoms: N2_10  and  C8_12
REMARK    5  A    between atoms: C8_12  and  C9_14
REMARK       I    between atoms: N3_19  and  C14_20
REMARK       I    between atoms: C14_20  and  N4_22
REMARK    6  A    between atoms: N4_22  and  C15_24
REMARK    7  A    between atoms: N5_26  and  C17_27
REMARK    8  A    between atoms: C23_35  and  C25_37
REMARK       I    between atoms: C25_37  and  N6_39
REMARK    9  A    between atoms: N6_39  and  C26_41
ROOT
HETATM    1  C5  UNL     1      -3.057 -20.185  39.472  1.00  0.00     0.183 C
HETATM    2  C6  UNL     1      -4.345 -21.043  39.703  1.00  0.00     0.060 C
HETATM    3  C7  UNL     1      -5.558 -20.180  39.846  1.00  0.00     0.088 C
HETATM    4  C12 UNL     1      -5.339 -18.824  39.194  1.00  0.00     0.045 C
HETATM    5  C13 UNL     1      -4.549 -19.002  37.908  1.00  0.00     0.130 C
HETATM    6  N3  UNL     1      -3.241 -19.642  38.167  1.00  0.00    -0.321 N
HETATM    7  C14 UNL     1      -2.341 -19.590  37.092  1.00  0.00     0.319 C
HETATM    8  O3  UNL     1      -1.184 -20.032  37.195  1.00  0.00    -0.247 OA
HETATM    9  N4  UNL     1      -2.695 -19.038  35.833  1.00  0.00    -0.328 N
ATOM     10  H4  UNL     1      -3.638 -18.665  35.719  1.00  0.00     0.165 HD
ENDROOT
BRANCH   1  11
HETATM   11  C4  UNL     1      -1.966 -21.126  39.644  1.00  0.00     0.244 C
HETATM   12  N1  UNL     1      -0.893 -21.012  40.548  1.00  0.00    -0.333 N
HETATM   13  O1  UNL     1      -1.964 -22.178  38.902  1.00  0.00    -0.271 OA
BRANCH  12  14
HETATM   14  C2  UNL     1      -0.778 -19.835  41.396  1.00  0.00     0.080 C
HETATM   15  C1  UNL     1      -2.072 -19.508  42.128  1.00  0.00     0.032 C
HETATM   16  C3  UNL     1      -0.278 -18.608  40.723  1.00  0.00     0.032 C
ENDBRANCH  12  14
BRANCH  12  17
HETATM   17  C23 UNL     1       0.096 -22.097  40.706  1.00  0.00     0.175 C
HETATM   18  C24 UNL     1       0.062 -22.715  42.067  1.00  0.00     0.042 C
BRANCH  17  19
HETATM   19  C25 UNL     1       1.435 -21.752  40.224  1.00  0.00     0.240 C
HETATM   20  O6  UNL     1       1.771 -22.116  39.024  1.00  0.00    -0.271 OA
HETATM   21  N6  UNL     1       2.442 -21.050  40.915  1.00  0.00    -0.354 N
ATOM     22  H6  UNL     1       2.234 -20.729  41.860  1.00  0.00     0.162 HD
BRANCH  21  23
HETATM   23  C26 UNL     1       3.743 -20.755  40.381  1.00  0.00     0.092 C
HETATM   24  C27 UNL     1       3.838 -19.407  39.698  1.00  0.00     0.009 C
HETATM   25  C28 UNL     1       3.677 -18.250  40.629  1.00  0.00     0.011 C
HETATM   26  C32 UNL     1       5.242 -19.378  39.076  1.00  0.00     0.011 C
HETATM   27  C29 UNL     1       4.754 -18.352  41.689  1.00  0.00    -0.013 C
HETATM   28  C30 UNL     1       6.117 -18.299  41.080  1.00  0.00     0.009 C
HETATM   29  C35 UNL     1       4.542 -19.640  42.460  1.00  0.00     0.011 C
HETATM   30  C31 UNL     1       6.290 -19.491  40.163  1.00  0.00    -0.013 C
HETATM   31  C33 UNL     1       6.138 -20.739  40.995  1.00  0.00     0.011 C
HETATM   32  C34 UNL     1       4.728 -20.808  41.519  1.00  0.00     0.009 C
ENDBRANCH  21  23
ENDBRANCH  17  19
ENDBRANCH  12  17
ENDBRANCH   1  11
BRANCH   3  33
HETATM   33  N2  UNL     1      -5.933 -19.974  41.219  1.00  0.00    -0.356 N
HETATM   34  C8  UNL     1      -5.718 -20.981  42.173  1.00  0.00     0.222 C
HETATM   35  O2  UNL     1      -5.195 -22.080  41.830  1.00  0.00    -0.273 OA
ATOM     36  H2  UNL     1      -6.358 -19.092  41.502  1.00  0.00     0.162 HD
BRANCH  34  37
HETATM   37  C9  UNL     1      -6.086 -20.797  43.596  1.00  0.00     0.078 A
HETATM   38  C10 UNL     1      -4.883 -20.999  44.544  1.00  0.00     0.015 A
HETATM   39  C11 UNL     1      -6.006 -21.953  44.493  1.00  0.00     0.015 A
ENDBRANCH  34  37
ENDBRANCH   3  33
BRANCH   9  40
HETATM   40  C15 UNL     1      -1.802 -18.973  34.712  1.00  0.00     0.196 C
HETATM   41  C16 UNL     1      -1.337 -17.554  34.458  1.00  0.00     0.161 C
HETATM   42  N5  UNL     1      -2.274 -17.503  33.355  1.00  0.00    -0.343 N
HETATM   43  C22 UNL     1      -2.510 -18.920  33.409  1.00  0.00     0.244 C
HETATM   44  O5  UNL     1      -3.076 -19.760  32.669  1.00  0.00    -0.271 OA
BRANCH  42  45
HETATM   45  C17 UNL     1      -2.818 -16.464  32.487  1.00  0.00     0.091 C
HETATM   46  C18 UNL     1      -3.411 -15.321  33.242  1.00  0.00     0.051 C
HETATM   47  C19 UNL     1      -3.668 -14.184  32.291  1.00  0.00     0.169 C
HETATM   48  O4  UNL     1      -2.470 -13.741  31.760  1.00  0.00    -0.391 OA
HETATM   49  C20 UNL     1      -1.997 -14.725  30.890  1.00  0.00     0.169 C
HETATM   50  C21 UNL     1      -1.601 -15.916  31.726  1.00  0.00     0.051 C
ENDBRANCH  42  45
ENDBRANCH   9  40
TORSDOF 9
ENDMDL