MODEL 4
REMARK VINA RESULT: -9.756302239      1.083      1.543
REMARK  11 active torsions:
REMARK  status: ('A' for Active; 'I' for Inactive)
REMARK    1  A    between atoms: C2_2  and  N1_4
REMARK       I    between atoms: N1_4  and  C4_6
REMARK       I    between atoms: C4_6  and  N2_8
REMARK       I    between atoms: N3_11  and  C7_12
REMARK    2  A    between atoms: C7_12  and  C8_14
REMARK    3  A    between atoms: C8_14  and  N4_15
REMARK    4  A    between atoms: C8_14  and  C29_42
REMARK    5  A    between atoms: N4_15  and  C9_17
REMARK    6  A    between atoms: C9_17  and  O3_18
REMARK    7  A    between atoms: C9_17  and  C10_20
REMARK    8  A    between atoms: C10_20  and  C11_21
REMARK    9  A    between atoms: C10_20  and  N5_28
REMARK   10  A    between atoms: C11_21  and  C12_22
REMARK       I    between atoms: N5_28  and  C18_30
REMARK   11  A    between atoms: C18_30  and  C19_32
REMARK       I    between atoms: C29_42  and  N6_44
ROOT
HETATM    1  N4  UNL     1       3.471 -14.827  26.584  1.00  0.00    -0.352 N
ATOM      2  H4  UNL     1       3.354 -14.714  25.577  1.00  0.00     0.162 HD
ENDROOT
BRANCH   1   3
HETATM    3  C8  UNL     1       4.850 -14.932  27.190  1.00  0.00     0.269 C
BRANCH   3   4
HETATM    4  C7  UNL     1       5.422 -16.227  26.825  1.00  0.00     0.252 C
HETATM    5  N3  UNL     1       6.290 -17.029  27.577  1.00  0.00    -0.347 N
HETATM    6  C6  UNL     1       6.747 -18.338  27.019  1.00  0.00     0.146 C
HETATM    7  C34 UNL     1       6.792 -16.687  28.879  1.00  0.00     0.146 C
HETATM    8  C5  UNL     1       8.256 -18.338  27.218  1.00  0.00     0.147 C
HETATM    9  N2  UNL     1       8.473 -18.397  28.654  1.00  0.00    -0.331 N
HETATM   10  C4  UNL     1       9.627 -19.082  29.111  1.00  0.00     0.318 C
HETATM   11  C35 UNL     1       7.542 -17.793  29.559  1.00  0.00     0.147 C
HETATM   12  N1  UNL     1       9.885 -19.160  30.492  1.00  0.00    -0.339 N
HETATM   13  O1  UNL     1      10.437 -19.629  28.309  1.00  0.00    -0.247 OA
ATOM     14  H1  UNL     1       9.249 -18.726  31.162  1.00  0.00     0.164 HD
HETATM   15  O2  UNL     1       5.104 -16.716  25.677  1.00  0.00    -0.270 OA
BRANCH  12  16
HETATM   16  C2  UNL     1      11.065 -19.864  30.952  1.00  0.00     0.078 C
HETATM   17  C1  UNL     1      11.959 -18.815  31.602  1.00  0.00     0.032 C
HETATM   18  C3  UNL     1      10.745 -20.997  31.866  1.00  0.00     0.032 C
ENDBRANCH  12  16
ENDBRANCH   3   4
BRANCH   3  19
HETATM   19  C29 UNL     1       5.552 -13.751  26.611  1.00  0.00     0.252 C
HETATM   20  O5  UNL     1       6.262 -14.008  25.560  1.00  0.00    -0.270 OA
HETATM   21  N6  UNL     1       5.531 -12.433  27.042  1.00  0.00    -0.346 N
HETATM   22  C30 UNL     1       6.385 -11.457  26.337  1.00  0.00     0.152 C
HETATM   23  C33 UNL     1       4.728 -11.833  28.074  1.00  0.00     0.152 C
HETATM   24  C31 UNL     1       7.454 -11.073  27.370  1.00  0.00     0.187 C
HETATM   25  O6  UNL     1       6.931 -11.019  28.634  1.00  0.00    -0.388 OA
HETATM   26  C32 UNL     1       5.590 -10.761  28.730  1.00  0.00     0.187 C
ENDBRANCH   3  19
ENDBRANCH   1   3
BRANCH   1  27
HETATM   27  C9  UNL     1       2.374 -14.888  27.416  1.00  0.00     0.135 C
BRANCH  27  28
HETATM   28  O3  UNL     1       1.791 -13.697  27.620  1.00  0.00    -0.348 OA
ATOM     29  H3  UNL     1       2.205 -13.185  28.304  1.00  0.00     0.219 HD
ENDBRANCH  27  28
BRANCH  27  30
HETATM   30  C10 UNL     1       1.690 -15.944  28.115  1.00  0.00     0.159 C
BRANCH  30  31
HETATM   31  C11 UNL     1       2.343 -17.093  28.752  1.00  0.00     0.038 C
BRANCH  31  32
HETATM   32  C12 UNL     1       2.513 -17.275  30.192  1.00  0.00    -0.012 C
HETATM   33  C13 UNL     1       3.911 -17.999  30.318  1.00  0.00     0.005 C
HETATM   34  C14 UNL     1       4.413 -17.749  31.703  1.00  0.00     0.000 C
HETATM   35  C15 UNL     1       3.316 -18.145  32.684  1.00  0.00     0.000 C
HETATM   36  C16 UNL     1       2.261 -18.988  31.996  1.00  0.00     0.000 C
HETATM   37  C17 UNL     1       1.550 -18.164  30.926  1.00  0.00     0.005 C
ENDBRANCH  31  32
ENDBRANCH  30  31
BRANCH  30  38
HETATM   38  N5  UNL     1       0.842 -15.346  29.209  1.00  0.00    -0.348 N
HETATM   39  C18 UNL     1      -0.524 -15.527  29.179  1.00  0.00     0.227 C
HETATM   40  O4  UNL     1      -1.042 -16.188  28.218  1.00  0.00    -0.273 OA
ATOM     41  H5  UNL     1       1.276 -14.814  29.964  1.00  0.00     0.163 HD
BRANCH  39  42
HETATM   42  C19 UNL     1      -1.467 -15.004  30.200  1.00  0.00     0.042 C
HETATM   43  C20 UNL     1      -2.851 -15.432  29.852  1.00  0.00     0.024 C
HETATM   44  C21 UNL     1      -3.831 -14.982  30.944  1.00  0.00    -0.013 C
HETATM   45  C22 UNL     1      -3.363 -15.593  32.236  1.00  0.00     0.009 C
HETATM   46  C26 UNL     1      -3.828 -13.479  30.985  1.00  0.00     0.009 C
HETATM   47  C23 UNL     1      -2.017 -15.020  32.612  1.00  0.00    -0.013 C
HETATM   48  C24 UNL     1      -2.038 -13.516  32.645  1.00  0.00     0.009 C
HETATM   49  C28 UNL     1      -1.023 -15.451  31.558  1.00  0.00     0.024 C
HETATM   50  C25 UNL     1      -2.414 -13.019  31.276  1.00  0.00    -0.013 C
HETATM   51  C27 UNL     1      -1.458 -13.484  30.211  1.00  0.00     0.024 C
ENDBRANCH  39  42
ENDBRANCH  30  38
ENDBRANCH  27  30
ENDBRANCH   1  27
TORSDOF 11
ENDMDL