MODEL 3
REMARK VINA RESULT: -7.713564922      8.424     12.885
REMARK  11 active torsions:
REMARK  status: ('A' for Active; 'I' for Inactive)
REMARK    1  A    between atoms: C2_2  and  O1_4
REMARK    2  A    between atoms: C2_2  and  C4_6
REMARK    3  A    between atoms: C4_6  and  C5_7
REMARK    4  A    between atoms: C5_7  and  N1_8
REMARK       I    between atoms: N1_8  and  C6_10
REMARK       I    between atoms: C6_10  and  N2_12
REMARK    5  A    between atoms: N3_15  and  C9_16
REMARK    6  A    between atoms: C9_16  and  O3_17
REMARK    7  A    between atoms: C10_19  and  N4_20
REMARK    8  A    between atoms: C17_29  and  C18_30
REMARK    9  A    between atoms: C24_36  and  C25_37
REMARK       I    between atoms: C25_37  and  N6_39
REMARK   10  A    between atoms: N6_39  and  C26_41
REMARK   11  A    between atoms: C26_41  and  C27_42
ROOT
HETATM    1  N4  UNL     1       5.488 -18.046  30.999  1.00  0.00    -0.320 N
HETATM    2  C11 UNL     1       4.530 -18.945  31.677  1.00  0.00     0.162 C
HETATM    3  C12 UNL     1       3.343 -18.058  31.960  1.00  0.00     0.295 C
HETATM    4  N5  UNL     1       2.626 -17.715  30.736  1.00  0.00     0.121 N
HETATM    5  C13 UNL     1       3.448 -17.007  29.812  1.00  0.00     0.316 C
HETATM    6  C14 UNL     1       3.120 -17.517  28.399  1.00  0.00     0.053 C
HETATM    7  C15 UNL     1       2.027 -16.605  27.814  1.00  0.00     0.086 C
HETATM    8  C16 UNL     1       0.905 -16.710  28.783  1.00  0.00     0.154 C
HETATM    9  O4  UNL     1      -0.040 -17.333  28.341  1.00  0.00    -0.293 OA
HETATM   10  C17 UNL     1       0.825 -16.163  30.155  1.00  0.00     0.012 C
HETATM   11  C24 UNL     1       1.464 -16.947  31.222  1.00  0.00     0.348 C
HETATM   12  C33 UNL     1       4.905 -17.242  29.966  1.00  0.00     0.257 C
HETATM   13  O6  UNL     1       5.699 -16.713  29.151  1.00  0.00    -0.271 OA
ENDROOT
BRANCH   1  14
HETATM   14  C10 UNL     1       6.842 -17.977  31.405  1.00  0.00     0.149 C
HETATM   15  C9  UNL     1       7.255 -17.427  32.671  1.00  0.00     0.154 C
BRANCH  15  16
HETATM   16  N3  UNL     1       6.577 -16.868  33.743  1.00  0.00    -0.358 N
HETATM   17  C8  UNL     1       5.958 -15.490  33.560  1.00  0.00     0.145 C
HETATM   18  C7  UNL     1       6.710 -14.546  34.472  1.00  0.00     0.147 C
HETATM   19  N2  UNL     1       6.694 -15.033  35.817  1.00  0.00    -0.331 N
HETATM   20  C6  UNL     1       6.324 -14.334  36.981  1.00  0.00     0.318 C
HETATM   21  C35 UNL     1       7.123 -16.422  36.002  1.00  0.00     0.147 C
HETATM   22  N1  UNL     1       5.921 -12.984  36.928  1.00  0.00    -0.343 N
HETATM   23  O2  UNL     1       6.362 -14.955  38.109  1.00  0.00    -0.247 OA
ATOM     24  H1  UNL     1       5.901 -12.503  36.029  1.00  0.00     0.164 HD
HETATM   25  C34 UNL     1       6.317 -17.349  35.070  1.00  0.00     0.145 C
BRANCH  22  26
HETATM   26  C5  UNL     1       5.532 -12.262  38.132  1.00  0.00     0.127 C
BRANCH  26  27
HETATM   27  C4  UNL     1       4.060 -12.227  38.363  1.00  0.00     0.056 C
BRANCH  27  28
HETATM   28  C2  UNL     1       3.642 -13.158  39.491  1.00  0.00     0.052 C
HETATM   29  C1  UNL     1       2.337 -12.708  40.106  1.00  0.00     0.045 C
HETATM   30  C3  UNL     1       4.690 -13.051  40.592  1.00  0.00     0.045 C
BRANCH  28  31
HETATM   31  O1  UNL     1       3.539 -14.471  39.097  1.00  0.00    -0.391 OA
ATOM     32  H1  UNL     1       4.171 -14.649  38.411  1.00  0.00     0.210 HD
ENDBRANCH  28  31
ENDBRANCH  27  28
ENDBRANCH  26  27
ENDBRANCH  22  26
ENDBRANCH  15  16
BRANCH  15  33
HETATM   33  O3  UNL     1       8.579 -17.446  32.884  1.00  0.00    -0.345 OA
ATOM     34  H3  UNL     1       9.063 -17.441  32.067  1.00  0.00     0.219 HD
ENDBRANCH  15  33
ENDBRANCH   1  14
BRANCH  11  35
HETATM   35  C25 UNL     1       0.631 -17.929  31.942  1.00  0.00     0.255 C
HETATM   36  O5  UNL     1       0.097 -18.876  31.293  1.00  0.00    -0.271 OA
HETATM   37  N6  UNL     1       0.402 -17.865  33.337  1.00  0.00    -0.359 N
ATOM     38  H6  UNL     1       0.825 -17.108  33.875  1.00  0.00     0.162 HD
BRANCH  37  39
HETATM   39  C26 UNL     1      -0.414 -18.842  34.022  1.00  0.00     0.127 C
BRANCH  39  40
HETATM   40  C27 UNL     1      -1.509 -18.186  34.819  1.00  0.00     0.003 C
HETATM   41  C28 UNL     1      -2.481 -17.498  33.879  1.00  0.00     0.006 C
HETATM   42  C29 UNL     1      -3.269 -18.485  33.048  1.00  0.00     0.000 C
HETATM   43  C30 UNL     1      -3.631 -19.721  33.806  1.00  0.00     0.000 C
HETATM   44  C31 UNL     1      -3.576 -19.525  35.307  1.00  0.00     0.000 C
HETATM   45  C32 UNL     1      -2.202 -19.100  35.772  1.00  0.00     0.006 C
ENDBRANCH  39  40
ENDBRANCH  37  39
ENDBRANCH  11  35
BRANCH  10  46
HETATM   46  C18 UNL     1      -0.507 -15.609  30.500  1.00  0.00     0.021 C
HETATM   47  C19 UNL     1      -1.067 -14.549  29.623  1.00  0.00     0.009 C
HETATM   48  C20 UNL     1      -2.564 -14.479  29.838  1.00  0.00     0.001 C
HETATM   49  C21 UNL     1      -2.864 -14.436  31.305  1.00  0.00     0.000 C
HETATM   50  C22 UNL     1      -1.629 -13.998  32.054  1.00  0.00     0.001 C
HETATM   51  C23 UNL     1      -0.505 -15.004  31.923  1.00  0.00     0.009 C
ENDBRANCH  10  46
TORSDOF 11
ENDMDL