MODEL 4
REMARK VINA RESULT: -8.705320056      1.632      2.989
REMARK  8 active torsions:
REMARK  status: ('A' for Active; 'I' for Inactive)
REMARK    1  A    between atoms: C2_2  and  C3_3
REMARK    2  A    between atoms: C2_2  and  O4_36
REMARK    3  A    between atoms: C4_4  and  C5_5
REMARK    4  A    between atoms: C5_5  and  C6_6
REMARK    5  A    between atoms: C13_14  and  C14_15
REMARK    6  A    between atoms: O4_36  and  C27_37
REMARK    7  A    between atoms: N4_40  and  C30_41
REMARK    8  A    between atoms: C30_41  and  C31_42
ROOT
HETATM    1  C6  UNL     1      -2.826 -20.190  38.818  1.00  0.00    -0.027 C
HETATM    2  C7  UNL     1      -2.904 -21.548  38.156  1.00  0.00     0.016 C
HETATM    3  C8  UNL     1      -1.802 -19.991  39.835  1.00  0.00     0.061 C
HETATM    4  C9  UNL     1      -0.440 -20.409  39.237  1.00  0.00     0.018 C
HETATM    5  C10 UNL     1      -1.917 -20.702  41.117  1.00  0.00     0.142 C
HETATM    6  O1  UNL     1      -1.711 -21.929  41.000  1.00  0.00    -0.297 OA
HETATM    7  C11 UNL     1      -2.220 -20.190  42.446  1.00  0.00     0.051 C
HETATM    8  C12 UNL     1      -1.376 -19.013  42.846  1.00  0.00     0.026 C
HETATM    9  C13 UNL     1      -1.886 -21.293  43.492  1.00  0.00     0.189 C
HETATM   10  N2  UNL     1      -2.738 -22.452  43.157  1.00  0.00    -0.346 N
ATOM     11  H2  UNL     1      -2.341 -23.391  43.129  1.00  0.00     0.163 HD
HETATM   12  C15 UNL     1      -4.101 -22.248  42.878  1.00  0.00     0.229 C
HETATM   13  O3  UNL     1      -4.874 -23.240  42.929  1.00  0.00    -0.273 OA
HETATM   14  C16 UNL     1      -4.634 -20.945  42.536  1.00  0.00     0.075 C
HETATM   15  C17 UNL     1      -5.790 -20.661  43.550  1.00  0.00     0.252 C
HETATM   16  N3  UNL     1      -6.475 -19.581  42.924  1.00  0.00    -0.069 N
ATOM     17  H31 UNL     1      -6.265 -18.685  43.364  1.00  0.00     0.277 HD
ATOM     18  H32 UNL     1      -7.477 -19.602  43.108  1.00  0.00     0.277 HD
HETATM   19  C18 UNL     1      -6.177 -19.578  41.505  1.00  0.00     0.195 C
HETATM   20  C19 UNL     1      -5.148 -18.514  41.211  1.00  0.00     0.017 C
HETATM   21  C20 UNL     1      -4.519 -18.615  39.858  1.00  0.00     0.012 C
HETATM   22  C21 UNL     1      -4.285 -19.967  39.327  1.00  0.00    -0.001 C
HETATM   23  C22 UNL     1      -4.913 -21.126  39.986  1.00  0.00    -0.006 C
HETATM   24  C23 UNL     1      -6.127 -21.626  39.142  1.00  0.00     0.011 C
HETATM   25  C24 UNL     1      -5.494 -20.891  41.330  1.00  0.00     0.040 C
HETATM   26  C25 UNL     1      -4.092 -18.480  42.313  1.00  0.00     0.013 C
HETATM   27  C26 UNL     1      -3.668 -19.854  42.742  1.00  0.00     0.024 C
ENDROOT
BRANCH   1  28
HETATM   28  C5  UNL     1      -2.711 -19.144  37.728  1.00  0.00     0.037 C
BRANCH  28  29
HETATM   29  C4  UNL     1      -2.435 -19.551  36.372  1.00  0.00    -0.027 C
HETATM   30  C3  UNL     1      -1.650 -18.815  35.588  1.00  0.00     0.000 C
BRANCH  30  31
HETATM   31  C2  UNL     1      -1.277 -19.098  34.185  1.00  0.00     0.140 C
HETATM   32  C1  UNL     1      -2.588 -19.109  33.418  1.00  0.00     0.044 C
BRANCH  31  33
HETATM   33  O4  UNL     1      -0.306 -18.349  33.718  1.00  0.00    -0.375 OA
BRANCH  33  34
HETATM   34  C27 UNL     1       0.531 -18.611  32.686  1.00  0.00     0.150 C
HETATM   35  C28 UNL     1      -0.027 -18.078  31.381  1.00  0.00     0.064 C
HETATM   36  C29 UNL     1       0.587 -16.803  30.934  1.00  0.00     0.275 C
HETATM   37  N4  UNL     1       1.271 -17.042  29.658  1.00  0.00     0.090 N
HETATM   38  C34 UNL     1       2.683 -17.075  29.821  1.00  0.00     0.300 C
HETATM   39  C35 UNL     1       3.249 -17.291  31.175  1.00  0.00     0.266 C
HETATM   40  N5  UNL     1       2.890 -18.525  31.843  1.00  0.00    -0.071 N
HETATM   41  C36 UNL     1       4.166 -18.892  32.541  1.00  0.00     0.272 C
HETATM   42  C37 UNL     1       2.642 -19.618  30.978  1.00  0.00     0.272 C
HETATM   43  C38 UNL     1       1.962 -18.310  32.921  1.00  0.00     0.268 C
BRANCH  37  44
HETATM   44  C30 UNL     1       0.902 -16.017  28.710  1.00  0.00     0.277 C
BRANCH  44  45
HETATM   45  C31 UNL     1      -0.485 -15.580  28.605  1.00  0.00     0.014 A
HETATM   46  C32 UNL     1      -0.978 -14.673  27.528  1.00  0.00     0.007 A
HETATM   47  C33 UNL     1      -1.429 -16.117  27.587  1.00  0.00     0.007 A
ENDBRANCH  44  45
ENDBRANCH  37  44
ENDBRANCH  33  34
ENDBRANCH  31  33
ENDBRANCH  30  31
ENDBRANCH  28  29
ENDBRANCH   1  28
BRANCH   9  48
HETATM   48  C14 UNL     1      -2.085 -20.889  44.872  1.00  0.00     0.255 C
HETATM   49  N1  UNL     1      -1.308 -19.946  45.571  1.00  0.00    -0.060 NA
HETATM   50  O2  UNL     1      -3.037 -21.398  45.575  1.00  0.00    -0.275 OA
ENDBRANCH   9  48
TORSDOF 8
ENDMDL