MODEL 3
REMARK VINA RESULT: -6.884858961      2.616      9.475
REMARK  11 active torsions:
REMARK  status: ('A' for Active; 'I' for Inactive)
REMARK    1  A    between atoms: C2_2  and  C3_3
REMARK    2  A    between atoms: C3_3  and  C5_5
REMARK    3  A    between atoms: C7_10  and  C8_11
REMARK    4  A    between atoms: C8_11  and  C9_12
REMARK    5  A    between atoms: C20_25  and  O3_27
REMARK    6  A    between atoms: N4_33  and  C25_34
REMARK    7  A    between atoms: C25_34  and  C26_35
REMARK    8  A    between atoms: C27_36  and  C28_37
REMARK    9  A    between atoms: C28_37  and  N5_38
REMARK   10  A    between atoms: N6_41  and  C31_42
REMARK   11  A    between atoms: C31_42  and  C32_43
ROOT
HETATM    1  C5  UNL     1       5.522 -14.984  27.603  1.00  0.00     0.108 C
HETATM    2  N1  UNL     1       6.509 -15.291  26.528  1.00  0.00    -0.313 N
ATOM      3  H1  UNL     1       6.536 -14.616  25.764  1.00  0.00     0.170 HD
HETATM    4  C6  UNL     1       7.408 -16.364  26.402  1.00  0.00     0.227 C
HETATM    5  O1  UNL     1       7.876 -16.563  25.279  1.00  0.00    -0.273 OA
HETATM    6  C7  UNL     1       7.832 -17.263  27.482  1.00  0.00     0.081 C
HETATM    7  C15 UNL     1       6.579 -17.943  27.917  1.00  0.00     0.045 C
HETATM    8  C16 UNL     1       5.598 -17.196  28.726  1.00  0.00     0.041 C
HETATM    9  C17 UNL     1       4.556 -18.300  29.008  1.00  0.00     0.068 C
HETATM   10  C18 UNL     1       5.116 -19.498  29.711  1.00  0.00     0.317 C
HETATM   11  N2  UNL     1       5.872 -19.221  30.878  1.00  0.00     0.051 N
HETATM   12  O2  UNL     1       6.608 -20.345  31.168  1.00  0.00    -0.062 OA
HETATM   13  C19 UNL     1       5.052 -18.968  32.047  1.00  0.00     0.385 C
HETATM   14  C20 UNL     1       6.009 -18.254  32.956  1.00  0.00     0.289 C
HETATM   15  C21 UNL     1       6.463 -19.219  34.021  1.00  0.00     0.084 C
HETATM   16  N3  UNL     1       7.064 -17.746  32.141  1.00  0.00     0.161 N
HETATM   17  C22 UNL     1       8.387 -18.118  32.546  1.00  0.00     0.317 C
HETATM   18  C23 UNL     1       6.779 -18.150  30.761  1.00  0.00     0.493 C
HETATM   19  C24 UNL     1       6.223 -16.905  30.087  1.00  0.00     0.106 C
HETATM   20  N4  UNL     1       4.939 -16.062  28.209  1.00  0.00    -0.354 N
ENDROOT
BRANCH  20  21
HETATM   21  C25 UNL     1       3.549 -16.249  27.797  1.00  0.00     0.152 C
BRANCH  21  22
HETATM   22  C26 UNL     1       2.746 -15.044  27.640  1.00  0.00    -0.009 C
HETATM   23  C27 UNL     1       1.457 -14.836  27.708  1.00  0.00    -0.002 C
BRANCH  23  24
HETATM   24  C28 UNL     1       0.484 -15.890  27.988  1.00  0.00     0.265 C
BRANCH  24  25
HETATM   25  N5  UNL     1      -0.527 -15.498  28.931  1.00  0.00    -0.059 N
HETATM   26  C29 UNL     1      -0.445 -14.057  29.098  1.00  0.00     0.266 C
HETATM   27  C30 UNL     1      -1.678 -13.522  29.806  1.00  0.00     0.266 C
HETATM   28  N6  UNL     1      -2.208 -14.612  30.594  1.00  0.00    -0.053 N
HETATM   29  C33 UNL     1      -1.121 -15.287  31.238  1.00  0.00     0.266 C
HETATM   30  C35 UNL     1      -2.822 -15.529  29.607  1.00  0.00     0.266 C
HETATM   31  C34 UNL     1      -0.438 -16.188  30.209  1.00  0.00     0.266 C
HETATM   32  C36 UNL     1      -1.889 -15.761  28.455  1.00  0.00     0.266 C
BRANCH  28  33
HETATM   33  C31 UNL     1      -3.235 -14.141  31.445  1.00  0.00     0.350 C
BRANCH  33  34
HETATM   34  C32 UNL     1      -3.315 -14.797  32.754  1.00  0.00     0.199 C
HETATM   35  O4  UNL     1      -2.834 -14.351  33.814  1.00  0.00    -0.647 OA
HETATM   36  O5  UNL     1      -3.980 -16.044  32.897  1.00  0.00    -0.647 OA
ENDBRANCH  33  34
ENDBRANCH  28  33
ENDBRANCH  24  25
ENDBRANCH  23  24
ENDBRANCH  21  22
ENDBRANCH  20  21
BRANCH   1  37
HETATM   37  C3  UNL     1       6.015 -13.741  28.205  1.00  0.00    -0.040 C
HETATM   38  C4  UNL     1       5.169 -12.493  27.937  1.00  0.00     0.047 C
BRANCH  37  39
HETATM   39  C2  UNL     1       7.422 -13.317  28.165  1.00  0.00     0.033 C
HETATM   40  C1  UNL     1       8.205 -13.912  29.355  1.00  0.00     0.010 C
ENDBRANCH  37  39
ENDBRANCH   1  37
BRANCH   6  41
HETATM   41  C8  UNL     1       8.829 -18.319  27.097  1.00  0.00     0.018 C
BRANCH  41  42
HETATM   42  C9  UNL     1      10.073 -18.376  27.896  1.00  0.00    -0.014 C
HETATM   43  C10 UNL     1      10.140 -19.786  28.506  1.00  0.00     0.005 C
HETATM   44  C11 UNL     1      10.190 -19.733  30.018  1.00  0.00     0.000 C
HETATM   45  C12 UNL     1      11.343 -18.911  30.518  1.00  0.00     0.000 C
HETATM   46  C13 UNL     1      11.428 -17.620  29.774  1.00  0.00     0.000 C
HETATM   47  C14 UNL     1      10.086 -17.408  29.062  1.00  0.00     0.005 C
ENDBRANCH  41  42
ENDBRANCH   6  41
BRANCH  14  48
HETATM   48  O3  UNL     1       5.295 -17.237  33.602  1.00  0.00    -0.361 OA
ATOM     49  H3  UNL     1       5.743 -17.048  34.418  1.00  0.00     0.212 HD
ENDBRANCH  14  48
TORSDOF 11
ENDMDL