MODEL 3
REMARK VINA RESULT: -7.835447371      9.741     16.333
REMARK  9 active torsions:
REMARK  status: ('A' for Active; 'I' for Inactive)
REMARK       I    between atoms: C1_2  and  N1_3
REMARK    1  A    between atoms: C1_2  and  C5_8
REMARK    2  A    between atoms: N1_3  and  C2_5
REMARK       I    between atoms: C5_8  and  N2_10
REMARK    3  A    between atoms: N2_10  and  C6_12
REMARK    4  A    between atoms: C11_19  and  C12_20
REMARK    5  A    between atoms: C13_21  and  C14_22
REMARK    6  A    between atoms: C14_22  and  N4_23
REMARK       I    between atoms: N4_23  and  C15_25
REMARK       I    between atoms: C15_25  and  N5_27
REMARK    7  A    between atoms: C24_37  and  C25_38
REMARK       I    between atoms: C25_38  and  N6_40
REMARK    8  A    between atoms: C28_43  and  C29_44
REMARK    9  A    between atoms: C29_44  and  C30_45
ROOT
HETATM    1  C6  UNL     1       8.993 -17.719  26.533  1.00  0.00     0.108 C
HETATM    2  C7  UNL     1       9.128 -18.492  25.238  1.00  0.00     0.029 C
HETATM    3  C8  UNL     1       7.843 -18.792  24.551  1.00  0.00     0.022 C
HETATM    4  C9  UNL     1       6.628 -18.588  25.397  1.00  0.00     0.126 C
HETATM    5  N3  UNL     1       6.646 -17.298  26.075  1.00  0.00    -0.344 N
HETATM    6  C10 UNL     1       5.350 -16.789  26.337  1.00  0.00     0.228 C
HETATM    7  O3  UNL     1       4.537 -16.994  25.401  1.00  0.00    -0.273 OA
HETATM    8  C11 UNL     1       4.812 -16.082  27.492  1.00  0.00     0.105 C
HETATM    9  C20 UNL     1       5.649 -14.886  27.908  1.00  0.00     0.016 C
HETATM   10  C21 UNL     1       6.318 -15.196  29.239  1.00  0.00     0.007 C
HETATM   11  C22 UNL     1       7.343 -16.241  28.775  1.00  0.00     0.008 C
HETATM   12  C23 UNL     1       7.836 -15.684  27.482  1.00  0.00     0.024 C
HETATM   13  C24 UNL     1       6.816 -14.641  27.023  1.00  0.00     0.089 C
HETATM   14  C36 UNL     1       7.910 -16.713  26.378  1.00  0.00     0.114 C
ENDROOT
BRANCH   8  15
HETATM   15  C12 UNL     1       3.486 -15.497  27.105  1.00  0.00    -0.015 C
HETATM   16  C13 UNL     1       2.351 -15.629  27.712  1.00  0.00    -0.010 C
BRANCH  16  17
HETATM   17  C14 UNL     1       2.018 -16.377  28.938  1.00  0.00     0.151 C
BRANCH  17  18
HETATM   18  N4  UNL     1       0.986 -15.795  29.745  1.00  0.00    -0.340 N
HETATM   19  C15 UNL     1       0.314 -16.404  30.824  1.00  0.00     0.318 C
HETATM   20  O4  UNL     1       0.582 -17.571  31.187  1.00  0.00    -0.247 OA
HETATM   21  N5  UNL     1      -0.701 -15.731  31.551  1.00  0.00    -0.330 N
HETATM   22  C16 UNL     1      -1.429 -16.330  32.650  1.00  0.00     0.153 C
HETATM   23  C19 UNL     1      -1.086 -14.353  31.231  1.00  0.00     0.153 C
HETATM   24  C17 UNL     1      -2.909 -16.047  32.338  1.00  0.00     0.187 C
HETATM   25  O5  UNL     1      -3.164 -14.703  32.433  1.00  0.00    -0.388 OA
HETATM   26  C18 UNL     1      -2.100 -13.868  32.215  1.00  0.00     0.187 C
ATOM     27  H4  UNL     1       0.709 -14.841  29.513  1.00  0.00     0.164 HD
ENDBRANCH  17  18
ENDBRANCH  16  17
ENDBRANCH   8  15
BRANCH  13  28
HETATM   28  C25 UNL     1       7.380 -13.297  27.039  1.00  0.00     0.224 C
HETATM   29  O6  UNL     1       8.617 -13.159  27.285  1.00  0.00    -0.273 OA
HETATM   30  N6  UNL     1       6.611 -12.144  26.796  1.00  0.00    -0.351 N
HETATM   31  C26 UNL     1       7.168 -10.774  26.830  1.00  0.00     0.126 C
HETATM   32  C35 UNL     1       5.215 -12.112  26.463  1.00  0.00     0.130 C
HETATM   33  C27 UNL     1       6.107  -9.973  26.092  1.00  0.00     0.026 C
HETATM   34  C28 UNL     1       4.861 -10.625  26.590  1.00  0.00     0.005 C
BRANCH  34  35
HETATM   35  C29 UNL     1       4.455 -10.409  27.993  1.00  0.00     0.011 C
BRANCH  35  36
HETATM   36  C30 UNL     1       3.359  -9.464  28.307  1.00  0.00    -0.014 C
HETATM   37  C31 UNL     1       3.618  -8.069  27.794  1.00  0.00     0.005 C
HETATM   38  C32 UNL     1       2.657  -7.212  28.574  1.00  0.00     0.000 C
HETATM   39  C33 UNL     1       2.822  -7.838  29.971  1.00  0.00     0.000 C
HETATM   40  C34 UNL     1       2.840  -9.340  29.664  1.00  0.00     0.005 C
ENDBRANCH  35  36
ENDBRANCH  34  35
ENDBRANCH  13  28
BRANCH   1  41
HETATM   41  N2  UNL     1       8.894 -18.615  27.631  1.00  0.00    -0.346 N
HETATM   42  C5  UNL     1       9.941 -18.701  28.586  1.00  0.00     0.309 C
HETATM   43  O2  UNL     1      10.951 -17.940  28.396  1.00  0.00    -0.262 OA
ATOM     44  H2  UNL     1       8.065 -19.200  27.735  1.00  0.00     0.163 HD
BRANCH  42  45
HETATM   45  C1  UNL     1       9.905 -19.599  29.734  1.00  0.00     0.309 C
HETATM   46  O1  UNL     1       8.826 -19.954  30.258  1.00  0.00    -0.262 OA
HETATM   47  N1  UNL     1      11.125 -20.078  30.263  1.00  0.00    -0.348 N
ATOM     48  H1  UNL     1      12.005 -19.788  29.836  1.00  0.00     0.163 HD
BRANCH  47  49
HETATM   49  C2  UNL     1      11.143 -20.969  31.394  1.00  0.00     0.085 A
HETATM   50  C3  UNL     1      12.246 -21.958  31.553  1.00  0.00     0.027 A
HETATM   51  C4  UNL     1      12.212 -20.753  32.421  1.00  0.00     0.027 A
ENDBRANCH  47  49
ENDBRANCH  42  45
ENDBRANCH   1  41
TORSDOF 9
ENDMDL