MODEL 4
REMARK VINA RESULT: -10.005472061      2.770     11.512
REMARK  16 active torsions:
REMARK  status: ('A' for Active; 'I' for Inactive)
REMARK    1  A    between atoms: N1_2  and  C2_5
REMARK    2  A    between atoms: C2_5  and  C4_7
REMARK       I    between atoms: C4_7  and  N2_9
REMARK    3  A    between atoms: C7_12  and  C8_13
REMARK       I    between atoms: C8_13  and  N3_15
REMARK    4  A    between atoms: N3_15  and  C9_16
REMARK    5  A    between atoms: C9_16  and  C10_17
REMARK    6  A    between atoms: C9_16  and  C31_49
REMARK    7  A    between atoms: C10_17  and  O3_18
REMARK    8  A    between atoms: C10_17  and  N4_20
REMARK    9  A    between atoms: N5_23  and  C13_24
REMARK   10  A    between atoms: C13_24  and  O4_25
REMARK   11  A    between atoms: C13_24  and  N6_27
REMARK   12  A    between atoms: N6_27  and  C14_29
REMARK   13  A    between atoms: C14_29  and  C15_30
REMARK   14  A    between atoms: C14_29  and  C25_43
REMARK   15  A    between atoms: C15_30  and  O5_31
REMARK   16  A    between atoms: C15_30  and  N7_33
ROOT
HETATM    1  N4  UNL     1      -2.286 -20.497  35.168  1.00  0.00    -0.336 N
HETATM    2  C11 UNL     1      -1.229 -19.571  35.172  1.00  0.00     0.086 C
HETATM    3  C12 UNL     1      -1.286 -18.369  34.300  1.00  0.00     0.171 C
HETATM    4  N5  UNL     1      -2.566 -17.966  33.796  1.00  0.00    -0.341 N
HETATM    5  C29 UNL     1      -3.719 -18.613  34.487  1.00  0.00     0.147 C
HETATM    6  C30 UNL     1      -3.537 -20.092  34.445  1.00  0.00     0.150 C
ENDROOT
BRANCH   1   7
HETATM    7  C10 UNL     1      -2.355 -21.760  35.736  1.00  0.00     0.180 C
BRANCH   7   8
HETATM    8  C9  UNL     1      -1.669 -22.591  36.706  1.00  0.00     0.142 C
BRANCH   8   9
HETATM    9  N3  UNL     1      -1.209 -21.862  37.813  1.00  0.00    -0.370 NA
HETATM   10  C8  UNL     1      -0.748 -21.170  38.878  1.00  0.00     0.296 C
HETATM   11  O2  UNL     1       0.432 -21.208  39.403  1.00  0.00    -0.257 OA
BRANCH  10  12
HETATM   12  C7  UNL     1      -1.638 -20.184  39.647  1.00  0.00     0.096 C
HETATM   13  C6  UNL     1      -2.991 -20.191  39.005  1.00  0.00     0.035 C
HETATM   14  C5  UNL     1      -4.094 -19.606  39.799  1.00  0.00     0.127 C
HETATM   15  N2  UNL     1      -3.998 -19.953  41.215  1.00  0.00    -0.350 N
HETATM   16  C4  UNL     1      -5.170 -20.340  41.859  1.00  0.00     0.250 C
HETATM   17  C35 UNL     1      -2.721 -19.831  41.835  1.00  0.00     0.127 C
HETATM   18  O1  UNL     1      -6.308 -20.353  41.237  1.00  0.00    -0.271 OA
HETATM   19  C34 UNL     1      -1.682 -20.600  41.080  1.00  0.00     0.035 C
BRANCH  16  20
HETATM   20  C2  UNL     1      -5.236 -20.757  43.267  1.00  0.00     0.272 C
HETATM   21  C3  UNL     1      -5.106 -22.296  43.298  1.00  0.00     0.050 C
BRANCH  20  22
HETATM   22  N1  UNL     1      -6.557 -20.426  43.827  1.00  0.00    -0.067 N
HETATM   23  C1  UNL     1      -6.794 -21.204  45.012  1.00  0.00     0.267 C
ATOM     24  H12 UNL     1      -7.303 -20.537  43.139  1.00  0.00     0.277 HD
ATOM     25  H11 UNL     1      -6.660 -19.426  43.999  1.00  0.00     0.277 HD
ENDBRANCH  20  22
ENDBRANCH  16  20
ENDBRANCH  10  12
ENDBRANCH   8   9
BRANCH   8  26
HETATM   26  C31 UNL     1      -0.708 -23.593  36.193  1.00  0.00     0.046 C
HETATM   27  C32 UNL     1       0.648 -23.019  35.880  1.00  0.00     0.017 C
HETATM   28  C33 UNL     1      -0.507 -24.605  37.354  1.00  0.00     0.017 C
ENDBRANCH   8  26
ENDBRANCH   7   8
BRANCH   7  29
HETATM   29  O3  UNL     1      -3.410 -22.459  35.224  1.00  0.00    -0.344 OA
ATOM     30  H3  UNL     1      -4.217 -22.071  35.537  1.00  0.00     0.219 HD
ENDBRANCH   7  29
ENDBRANCH   1   7
BRANCH   4  31
HETATM   31  C13 UNL     1      -2.858 -17.030  32.818  1.00  0.00     0.220 C
BRANCH  31  32
HETATM   32  O4  UNL     1      -3.977 -17.251  32.181  1.00  0.00    -0.332 OA
ATOM     33  H4  UNL     1      -3.968 -16.977  31.272  1.00  0.00     0.220 HD
ENDBRANCH  31  32
BRANCH  31  34
HETATM   34  N6  UNL     1      -2.125 -15.923  32.454  1.00  0.00    -0.321 N
ATOM     35  H6  UNL     1      -1.521 -15.535  33.178  1.00  0.00     0.169 HD
BRANCH  34  36
HETATM   36  C14 UNL     1      -2.097 -15.233  31.171  1.00  0.00     0.071 C
BRANCH  36  37
HETATM   37  C15 UNL     1      -1.090 -15.862  30.324  1.00  0.00     0.162 C
BRANCH  37  38
HETATM   38  O5  UNL     1      -1.547 -16.071  29.055  1.00  0.00    -0.345 OA
ATOM     39  H5  UNL     1      -1.118 -15.504  28.424  1.00  0.00     0.219 HD
ENDBRANCH  37  38
BRANCH  37  40
HETATM   40  N7  UNL     1       0.216 -16.323  30.423  1.00  0.00    -0.360 N
HETATM   41  C16 UNL     1       1.068 -16.139  29.222  1.00  0.00     0.125 C
HETATM   42  C17 UNL     1       1.884 -17.300  28.918  1.00  0.00     0.025 C
HETATM   43  C18 UNL     1       2.317 -18.243  29.961  1.00  0.00    -0.007 C
HETATM   44  C19 UNL     1       3.828 -18.059  30.209  1.00  0.00     0.005 C
HETATM   45  C23 UNL     1       1.559 -18.272  31.210  1.00  0.00     0.008 C
HETATM   46  C20 UNL     1       4.263 -19.347  30.874  1.00  0.00     0.000 C
HETATM   47  C21 UNL     1       3.578 -19.460  32.205  1.00  0.00     0.000 C
HETATM   48  C22 UNL     1       2.417 -18.565  32.428  1.00  0.00     0.006 C
HETATM   49  C24 UNL     1       0.762 -17.015  31.526  1.00  0.00     0.130 C
ENDBRANCH  37  40
ENDBRANCH  36  37
BRANCH  36  50
HETATM   50  C25 UNL     1      -2.472 -13.833  31.122  1.00  0.00    -0.004 C
HETATM   51  C26 UNL     1      -3.990 -13.686  31.103  1.00  0.00     0.021 C
HETATM   52  C27 UNL     1      -1.764 -12.948  30.129  1.00  0.00     0.021 C
HETATM   53  C28 UNL     1      -2.103 -13.151  32.490  1.00  0.00     0.021 C
ENDBRANCH  36  50
ENDBRANCH  34  36
ENDBRANCH  31  34
ENDBRANCH   4  31
TORSDOF 16
ENDMDL