MODEL 1
REMARK VINA RESULT: -9.369456450      0.000      0.000
REMARK  7 active torsions:
REMARK  status: ('A' for Active; 'I' for Inactive)
REMARK    1  A    between atoms: N1_9  and  C9_10
REMARK    2  A    between atoms: C9_10  and  C10_11
REMARK    3  A    between atoms: C10_11  and  C11_12
REMARK    4  A    between atoms: C11_12  and  C12_13
REMARK    5  A    between atoms: C12_13  and  C13_14
REMARK    6  A    between atoms: C13_14  and  C14_15
REMARK    7  A    between atoms: C14_15  and  N2_16
ROOT
HETATM    1  C10 UNL     1     240.285 -25.036 352.701  1.00  0.00     0.020 C
ENDROOT
BRANCH   1   2
HETATM    2  C9  UNL     1     241.574 -24.357 352.404  1.00  0.00     0.128 C
BRANCH   2   3
HETATM    3  N1  UNL     1     241.774 -23.144 353.164  1.00  0.00    -0.356 N
HETATM    4  C4  UNL     1     242.476 -23.123 354.336  1.00  0.00     0.044 A
HETATM    5  C3  UNL     1     243.119 -24.105 355.056  1.00  0.00     0.030 A
HETATM    6  C5  UNL     1     242.463 -21.815 354.773  1.00  0.00    -0.008 A
HETATM    7  C2  UNL     1     243.761 -23.794 356.230  1.00  0.00     0.002 A
HETATM    8  C1  UNL     1     243.760 -22.486 356.689  1.00  0.00     0.001 A
HETATM    9  C6  UNL     1     243.114 -21.525 355.956  1.00  0.00     0.014 A
HETATM   10  C7  UNL     1     241.752 -21.062 353.858  1.00  0.00     0.031 A
HETATM   11  C8  UNL     1     241.337 -21.906 352.873  1.00  0.00     0.092 A
ENDBRANCH   2   3
ENDBRANCH   1   2
BRANCH   1  12
HETATM   12  C11 UNL     1     239.994 -26.270 351.932  1.00  0.00     0.002 C
BRANCH  12  13
HETATM   13  C12 UNL     1     239.214 -27.310 352.653  1.00  0.00     0.002 C
BRANCH  13  14
HETATM   14  C13 UNL     1     237.744 -27.312 352.286  1.00  0.00     0.020 C
BRANCH  14  15
HETATM   15  C14 UNL     1     237.522 -28.505 351.351  1.00  0.00     0.129 C
BRANCH  15  16
HETATM   16  N2  UNL     1     236.308 -29.223 351.743  1.00  0.00    -0.352 N
HETATM   17  C15 UNL     1     235.038 -28.819 351.719  1.00  0.00     0.108 A
HETATM   18  C16 UNL     1     234.209 -29.834 352.183  1.00  0.00     0.106 A
HETATM   19  N3  UNL     1     235.045 -30.862 352.487  1.00  0.00    -0.361 N
HETATM   20  C17 UNL     1     236.304 -30.478 352.215  1.00  0.00     0.182 A
ATOM     21  H3  UNL     1     234.765 -31.770 352.857  1.00  0.00     0.166 HD
ENDBRANCH  15  16
ENDBRANCH  14  15
ENDBRANCH  13  14
ENDBRANCH  12  13
ENDBRANCH   1  12
TORSDOF 7
ENDMDL