MODEL 1
REMARK VINA RESULT: -9.437926744      0.000      0.000
REMARK  7 active torsions:
REMARK  status: ('A' for Active; 'I' for Inactive)
REMARK    1  A    between atoms: N2_10  and  C8_11
REMARK    2  A    between atoms: C8_11  and  C9_12
REMARK    3  A    between atoms: C9_12  and  C10_13
REMARK    4  A    between atoms: C10_13  and  C11_14
REMARK    5  A    between atoms: C11_14  and  C12_15
REMARK    6  A    between atoms: C12_15  and  C13_16
REMARK    7  A    between atoms: C13_16  and  N3_17
ROOT
HETATM    1  C8  UNL     1     241.585 -24.523 352.301  1.00  0.00     0.149 C
ENDROOT
BRANCH   1   2
HETATM    2  N2  UNL     1     241.760 -23.323 353.122  1.00  0.00    -0.292 N
HETATM    3  C4  UNL     1     242.433 -23.219 354.279  1.00  0.00     0.062 A
HETATM    4  C3  UNL     1     243.144 -24.137 355.052  1.00  0.00     0.032 A
HETATM    5  C5  UNL     1     242.367 -21.921 354.738  1.00  0.00     0.009 A
HETATM    6  C2  UNL     1     243.748 -23.746 356.225  1.00  0.00     0.002 A
HETATM    7  C1  UNL     1     243.685 -22.451 356.686  1.00  0.00     0.001 A
HETATM    8  C6  UNL     1     242.986 -21.533 355.932  1.00  0.00     0.015 A
HETATM    9  C7  UNL     1     241.618 -21.234 353.803  1.00  0.00     0.121 A
HETATM   10  N1  UNL     1     241.278 -22.111 352.859  1.00  0.00    -0.308 N
ATOM     11  H1  UNL     1     240.720 -21.882 352.036  1.00  0.00     0.186 HD
ENDBRANCH   1   2
BRANCH   1  12
HETATM   12  C9  UNL     1     240.268 -25.139 352.699  1.00  0.00     0.022 C
BRANCH  12  13
HETATM   13  C10 UNL     1     239.865 -26.299 351.886  1.00  0.00     0.002 C
BRANCH  13  14
HETATM   14  C11 UNL     1     239.099 -27.401 352.474  1.00  0.00     0.002 C
BRANCH  14  15
HETATM   15  C12 UNL     1     237.634 -27.445 352.441  1.00  0.00     0.030 C
BRANCH  15  16
HETATM   16  C13 UNL     1     236.930 -28.216 351.400  1.00  0.00     0.272 C
BRANCH  16  17
HETATM   17  N3  UNL     1     235.498 -28.055 351.459  1.00  0.00     0.088 N
HETATM   18  C14 UNL     1     234.728 -29.233 351.622  1.00  0.00     0.272 C
HETATM   19  C15 UNL     1     233.509 -28.839 352.471  1.00  0.00     0.032 C
HETATM   20  C16 UNL     1     233.504 -27.336 352.279  1.00  0.00     0.032 C
HETATM   21  C17 UNL     1     235.015 -27.045 352.332  1.00  0.00     0.272 C
ENDBRANCH  16  17
ENDBRANCH  15  16
ENDBRANCH  14  15
ENDBRANCH  13  14
ENDBRANCH  12  13
ENDBRANCH   1  12
TORSDOF 7
ENDMDL