MODEL 5
REMARK VINA RESULT: -8.949951637      1.763      8.281
REMARK  7 active torsions:
REMARK  status: ('A' for Active; 'I' for Inactive)
REMARK    1  A    between atoms: C3_3  and  O1_4
REMARK    2  A    between atoms: O1_4  and  C4_5
REMARK    3  A    between atoms: C7_8  and  O2_9
REMARK    4  A    between atoms: O2_9  and  C8_10
REMARK    5  A    between atoms: C8_10  and  C9_11
REMARK    6  A    between atoms: C9_11  and  O3_12
REMARK    7  A    between atoms: O3_12  and  C10_13
ROOT
HETATM    1  C1  UNL     1     244.557 -22.827 357.135  1.00  0.00     0.014 C
HETATM    2  C2  UNL     1     243.772 -22.415 356.318  1.00  0.00    -0.091 C
HETATM    3  C3  UNL     1     242.831 -21.939 355.319  1.00  0.00     0.268 C
ENDROOT
BRANCH   3   4
HETATM    4  O1  UNL     1     242.881 -22.608 354.098  1.00  0.00    -0.340 OA
BRANCH   4   5
HETATM    5  C4  UNL     1     242.202 -23.725 353.702  1.00  0.00     0.070 A
HETATM    6  C5  UNL     1     242.672 -24.957 354.090  1.00  0.00     0.039 A
HETATM    7  C6  UNL     1     242.014 -26.133 353.713  1.00  0.00     0.039 A
HETATM    8  C7  UNL     1     240.889 -26.114 352.947  1.00  0.00     0.069 A
HETATM    9  C16 UNL     1     240.430 -24.839 352.564  1.00  0.00     0.039 A
HETATM   10  C17 UNL     1     241.071 -23.675 352.933  1.00  0.00     0.039 A
BRANCH   8  11
HETATM   11  O2  UNL     1     240.153 -27.153 352.506  1.00  0.00    -0.349 OA
BRANCH  11  12
HETATM   12  C8  UNL     1     239.197 -27.346 351.551  1.00  0.00     0.202 C
BRANCH  12  13
HETATM   13  C9  UNL     1     238.275 -28.518 351.720  1.00  0.00     0.202 C
BRANCH  13  14
HETATM   14  O3  UNL     1     237.011 -28.408 351.225  1.00  0.00    -0.349 OA
BRANCH  14  15
HETATM   15  C10 UNL     1     235.791 -28.119 351.670  1.00  0.00     0.068 A
HETATM   16  C11 UNL     1     234.711 -28.951 351.600  1.00  0.00     0.037 A
HETATM   17  C12 UNL     1     233.456 -28.597 352.085  1.00  0.00     0.003 A
HETATM   18  C13 UNL     1     233.264 -27.369 352.663  1.00  0.00     0.000 A
HETATM   19  C14 UNL     1     234.326 -26.503 352.751  1.00  0.00     0.003 A
HETATM   20  C15 UNL     1     235.533 -26.874 352.272  1.00  0.00     0.037 A
ENDBRANCH  14  15
ENDBRANCH  13  14
ENDBRANCH  12  13
ENDBRANCH  11  12
ENDBRANCH   8  11
ENDBRANCH   4   5
ENDBRANCH   3   4
TORSDOF 7
ENDMDL