MODEL 3
REMARK VINA RESULT: -8.424960699      3.780      7.987
REMARK  7 active torsions:
REMARK  status: ('A' for Active; 'I' for Inactive)
REMARK    1  A    between atoms: C6_6  and  O1_7
REMARK    2  A    between atoms: O1_7  and  C7_8
REMARK    3  A    between atoms: C7_8  and  C8_9
REMARK    4  A    between atoms: C8_9  and  C9_10
REMARK    5  A    between atoms: C9_10  and  C10_11
REMARK    6  A    between atoms: C10_11  and  C11_12
REMARK    7  A    between atoms: C11_12  and  N1_13
ROOT
HETATM    1  O1  UNL     1     239.926 -25.692 352.581  1.00  0.00    -0.351 OA
ENDROOT
BRANCH   1   2
HETATM    2  C6  UNL     1     239.386 -26.723 351.862  1.00  0.00     0.070 A
HETATM    3  C5  UNL     1     239.984 -27.283 350.747  1.00  0.00     0.037 A
HETATM    4  C4  UNL     1     239.453 -28.303 350.036  1.00  0.00     0.015 A
HETATM    5  C3  UNL     1     238.221 -28.876 350.395  1.00  0.00    -0.018 A
HETATM    6  C2  UNL     1     237.590 -29.895 349.765  1.00  0.00     0.020 A
HETATM    7  C16 UNL     1     237.613 -28.344 351.488  1.00  0.00     0.017 A
HETATM    8  C1  UNL     1     236.391 -30.303 350.285  1.00  0.00     0.051 A
HETATM    9  S1  UNL     1     236.183 -29.264 351.622  1.00  0.00    -0.101 SA
HETATM   10  C15 UNL     1     238.174 -27.285 352.220  1.00  0.00     0.056 A
ENDBRANCH   1   2
BRANCH   1  11
HETATM   11  C7  UNL     1     241.117 -25.721 353.303  1.00  0.00     0.175 C
BRANCH  11  12
HETATM   12  C8  UNL     1     241.783 -24.362 353.208  1.00  0.00     0.027 C
BRANCH  12  13
HETATM   13  C9  UNL     1     242.602 -24.045 354.422  1.00  0.00     0.004 C
BRANCH  13  14
HETATM   14  C10 UNL     1     243.284 -22.703 354.367  1.00  0.00     0.030 C
BRANCH  14  15
HETATM   15  C11 UNL     1     243.046 -22.061 353.035  1.00  0.00     0.272 C
BRANCH  15  16
HETATM   16  N1  UNL     1     242.569 -20.693 353.164  1.00  0.00     0.088 N
HETATM   17  C12 UNL     1     241.564 -20.466 354.157  1.00  0.00     0.274 C
HETATM   18  C13 UNL     1     240.501 -20.754 353.114  1.00  0.00     0.060 C
HETATM   19  C14 UNL     1     241.595 -20.405 352.139  1.00  0.00     0.274 C
ENDBRANCH  15  16
ENDBRANCH  14  15
ENDBRANCH  13  14
ENDBRANCH  12  13
ENDBRANCH  11  12
ENDBRANCH   1  11
TORSDOF 7
ENDMDL