MODEL 3
REMARK VINA RESULT: -8.483444061      1.620      2.205
REMARK  7 active torsions:
REMARK  status: ('A' for Active; 'I' for Inactive)
REMARK    1  A    between atoms: C4_6  and  C5_7
REMARK    2  A    between atoms: C5_7  and  S1_8
REMARK    3  A    between atoms: S1_8  and  C6_9
REMARK    4  A    between atoms: C6_9  and  C7_10
REMARK    5  A    between atoms: C7_10  and  C8_11
REMARK    6  A    between atoms: C8_11  and  C9_12
REMARK    7  A    between atoms: C9_12  and  C10_13
ROOT
HETATM    1  C6  UNL     1     239.329 -28.466 351.347  1.00  0.00     0.074 C
ENDROOT
BRANCH   1   2
HETATM    2  S1  UNL     1     238.255 -28.881 350.035  1.00  0.00    -0.164 SA
BRANCH   2   3
HETATM    3  C5  UNL     1     236.956 -30.038 350.301  1.00  0.00     0.113 C
BRANCH   3   4
HETATM    4  C4  UNL     1     235.787 -29.508 351.013  1.00  0.00    -0.034 A
HETATM    5  C3  UNL     1     235.095 -30.391 351.827  1.00  0.00     0.095 A
HETATM    6  N1  UNL     1     233.995 -30.010 352.456  1.00  0.00    -0.375 N
HETATM    7  C2  UNL     1     233.562 -28.751 352.293  1.00  0.00     0.087 A
ATOM      8  H1  UNL     1     233.486 -30.661 353.054  1.00  0.00     0.164 HD
HETATM    9  C1  UNL     1     234.208 -27.836 351.500  1.00  0.00     0.018 A
HETATM   10  C15 UNL     1     235.369 -28.237 350.833  1.00  0.00     0.011 A
ENDBRANCH   3   4
ENDBRANCH   2   3
ENDBRANCH   1   2
BRANCH   1  11
HETATM   11  C7  UNL     1     238.781 -27.702 352.526  1.00  0.00     0.010 C
BRANCH  11  12
HETATM   12  C8  UNL     1     239.121 -26.242 352.345  1.00  0.00     0.005 C
BRANCH  12  13
HETATM   13  C9  UNL     1     240.502 -25.925 351.929  1.00  0.00     0.038 C
BRANCH  13  14
HETATM   14  C10 UNL     1     241.273 -25.050 352.830  1.00  0.00    -0.056 A
HETATM   15  C11 UNL     1     242.104 -25.450 353.843  1.00  0.00     0.024 A
HETATM   16  C12 UNL     1     242.800 -24.547 354.643  1.00  0.00     0.088 A
HETATM   17  N2  UNL     1     242.673 -23.226 354.436  1.00  0.00    -0.375 N
HETATM   18  C13 UNL     1     241.873 -22.779 353.456  1.00  0.00     0.088 A
ATOM     19  H2  UNL     1     243.184 -22.565 355.021  1.00  0.00     0.164 HD
HETATM   20  C14 UNL     1     241.177 -23.663 352.656  1.00  0.00     0.024 A
ENDBRANCH  13  14
ENDBRANCH  12  13
ENDBRANCH  11  12
ENDBRANCH   1  11
TORSDOF 7
ENDMDL