MODEL 1
REMARK VINA RESULT: -8.301103665      0.000      0.000
REMARK  7 active torsions:
REMARK  status: ('A' for Active; 'I' for Inactive)
REMARK    1  A    between atoms: C3_3  and  S1_4
REMARK    2  A    between atoms: S1_4  and  C4_5
REMARK    3  A    between atoms: C4_5  and  C5_6
REMARK    4  A    between atoms: C5_6  and  C6_7
REMARK    5  A    between atoms: C6_7  and  C7_8
REMARK    6  A    between atoms: C7_8  and  C8_9
REMARK    7  A    between atoms: C8_9  and  N1_10
ROOT
HETATM    1  C5  UNL     1     241.408 -25.840 353.427  1.00  0.00     0.011 C
ENDROOT
BRANCH   1   2
HETATM    2  C4  UNL     1     242.290 -24.679 353.792  1.00  0.00     0.079 C
BRANCH   2   3
HETATM    3  S1  UNL     1     242.183 -23.269 352.710  1.00  0.00    -0.130 SA
BRANCH   3   4
HETATM    4  C3  UNL     1     241.666 -21.765 353.519  1.00  0.00     0.003 A
HETATM    5  C2  UNL     1     242.254 -21.442 354.718  1.00  0.00     0.035 A
HETATM    6  C1  UNL     1     241.924 -20.317 355.432  1.00  0.00     0.089 A
HETATM    7  N2  UNL     1     240.982 -19.504 354.921  1.00  0.00    -0.375 N
HETATM    8  C15 UNL     1     240.375 -19.788 353.735  1.00  0.00     0.089 A
ATOM      9  H2  UNL     1     240.718 -18.661 355.431  1.00  0.00     0.164 HD
HETATM   10  C14 UNL     1     240.711 -20.914 353.030  1.00  0.00     0.035 A
ENDBRANCH   3   4
ENDBRANCH   2   3
ENDBRANCH   1   2
BRANCH   1  11
HETATM   11  C6  UNL     1     240.326 -25.389 352.485  1.00  0.00     0.006 C
BRANCH  11  12
HETATM   12  C7  UNL     1     239.249 -26.379 352.223  1.00  0.00     0.045 C
BRANCH  12  13
HETATM   13  C8  UNL     1     239.558 -27.379 351.136  1.00  0.00     0.068 C
BRANCH  13  14
HETATM   14  N1  UNL     1     238.569 -28.375 351.133  1.00  0.00    -0.354 N
HETATM   15  C9  UNL     1     238.266 -29.056 349.961  1.00  0.00     0.068 C
HETATM   16  C10 UNL     1     237.071 -29.941 349.968  1.00  0.00     0.045 C
HETATM   17  C11 UNL     1     236.604 -30.409 351.301  1.00  0.00     0.010 C
HETATM   18  C12 UNL     1     237.767 -30.315 352.274  1.00  0.00     0.045 C
HETATM   19  C13 UNL     1     238.104 -28.849 352.372  1.00  0.00     0.068 C
ENDBRANCH  13  14
ENDBRANCH  12  13
ENDBRANCH  11  12
ENDBRANCH   1  11
TORSDOF 7
ENDMDL