MODEL 2
REMARK VINA RESULT: -9.561318609      0.026      1.033
REMARK  7 active torsions:
REMARK  status: ('A' for Active; 'I' for Inactive)
REMARK    1  A    between atoms: C4_4  and  C5_5
REMARK    2  A    between atoms: N1_8  and  C8_9
REMARK    3  A    between atoms: C8_9  and  C9_10
REMARK    4  A    between atoms: C9_10  and  C10_11
REMARK    5  A    between atoms: C10_11  and  C11_12
REMARK    6  A    between atoms: C11_12  and  C12_13
REMARK    7  A    between atoms: C12_13  and  N2_14
ROOT
HETATM    1  C5  UNL     1     237.411 -28.003 351.799  1.00  0.00    -0.009 A
HETATM    2  C6  UNL     1     238.165 -28.853 351.046  1.00  0.00     0.031 A
HETATM    3  C7  UNL     1     239.472 -28.448 351.204  1.00  0.00     0.091 A
HETATM    4  N1  UNL     1     239.493 -27.392 352.023  1.00  0.00    -0.366 N
HETATM    5  C16 UNL     1     238.254 -27.102 352.398  1.00  0.00     0.102 A
ENDROOT
BRANCH   4   6
HETATM    6  C8  UNL     1     240.738 -26.706 352.407  1.00  0.00     0.128 C
BRANCH   6   7
HETATM    7  C9  UNL     1     240.387 -25.292 352.753  1.00  0.00     0.020 C
BRANCH   7   8
HETATM    8  C10 UNL     1     241.495 -24.316 352.431  1.00  0.00     0.003 C
BRANCH   8   9
HETATM    9  C11 UNL     1     242.195 -23.801 353.633  1.00  0.00     0.020 C
BRANCH   9  10
HETATM   10  C12 UNL     1     242.972 -22.559 353.298  1.00  0.00     0.129 C
BRANCH  10  11
HETATM   11  N2  UNL     1     242.216 -21.341 353.444  1.00  0.00    -0.352 N
HETATM   12  C13 UNL     1     241.748 -20.560 352.451  1.00  0.00     0.108 A
HETATM   13  C14 UNL     1     241.081 -19.497 353.016  1.00  0.00     0.106 A
HETATM   14  N3  UNL     1     241.144 -19.629 354.350  1.00  0.00    -0.361 N
HETATM   15  C15 UNL     1     241.833 -20.747 354.606  1.00  0.00     0.182 A
ATOM     16  H3  UNL     1     240.741 -18.994 355.040  1.00  0.00     0.166 HD
ENDBRANCH  10  11
ENDBRANCH   9  10
ENDBRANCH   8   9
ENDBRANCH   7   8
ENDBRANCH   6   7
ENDBRANCH   4   6
BRANCH   1  17
HETATM   17  C4  UNL     1     235.948 -27.992 351.987  1.00  0.00    -0.025 A
HETATM   18  C3  UNL     1     235.281 -26.838 352.338  1.00  0.00     0.012 A
HETATM   19  C2  UNL     1     233.913 -26.841 352.509  1.00  0.00     0.001 A
HETATM   20  C1  UNL     1     233.156 -27.993 352.338  1.00  0.00     0.000 A
HETATM   21  C18 UNL     1     233.820 -29.149 351.988  1.00  0.00     0.001 A
HETATM   22  C17 UNL     1     235.203 -29.141 351.815  1.00  0.00     0.012 A
ENDBRANCH   1  17
TORSDOF 7
ENDMDL