MODEL 4
REMARK VINA RESULT: -10.050811685      1.664      2.097
REMARK  7 active torsions:
REMARK  status: ('A' for Active; 'I' for Inactive)
REMARK    1  A    between atoms: C5_6  and  C6_7
REMARK    2  A    between atoms: C6_7  and  C7_8
REMARK    3  A    between atoms: C7_8  and  C8_9
REMARK    4  A    between atoms: C8_9  and  C9_10
REMARK    5  A    between atoms: C9_10  and  C10_11
REMARK    6  A    between atoms: C10_11  and  C11_12
REMARK    7  A    between atoms: C11_12  and  C12_13
ROOT
HETATM    1  N1  UNL     1     244.033 -22.972 355.949  1.00  0.00    -0.190 NA
HETATM    2  C1  UNL     1     243.355 -23.551 355.209  1.00  0.00     0.117 C
HETATM    3  C2  UNL     1     242.509 -24.298 354.294  1.00  0.00     0.113 A
HETATM    4  C3  UNL     1     241.626 -23.668 353.440  1.00  0.00     0.041 A
HETATM    5  C4  UNL     1     240.811 -24.356 352.559  1.00  0.00     0.011 A
HETATM    6  C5  UNL     1     240.883 -25.734 352.531  1.00  0.00    -0.043 A
HETATM    7  C18 UNL     1     241.773 -26.341 353.393  1.00  0.00     0.096 A
HETATM    8  N2  UNL     1     242.552 -25.642 354.239  1.00  0.00    -0.357 N
ATOM      9  H2  UNL     1     243.192 -26.144 354.855  1.00  0.00     0.166 HD
ENDROOT
BRANCH   6  10
HETATM   10  C6  UNL     1     240.025 -26.550 351.596  1.00  0.00     0.040 C
BRANCH  10  11
HETATM   11  C7  UNL     1     238.682 -26.676 352.268  1.00  0.00     0.005 C
BRANCH  11  12
HETATM   12  C8  UNL     1     238.457 -28.050 352.851  1.00  0.00     0.000 C
BRANCH  12  13
HETATM   13  C9  UNL     1     238.695 -29.112 351.803  1.00  0.00     0.000 C
BRANCH  13  14
HETATM   14  C10 UNL     1     237.667 -30.197 351.904  1.00  0.00     0.005 C
BRANCH  14  15
HETATM   15  C11 UNL     1     236.659 -30.197 350.787  1.00  0.00     0.038 C
BRANCH  15  16
HETATM   16  C12 UNL     1     235.516 -29.362 351.224  1.00  0.00    -0.058 A
HETATM   17  C13 UNL     1     234.625 -29.886 352.131  1.00  0.00     0.007 A
HETATM   18  C14 UNL     1     233.560 -29.104 352.536  1.00  0.00     0.001 A
HETATM   19  C15 UNL     1     233.389 -27.828 352.047  1.00  0.00     0.000 A
HETATM   20  C16 UNL     1     234.269 -27.293 351.143  1.00  0.00     0.001 A
HETATM   21  C17 UNL     1     235.336 -28.099 350.748  1.00  0.00     0.007 A
ENDBRANCH  15  16
ENDBRANCH  14  15
ENDBRANCH  13  14
ENDBRANCH  12  13
ENDBRANCH  11  12
ENDBRANCH  10  11
ENDBRANCH   6  10
TORSDOF 7
ENDMDL