MODEL 2
REMARK VINA RESULT: -8.383202055      0.938      1.560
REMARK  7 active torsions:
REMARK  status: ('A' for Active; 'I' for Inactive)
REMARK    1  A    between atoms: C4_4  and  S1_5
REMARK    2  A    between atoms: S1_5  and  C5_6
REMARK    3  A    between atoms: C5_6  and  C6_7
REMARK    4  A    between atoms: C6_7  and  C7_8
REMARK    5  A    between atoms: C7_8  and  C8_9
REMARK    6  A    between atoms: C8_9  and  C9_10
REMARK    7  A    between atoms: C9_10  and  N1_11
ROOT
HETATM    1  C6  UNL     1     239.418 -27.911 350.612  1.00  0.00     0.010 C
ENDROOT
BRANCH   1   2
HETATM    2  C5  UNL     1     238.165 -28.665 350.280  1.00  0.00     0.081 C
BRANCH   2   3
HETATM    3  S1  UNL     1     237.422 -29.355 351.768  1.00  0.00    -0.112 SA
BRANCH   3   4
HETATM    4  C4  UNL     1     235.835 -28.559 352.004  1.00  0.00     0.069 A
HETATM    5  C3  UNL     1     235.774 -27.188 352.269  1.00  0.00     0.037 A
HETATM    6  C2  UNL     1     234.594 -26.533 352.460  1.00  0.00     0.004 A
HETATM    7  C1  UNL     1     233.402 -27.224 352.395  1.00  0.00     0.017 A
HETATM    8  C15 UNL     1     233.488 -28.577 352.133  1.00  0.00     0.089 A
HETATM    9  N2  UNL     1     234.667 -29.218 351.945  1.00  0.00    -0.361 N
ATOM     10  H2  UNL     1     234.668 -30.220 351.756  1.00  0.00     0.165 HD
ENDBRANCH   3   4
ENDBRANCH   2   3
ENDBRANCH   1   2
BRANCH   1  11
HETATM   11  C7  UNL     1     239.525 -27.545 352.060  1.00  0.00     0.002 C
BRANCH  11  12
HETATM   12  C8  UNL     1     239.430 -26.057 352.316  1.00  0.00     0.030 C
BRANCH  12  13
HETATM   13  C9  UNL     1     240.742 -25.405 351.953  1.00  0.00     0.272 C
BRANCH  13  14
HETATM   14  N1  UNL     1     241.297 -24.637 353.061  1.00  0.00     0.088 N
HETATM   15  C10 UNL     1     241.945 -23.469 352.504  1.00  0.00     0.272 C
HETATM   16  C11 UNL     1     242.900 -22.824 353.475  1.00  0.00     0.030 C
HETATM   17  C12 UNL     1     242.754 -23.356 354.885  1.00  0.00     0.003 C
HETATM   18  C13 UNL     1     242.894 -24.852 354.916  1.00  0.00     0.030 C
HETATM   19  C14 UNL     1     242.237 -25.515 353.730  1.00  0.00     0.272 C
ENDBRANCH  13  14
ENDBRANCH  12  13
ENDBRANCH  11  12
ENDBRANCH   1  11
TORSDOF 7
ENDMDL