MODEL 3
REMARK VINA RESULT: -5.977549991      1.531      2.095
REMARK  2 active torsions:
REMARK  status: ('A' for Active; 'I' for Inactive)
REMARK    1  A    between atoms: C2_2  and  O1_3
REMARK    2  A    between atoms: O1_3  and  C3_4
ROOT
HETATM    1  C3  UNL     1      14.733  26.810  -4.030  1.00  0.00     0.145 C
HETATM    2  C4  UNL     1      16.127  26.426  -3.679  1.00  0.00     0.038 C
HETATM    3  C5  UNL     1      16.279  25.662  -2.415  1.00  0.00     0.064 C
HETATM    4  C6  UNL     1      15.078  24.858  -2.044  1.00  0.00     0.158 C
HETATM    5  O2  UNL     1      13.873  25.502  -2.281  1.00  0.00    -0.357 OA
HETATM    6  C7  UNL     1      13.755  25.695  -3.637  1.00  0.00     0.202 C
HETATM    7  S1  UNL     1      15.087  23.207  -2.836  1.00  0.00    -0.119 SA
HETATM    8  C8  UNL     1      13.934  22.357  -1.737  1.00  0.00     0.088 C
HETATM    9  C9  UNL     1      14.197  22.785  -0.348  1.00  0.00     0.088 C
HETATM   10  S2  UNL     1      15.078  24.330  -0.326  1.00  0.00    -0.119 SA
ENDROOT
BRANCH   1  11
HETATM   11  O1  UNL     1      14.538  27.022  -5.381  1.00  0.00    -0.384 OA
BRANCH  11  12
HETATM   12  C2  UNL     1      15.683  27.040  -6.131  1.00  0.00     0.163 C
HETATM   13  C1  UNL     1      15.536  25.987  -7.215  1.00  0.00     0.033 C
ENDBRANCH  11  12
ENDBRANCH   1  11
TORSDOF 2
ENDMDL