MODEL 3
REMARK VINA RESULT: -6.901922257      2.061      4.914
REMARK  2 active torsions:
REMARK  status: ('A' for Active; 'I' for Inactive)
REMARK    1  A    between atoms: C2_2  and  O2_4
REMARK    2  A    between atoms: O2_4  and  C3_5
ROOT
HETATM    1  C3  UNL     1      12.811  22.055   1.064  1.00  0.00     0.314 C
HETATM    2  O3  UNL     1      14.161  21.663   0.939  1.00  0.00    -0.206 OA
HETATM    3  O4  UNL     1      14.454  22.048  -0.285  1.00  0.00    -0.227 OA
HETATM    4  C4  UNL     1      14.091  23.414  -0.352  1.00  0.00     0.102 C
HETATM    5  C5  UNL     1      15.236  24.195   0.250  1.00  0.00     0.050 C
HETATM    6  C6  UNL     1      13.916  23.834  -1.763  1.00  0.00     0.041 C
HETATM    7  C7  UNL     1      13.007  24.990  -1.983  1.00  0.00     0.004 C
HETATM    8  C8  UNL     1      11.940  25.157  -0.957  1.00  0.00     0.009 C
HETATM    9  C9  UNL     1      11.618  23.851  -0.226  1.00  0.00    -0.036 C
HETATM   10  C10 UNL     1      11.084  22.896  -1.225  1.00  0.00     0.015 C
HETATM   11  C11 UNL     1      10.577  24.216   0.839  1.00  0.00     0.015 C
HETATM   12  C12 UNL     1      12.852  23.435   0.480  1.00  0.00     0.089 C
ENDROOT
BRANCH   1  13
HETATM   13  O2  UNL     1      12.338  21.981   2.362  1.00  0.00    -0.286 OA
BRANCH  13  14
HETATM   14  C2  UNL     1      11.417  21.062   2.832  1.00  0.00     0.257 C
HETATM   15  C1  UNL     1      11.506  20.354   4.112  1.00  0.00     0.126 C
HETATM   16  O1  UNL     1      10.431  20.829   2.089  1.00  0.00    -0.266 OA
ENDBRANCH  13  14
ENDBRANCH   1  13
TORSDOF 2
ENDMDL