MODEL 1
REMARK VINA RESULT: -7.113169964      0.000      0.000
REMARK  1 active torsions:
REMARK  status: ('A' for Active; 'I' for Inactive)
REMARK    1  A    between atoms: S1_2  and  C2_3
ROOT
HETATM    1  C2  UNL     1      13.483  23.029  -0.263  1.00  0.00     0.285 C
HETATM    2  O1  UNL     1      13.570  22.843  -1.675  1.00  0.00    -0.329 OA
HETATM    3  C3  UNL     1      14.005  24.047  -2.185  1.00  0.00     0.175 C
HETATM    4  C4  UNL     1      12.809  24.865  -2.558  1.00  0.00     0.069 C
HETATM    5  C5  UNL     1      13.206  26.330  -2.663  1.00  0.00     0.005 C
HETATM    6  C6  UNL     1      13.465  26.640  -4.098  1.00  0.00     0.000 C
HETATM    7  C7  UNL     1      14.703  26.042  -4.670  1.00  0.00     0.000 C
HETATM    8  C8  UNL     1      15.522  25.255  -3.677  1.00  0.00     0.005 C
HETATM    9  C9  UNL     1      14.915  23.899  -3.389  1.00  0.00     0.069 C
HETATM   10  O2  UNL     1      14.810  24.631  -1.171  1.00  0.00    -0.281 OA
HETATM   11  C10 UNL     1      14.655  23.859  -0.029  1.00  0.00     0.301 C
HETATM   12  O3  UNL     1      15.433  23.934   0.951  1.00  0.00    -0.261 OA
ENDROOT
BRANCH   1  13
HETATM   13  S1  UNL     1      13.486  21.418   0.475  1.00  0.00    -0.132 SA
HETATM   14  C1  UNL     1      14.999  20.496   0.436  1.00  0.00     0.093 C
ENDBRANCH   1  13
TORSDOF 1
ENDMDL