MODEL 4
REMARK VINA RESULT: -4.894579312      2.003      3.444
REMARK  2 active torsions:
REMARK  status: ('A' for Active; 'I' for Inactive)
REMARK    1  A    between atoms: C2_2  and  O2_4
REMARK    2  A    between atoms: O2_4  and  C3_5
ROOT
HETATM    1  C3  UNL     1      13.265  22.865  -0.447  1.00  0.00     0.118 C
HETATM    2  C4  UNL     1      14.279  23.716   0.302  1.00  0.00     0.054 C
HETATM    3  C5  UNL     1      11.909  23.228  -0.093  1.00  0.00     0.081 C
HETATM    4  S1  UNL     1      10.882  24.048  -0.617  1.00  0.00    -0.074 SA
HETATM    5  S2  UNL     1      11.569  22.303   1.452  1.00  0.00    -0.119 SA
HETATM    6  C6  UNL     1      12.965  21.154   1.270  1.00  0.00     0.092 C
HETATM    7  C7  UNL     1      13.460  21.400  -0.107  1.00  0.00    -0.002 C
HETATM    8  C8  UNL     1      14.926  21.024  -0.141  1.00  0.00     0.019 C
HETATM    9  C9  UNL     1      12.757  20.536  -1.131  1.00  0.00     0.019 C
ENDROOT
BRANCH   1  10
HETATM   10  O2  UNL     1      13.455  22.924  -1.830  1.00  0.00    -0.304 OA
BRANCH  10  11
HETATM   11  C2  UNL     1      14.201  23.817  -2.539  1.00  0.00     0.256 C
HETATM   12  C1  UNL     1      13.701  25.212  -2.813  1.00  0.00     0.126 C
HETATM   13  O1  UNL     1      15.319  23.451  -2.961  1.00  0.00    -0.266 OA
ENDBRANCH  10  11
ENDBRANCH   1  10
TORSDOF 2
ENDMDL