MODEL 2
REMARK VINA RESULT: -6.131798480      1.209      1.572
REMARK  2 active torsions:
REMARK  status: ('A' for Active; 'I' for Inactive)
REMARK    1  A    between atoms: O1_2  and  C2_3
REMARK    2  A    between atoms: C2_3  and  C3_5
ROOT
HETATM    1  C3  UNL     1      13.511  22.994  -1.246  1.00  0.00     0.153 C
HETATM    2  C4  UNL     1      12.006  22.991  -1.338  1.00  0.00     0.101 C
HETATM    3  S1  UNL     1      11.829  24.838  -1.390  1.00  0.00    -0.131 SA
HETATM    4  C5  UNL     1      13.344  25.029  -2.384  1.00  0.00     0.008 C
HETATM    5  C6  UNL     1      14.080  23.977  -2.176  1.00  0.00     0.074 C
HETATM    6  O3  UNL     1      15.336  23.915  -2.871  1.00  0.00    -0.348 OA
HETATM    7  C7  UNL     1      15.704  24.901  -3.765  1.00  0.00     0.124 C
HETATM    8  C8  UNL     1      15.302  24.649  -5.191  1.00  0.00     0.040 C
HETATM    9  C9  UNL     1      15.166  26.272  -3.382  1.00  0.00     0.037 C
HETATM   10  C10 UNL     1      13.668  26.166  -3.262  1.00  0.00     0.051 C
ENDROOT
BRANCH   1  11
HETATM   11  C2  UNL     1      14.056  21.636  -1.447  1.00  0.00     0.269 C
HETATM   12  O2  UNL     1      13.795  21.049  -2.525  1.00  0.00    -0.264 OA
BRANCH  11  13
HETATM   13  O1  UNL     1      14.830  20.987  -0.524  1.00  0.00    -0.326 OA
HETATM   14  C1  UNL     1      14.456  20.835   0.845  1.00  0.00     0.213 C
ENDBRANCH  11  13
ENDBRANCH   1  11
TORSDOF 2
ENDMDL