MODEL 2
REMARK VINA RESULT: -8.024623981      0.711      1.267
REMARK  2 active torsions:
REMARK  status: ('A' for Active; 'I' for Inactive)
REMARK    1  A    between atoms: O1_2  and  C2_3
REMARK    2  A    between atoms: C2_3  and  C3_5
ROOT
HETATM    1  C3  UNL     1      14.080  24.155  -2.832  1.00  0.00     0.183 C
HETATM    2  C4  UNL     1      13.463  25.315  -2.860  1.00  0.00    -0.038 C
HETATM    3  C5  UNL     1      12.615  25.710  -1.710  1.00  0.00     0.046 C
HETATM    4  C6  UNL     1      13.633  26.201  -4.044  1.00  0.00     0.079 C
HETATM    5  C7  UNL     1      15.063  26.038  -4.506  1.00  0.00     0.108 C
HETATM    6  O3  UNL     1      15.372  24.718  -4.783  1.00  0.00    -0.223 OA
HETATM    7  O4  UNL     1      14.860  23.844  -3.942  1.00  0.00    -0.190 OA
HETATM    8  C8  UNL     1      15.404  26.926  -5.697  1.00  0.00     0.025 C
HETATM    9  C9  UNL     1      15.554  26.144  -6.957  1.00  0.00     0.014 C
HETATM   10  C10 UNL     1      16.689  27.273  -4.971  1.00  0.00    -0.000 A
HETATM   11  C11 UNL     1      16.502  28.072  -3.742  1.00  0.00     0.013 A
HETATM   12  C12 UNL     1      16.110  26.669  -3.655  1.00  0.00     0.029 A
ENDROOT
BRANCH   1  13
HETATM   13  C2  UNL     1      13.984  23.211  -1.728  1.00  0.00     0.319 C
HETATM   14  O2  UNL     1      13.114  22.335  -1.641  1.00  0.00    -0.257 OA
BRANCH  13  15
HETATM   15  O1  UNL     1      14.912  23.272  -0.688  1.00  0.00    -0.321 OA
HETATM   16  C1  UNL     1      14.671  23.987   0.506  1.00  0.00     0.213 C
ENDBRANCH  13  15
ENDBRANCH   1  13
TORSDOF 2
ENDMDL