MODEL 2
REMARK VINA RESULT: -6.418552419      0.715      1.141
REMARK  3 active torsions:
REMARK  status: ('A' for Active; 'I' for Inactive)
REMARK    1  A    between atoms: O1_2  and  C2_3
REMARK    2  A    between atoms: C2_3  and  O3_5
REMARK    3  A    between atoms: O3_5  and  C3_6
ROOT
HETATM    1  C3  UNL     1      13.499  24.300  -2.178  1.00  0.00     0.141 C
HETATM    2  C4  UNL     1      12.344  25.156  -1.730  1.00  0.00     0.037 C
HETATM    3  C5  UNL     1      12.213  25.151  -0.227  1.00  0.00    -0.012 C
HETATM    4  C6  UNL     1      13.550  25.055   0.449  1.00  0.00     0.005 C
HETATM    5  C7  UNL     1      14.220  23.770   0.099  1.00  0.00     0.010 C
HETATM    6  C8  UNL     1      13.661  23.178  -1.201  1.00  0.00     0.045 C
HETATM    7  C9  UNL     1      12.480  22.355  -0.954  1.00  0.00     0.134 C
HETATM    8  O4  UNL     1      11.387  22.471  -1.801  1.00  0.00    -0.384 OA
HETATM    9  C10 UNL     1      10.617  21.984  -0.716  1.00  0.00     0.175 C
HETATM   10  C11 UNL     1      11.606  22.743   0.182  1.00  0.00     0.039 C
HETATM   11  C12 UNL     1      11.228  24.157   0.281  1.00  0.00     0.014 C
ENDROOT
BRANCH   1  12
HETATM   12  O3  UNL     1      14.710  25.070  -2.100  1.00  0.00    -0.292 OA
BRANCH  12  13
HETATM   13  C2  UNL     1      15.738  24.952  -2.989  1.00  0.00     0.406 C
HETATM   14  O2  UNL     1      16.907  25.093  -2.609  1.00  0.00    -0.230 OA
BRANCH  13  15
HETATM   15  O1  UNL     1      15.406  24.670  -4.324  1.00  0.00    -0.303 OA
HETATM   16  C1  UNL     1      15.124  25.736  -5.195  1.00  0.00     0.215 C
ENDBRANCH  13  15
ENDBRANCH  12  13
ENDBRANCH   1  12
TORSDOF 3
ENDMDL