MODEL 1
REMARK VINA RESULT: -6.177794141      0.000      0.000
REMARK  3 active torsions:
REMARK  status: ('A' for Active; 'I' for Inactive)
REMARK    1  A    between atoms: N1_2  and  N2_3
REMARK       I    between atoms: N1_2  and  C6_10
REMARK    2  A    between atoms: C6_10  and  O3_12
REMARK    3  A    between atoms: O3_12  and  C7_13
ROOT
HETATM    1  C1  UNL     1      15.391  24.774  -1.043  1.00  0.00     0.183 C
HETATM    2  N1  UNL     1      15.031  23.749  -1.997  1.00  0.00    -0.239 N
HETATM    3  C6  UNL     1      15.327  23.906  -3.389  1.00  0.00     0.382 C
HETATM    4  O2  UNL     1      15.041  23.060  -4.244  1.00  0.00    -0.236 OA
ENDROOT
BRANCH   2   5
HETATM    5  N2  UNL     1      14.384  22.565  -1.620  1.00  0.00    -0.277 N
HETATM    6  C2  UNL     1      13.107  22.532  -1.382  1.00  0.00     0.132 C
HETATM    7  C3  UNL     1      12.338  21.346  -0.984  1.00  0.00     0.087 C
HETATM    8  O1  UNL     1      12.280  23.618  -1.471  1.00  0.00    -0.338 OA
HETATM    9  C4  UNL     1      10.891  21.762  -1.157  1.00  0.00     0.035 C
HETATM   10  C5  UNL     1      10.932  23.278  -1.207  1.00  0.00     0.177 C
ATOM     11  H2  UNL     1      14.929  21.708  -1.530  1.00  0.00     0.189 HD
ENDBRANCH   2   5
BRANCH   3  12
HETATM   12  O3  UNL     1      15.967  25.062  -3.803  1.00  0.00    -0.293 OA
BRANCH  12  13
HETATM   13  C7  UNL     1      15.282  26.080  -4.548  1.00  0.00     0.061 C
HETATM   14  C8  UNL     1      16.058  27.359  -4.304  1.00  0.00     0.046 C
HETATM   15  C9  UNL     1      15.330  25.788  -6.028  1.00  0.00     0.046 C
HETATM   16  C10 UNL     1      13.861  26.226  -4.094  1.00  0.00     0.046 C
ENDBRANCH  12  13
ENDBRANCH   3  12
TORSDOF 3
ENDMDL