MODEL 3
REMARK VINA RESULT: -5.610388006      1.798      2.319
REMARK  3 active torsions:
REMARK  status: ('A' for Active; 'I' for Inactive)
REMARK    1  A    between atoms: C2_2  and  S1_3
REMARK    2  A    between atoms: S1_3  and  C3_4
REMARK    3  A    between atoms: C4_5  and  C5_6
ROOT
HETATM    1  C5  UNL     1      13.861  24.115  -2.423  1.00  0.00     0.272 C
HETATM    2  O1  UNL     1      12.931  24.839  -1.668  1.00  0.00    -0.345 OA
HETATM    3  C6  UNL     1      12.866  24.282  -0.401  1.00  0.00     0.127 C
HETATM    4  C7  UNL     1      12.353  22.861  -0.517  1.00  0.00     0.055 C
HETATM    5  C8  UNL     1      11.868  25.087   0.396  1.00  0.00     0.055 C
HETATM    6  C9  UNL     1      14.203  24.270   0.198  1.00  0.00     0.223 C
HETATM    7  O2  UNL     1      14.518  24.444   1.316  1.00  0.00    -0.282 OA
HETATM    8  S2  UNL     1      15.238  23.925  -1.202  1.00  0.00    -0.045 SA
ENDROOT
BRANCH   1   9
HETATM    9  C4  UNL     1      14.315  24.954  -3.511  1.00  0.00    -0.051 C
HETATM   10  C3  UNL     1      14.706  25.673  -4.412  1.00  0.00    -0.031 C
BRANCH  10  11
HETATM   11  S1  UNL     1      15.296  26.729  -5.702  1.00  0.00    -0.079 SA
BRANCH  11  12
HETATM   12  C2  UNL     1      16.168  28.174  -5.028  1.00  0.00     0.084 C
HETATM   13  C1  UNL     1      17.019  27.717  -3.875  1.00  0.00     0.017 C
ENDBRANCH  11  12
ENDBRANCH  10  11
ENDBRANCH   1   9
TORSDOF 3
ENDMDL