MODEL 2
REMARK VINA RESULT: -9.331481641      1.248      1.909
REMARK  5 active torsions:
REMARK  status: ('A' for Active; 'I' for Inactive)
REMARK    1  A    between atoms: C4_4  and  C5_5
REMARK    2  A    between atoms: C7_8  and  C8_9
REMARK    3  A    between atoms: C8_9  and  C9_10
REMARK    4  A    between atoms: C9_10  and  C10_11
REMARK       I    between atoms: N3_17  and  C12_19
REMARK       I    between atoms: C12_19  and  N4_21
REMARK       I    between atoms: N4_21  and  C13_23
REMARK       I    between atoms: C13_23  and  N5_25
REMARK    5  A    between atoms: N5_25  and  C14_27
ROOT
HETATM    1  C10 UNL     1       9.604  24.367   7.639  1.00  0.00     0.142 A
HETATM    2  N1  UNL     1      10.855  23.912   7.480  1.00  0.00    -0.280 N
ATOM      3  H1  UNL     1      11.109  22.961   7.211  1.00  0.00     0.189 HD
HETATM    4  N2  UNL     1      11.705  24.890   7.728  1.00  0.00    -0.263 N
ATOM      5  H2  UNL     1      12.723  24.835   7.687  1.00  0.00     0.190 HD
HETATM    6  C11 UNL     1      10.962  25.988   8.051  1.00  0.00     0.248 A
HETATM    7  N3  UNL     1      11.420  27.145   8.359  1.00  0.00    -0.273 N
ATOM      8  H3  UNL     1      12.422  27.332   8.386  1.00  0.00     0.174 HD
HETATM    9  C12 UNL     1      10.451  28.175   8.669  1.00  0.00     0.331 C
HETATM   10  O1  UNL     1      10.556  28.821   9.721  1.00  0.00    -0.246 OA
HETATM   11  N4  UNL     1       9.431  28.385   7.745  1.00  0.00    -0.261 N
ATOM     12  H4  UNL     1       9.447  27.793   6.915  1.00  0.00     0.175 HD
HETATM   13  C13 UNL     1       8.385  29.317   7.820  1.00  0.00     0.324 C
HETATM   14  O2  UNL     1       7.519  29.383   6.871  1.00  0.00    -0.247 OA
HETATM   15  N5  UNL     1       8.198  30.204   8.868  1.00  0.00    -0.335 N
ATOM     16  H5  UNL     1       8.854  30.200   9.649  1.00  0.00     0.165 HD
HETATM   17  O3  UNL     1       9.734  25.626   7.983  1.00  0.00    -0.264 OA
ENDROOT
BRANCH   1  18
HETATM   18  C9  UNL     1       8.294  23.695   7.487  1.00  0.00     0.091 C
BRANCH  18  19
HETATM   19  C8  UNL     1       7.777  23.783   6.101  1.00  0.00     0.054 C
BRANCH  19  20
HETATM   20  C7  UNL     1       6.840  24.940   5.963  1.00  0.00    -0.016 A
HETATM   21  S1  UNL     1       6.836  26.106   4.686  1.00  0.00    -0.106 SA
HETATM   22  C6  UNL     1       5.559  27.093   5.228  1.00  0.00     0.061 A
HETATM   23  C5  UNL     1       5.166  26.493   6.388  1.00  0.00    -0.029 A
HETATM   24  C18 UNL     1       5.831  25.384   6.762  1.00  0.00     0.026 A
BRANCH  23  25
HETATM   25  C4  UNL     1       4.053  27.050   7.214  1.00  0.00     0.014 C
HETATM   26  C2  UNL     1       3.670  28.295   7.179  1.00  0.00    -0.087 C
HETATM   27  C1  UNL     1       4.246  29.369   6.341  1.00  0.00     0.043 C
HETATM   28  C3  UNL     1       2.534  28.724   8.061  1.00  0.00     0.043 C
ENDBRANCH  23  25
ENDBRANCH  19  20
ENDBRANCH  18  19
ENDBRANCH   1  18
BRANCH  15  29
HETATM   29  C14 UNL     1       7.079  31.148   8.877  1.00  0.00     0.023 C
HETATM   30  C15 UNL     1       5.824  30.462   9.323  1.00  0.00     0.037 C
HETATM   31  C16 UNL     1       7.446  32.280   9.805  1.00  0.00     0.037 C
HETATM   32  C17 UNL     1       6.842  31.737   7.499  1.00  0.00     0.037 C
ENDBRANCH  15  29
TORSDOF 5
ENDMDL