MODEL 1
REMARK VINA RESULT: -8.160546763      0.000      0.000
REMARK  5 active torsions:
REMARK  status: ('A' for Active; 'I' for Inactive)
REMARK    1  A    between atoms: C3_3  and  C4_4
REMARK       I    between atoms: C4_4  and  N1_6
REMARK    2  A    between atoms: N1_6  and  C5_8
REMARK    3  A    between atoms: C9_13  and  N2_14
REMARK       I    between atoms: N2_14  and  C10_16
REMARK    4  A    between atoms: C10_16  and  O3_18
REMARK    5  A    between atoms: O3_18  and  C11_19
ROOT
HETATM    1  N2  UNL     1       4.498  22.105   8.003  1.00  0.00    -0.296 N
ATOM      2  H2  UNL     1       4.533  22.049   9.021  1.00  0.00     0.171 HD
HETATM    3  C10 UNL     1       3.717  21.187   7.238  1.00  0.00     0.365 C
HETATM    4  O2  UNL     1       3.693  21.276   5.980  1.00  0.00    -0.238 OA
ENDROOT
BRANCH   1   5
HETATM    5  C9  UNL     1       5.236  23.112   7.287  1.00  0.00     0.085 A
HETATM    6  C2  UNL     1       4.896  24.427   7.088  1.00  0.00    -0.012 A
HETATM    7  C1  UNL     1       3.610  24.945   7.738  1.00  0.00     0.052 C
HETATM    8  C3  UNL     1       5.751  25.186   6.371  1.00  0.00     0.047 A
HETATM    9  C8  UNL     1       6.903  24.535   5.910  1.00  0.00     0.069 A
HETATM   10  S1  UNL     1       6.723  22.961   6.485  1.00  0.00    -0.083 SA
BRANCH   8  11
HETATM   11  C4  UNL     1       5.546  26.616   5.985  1.00  0.00     0.253 C
HETATM   12  O1  UNL     1       5.772  26.944   4.763  1.00  0.00    -0.268 OA
HETATM   13  N1  UNL     1       5.128  27.586   6.860  1.00  0.00    -0.353 N
ATOM     14  H1  UNL     1       4.926  27.358   7.834  1.00  0.00     0.163 HD
BRANCH  13  15
HETATM   15  C5  UNL     1       4.977  28.966   6.361  1.00  0.00     0.076 C
HETATM   16  C6  UNL     1       6.102  29.743   7.030  1.00  0.00     0.032 C
HETATM   17  C7  UNL     1       3.620  29.455   6.783  1.00  0.00     0.032 C
ENDBRANCH  13  15
ENDBRANCH   8  11
ENDBRANCH   1   5
BRANCH   3  18
HETATM   18  O3  UNL     1       2.972  20.189   7.806  1.00  0.00    -0.298 OA
BRANCH  18  19
HETATM   19  C11 UNL     1       1.791  19.711   7.211  1.00  0.00     0.138 C
HETATM   20  C12 UNL     1       1.401  18.347   7.661  1.00  0.00     0.062 C
HETATM   21  C13 UNL     1       0.365  17.831   6.667  1.00  0.00     0.021 C
HETATM   22  C14 UNL     1       1.065  17.686   5.308  1.00  0.00     0.037 C
HETATM   23  C15 UNL     1      -0.042  16.443   7.090  1.00  0.00     0.037 C
HETATM   24  N3  UNL     1      -0.705  18.742   6.476  1.00  0.00    -0.405 N
HETATM   25  C16 UNL     1      -0.655  19.951   7.202  1.00  0.00     0.021 C
ATOM     26  H3  UNL     1      -1.476  18.532   5.842  1.00  0.00     0.154 HD
HETATM   27  C17 UNL     1      -1.580  20.926   6.436  1.00  0.00     0.037 C
HETATM   28  C18 UNL     1      -1.309  19.820   8.586  1.00  0.00     0.037 C
HETATM   29  C19 UNL     1       0.651  20.649   7.310  1.00  0.00     0.062 C
ENDBRANCH  18  19
ENDBRANCH   3  18
TORSDOF 5
ENDMDL