MODEL 4
REMARK VINA RESULT: -8.863953964      3.146      7.087
REMARK  6 active torsions:
REMARK  status: ('A' for Active; 'I' for Inactive)
REMARK    1  A    between atoms: C9_9  and  C10_10
REMARK    2  A    between atoms: C12_12  and  C13_13
REMARK    3  A    between atoms: C13_13  and  C14_14
REMARK    4  A    between atoms: C14_14  and  C15_15
REMARK    5  A    between atoms: C18_20  and  O3_21
REMARK    6  A    between atoms: C21_25  and  O4_26
ROOT
HETATM    1  C15 UNL     1       2.618  23.519   0.124  1.00  0.00     0.139 C
HETATM    2  O1  UNL     1       2.827  22.201  -0.282  1.00  0.00    -0.315 OA
HETATM    3  C16 UNL     1       1.770  21.439  -0.755  1.00  0.00     0.262 C
HETATM    4  O2  UNL     1       1.872  20.655  -1.735  1.00  0.00    -0.265 OA
HETATM    5  C17 UNL     1       0.419  21.523  -0.093  1.00  0.00     0.149 C
HETATM    6  C18 UNL     1       0.416  22.766   0.827  1.00  0.00     0.073 C
HETATM    7  C19 UNL     1      -1.030  23.029   1.112  1.00  0.00     0.041 C
HETATM    8  C20 UNL     1      -1.388  24.428   1.428  1.00  0.00     0.034 C
HETATM    9  C21 UNL     1      -0.243  25.369   1.541  1.00  0.00     0.118 C
HETATM   10  C22 UNL     1       0.828  25.225   0.518  1.00  0.00     0.042 C
HETATM   11  C23 UNL     1       1.142  23.826   0.087  1.00  0.00     0.052 C
ENDROOT
BRANCH   1  12
HETATM   12  C14 UNL     1       3.451  24.502  -0.665  1.00  0.00     0.037 C
BRANCH  12  13
HETATM   13  C13 UNL     1       4.906  24.288  -0.201  1.00  0.00     0.030 C
BRANCH  13  14
HETATM   14  C12 UNL     1       4.911  24.292   1.260  1.00  0.00    -0.020 C
HETATM   15  C10 UNL     1       5.735  23.488   2.028  1.00  0.00    -0.065 C
HETATM   16  C11 UNL     1       6.588  22.620   1.239  1.00  0.00     0.048 C
BRANCH  15  17
HETATM   17  C9  UNL     1       5.568  23.667   3.437  1.00  0.00     0.014 C
HETATM   18  C8  UNL     1       6.031  24.469   4.338  1.00  0.00    -0.048 C
HETATM   19  C2  UNL     1       5.578  24.296   5.737  1.00  0.00    -0.061 C
HETATM   20  C6  UNL     1       6.986  25.560   4.054  1.00  0.00     0.015 C
HETATM   21  C1  UNL     1       5.369  23.086   6.187  1.00  0.00     0.019 C
HETATM   22  C3  UNL     1       5.374  25.478   6.600  1.00  0.00     0.038 C
HETATM   23  C4  UNL     1       5.571  26.712   5.741  1.00  0.00     0.005 C
HETATM   24  C5  UNL     1       6.933  26.658   5.127  1.00  0.00     0.009 C
HETATM   25  C7  UNL     1       8.380  24.936   4.087  1.00  0.00     0.015 C
ENDBRANCH  15  17
ENDBRANCH  13  14
ENDBRANCH  12  13
ENDBRANCH   1  12
BRANCH   6  26
HETATM   26  O3  UNL     1       1.095  22.353   1.979  1.00  0.00    -0.389 OA
ATOM     27  H3  UNL     1       0.410  22.200   2.618  1.00  0.00     0.210 HD
ENDBRANCH   6  26
BRANCH   9  28
HETATM   28  O4  UNL     1      -0.773  26.677   1.429  1.00  0.00    -0.396 OA
ATOM     29  H4  UNL     1      -0.186  27.255   1.903  1.00  0.00     0.210 HD
ENDBRANCH   9  28
TORSDOF 6
ENDMDL