MODEL 2
REMARK VINA RESULT: -8.476265478     10.028     11.493
REMARK  5 active torsions:
REMARK  status: ('A' for Active; 'I' for Inactive)
REMARK       I    between atoms: N1_1  and  C1_4
REMARK    1  A    between atoms: N3_6  and  C2_8
REMARK    2  A    between atoms: C3_11  and  C4_12
REMARK    3  A    between atoms: N7_17  and  C5_18
REMARK    4  A    between atoms: C5_18  and  C6_19
REMARK    5  A    between atoms: C12_25  and  C13_26
ROOT
HETATM    1  C4  UNL     1      -1.721  19.701   2.409  1.00  0.00     0.101 A
HETATM    2  N5  UNL     1      -2.142  19.840   1.120  1.00  0.00    -0.282 N
ATOM      3  H5  UNL     1      -2.506  19.070   0.559  1.00  0.00     0.188 HD
HETATM    4  N6  UNL     1      -2.033  21.025   0.696  1.00  0.00    -0.240 N
ATOM      5  H6  UNL     1      -2.289  21.347  -0.238  1.00  0.00     0.208 HD
HETATM    6  N7  UNL     1      -1.524  21.795   1.680  1.00  0.00    -0.279 N
HETATM    7  C12 UNL     1      -1.334  20.972   2.735  1.00  0.00     0.064 A
ENDROOT
BRANCH   1   8
HETATM    8  C3  UNL     1      -1.736  18.385   3.136  1.00  0.00     0.071 A
HETATM    9  N4  UNL     1      -0.584  17.707   3.237  1.00  0.00    -0.334 N
HETATM   10  C2  UNL     1      -0.523  16.563   3.866  1.00  0.00     0.151 A
ATOM     11  H4  UNL     1       0.261  18.092   2.815  1.00  0.00     0.168 HD
HETATM   12  S1  UNL     1      -2.146  16.326   4.396  1.00  0.00    -0.063 SA
HETATM   13  C19 UNL     1      -2.800  17.770   3.741  1.00  0.00     0.085 A
BRANCH  10  14
HETATM   14  N3  UNL     1       0.436  15.738   4.084  1.00  0.00    -0.311 N
HETATM   15  C1  UNL     1       1.394  15.610   5.048  1.00  0.00     0.187 C
HETATM   16  N1  UNL     1       2.298  14.662   4.911  1.00  0.00    -0.373 N
HETATM   17  N2  UNL     1       1.458  16.456   6.182  1.00  0.00    -0.064 NA
ATOM     18  H12 UNL     1       3.014  14.566   5.632  1.00  0.00     0.158 HD
ATOM     19  H11 UNL     1       2.252  14.053   4.095  1.00  0.00     0.158 HD
ATOM     20  H3  UNL     1       0.497  15.011   3.371  1.00  0.00     0.170 HD
ENDBRANCH  10  14
ENDBRANCH   1   8
BRANCH   7  21
HETATM   21  C13 UNL     1      -0.868  21.327   4.098  1.00  0.00     0.040 C
HETATM   22  C14 UNL     1      -1.677  20.828   5.263  1.00  0.00     0.011 C
HETATM   23  C15 UNL     1      -1.161  21.483   6.572  1.00  0.00     0.001 C
HETATM   24  C16 UNL     1       0.178  20.909   6.840  1.00  0.00     0.000 C
HETATM   25  C17 UNL     1       0.655  20.063   5.695  1.00  0.00     0.001 C
HETATM   26  C18 UNL     1       0.506  20.758   4.385  1.00  0.00     0.011 C
ENDBRANCH   7  21
BRANCH   6  27
HETATM   27  C5  UNL     1      -1.263  23.186   1.520  1.00  0.00     0.155 C
BRANCH  27  28
HETATM   28  C6  UNL     1       0.151  23.652   1.514  1.00  0.00     0.005 C
HETATM   29  C7  UNL     1       0.226  25.113   1.126  1.00  0.00     0.006 C
HETATM   30  C8  UNL     1       1.097  25.367  -0.074  1.00  0.00     0.000 C
HETATM   31  C9  UNL     1       2.492  24.838   0.254  1.00  0.00     0.000 C
HETATM   32  C10 UNL     1       2.431  23.410   0.735  1.00  0.00     0.000 C
HETATM   33  C11 UNL     1       1.023  22.906   0.519  1.00  0.00     0.006 C
ENDBRANCH  27  28
ENDBRANCH   6  27
TORSDOF 5
ENDMDL