MODEL 2
REMARK VINA RESULT: -7.877900917      3.609      7.454
REMARK  5 active torsions:
REMARK  status: ('A' for Active; 'I' for Inactive)
REMARK    1  A    between atoms: C2_2  and  C3_3
REMARK    2  A    between atoms: C3_3  and  C4_4
REMARK    3  A    between atoms: C9_11  and  N2_12
REMARK       I    between atoms: N2_12  and  C10_14
REMARK    4  A    between atoms: C10_14  and  C11_16
REMARK    5  A    between atoms: C17_22  and  C18_23
ROOT
HETATM    1  C3  UNL     1       7.033  21.468   6.319  1.00  0.00     0.082 C
HETATM    2  O1  UNL     1       6.873  22.213   5.132  1.00  0.00    -0.337 OA
HETATM    3  C6  UNL     1       6.291  23.413   5.470  1.00  0.00     0.101 A
HETATM    4  C7  UNL     1       6.189  24.586   4.725  1.00  0.00     0.082 A
HETATM    5  N1  UNL     1       6.734  24.655   3.413  1.00  0.00    -0.099 NA
HETATM    6  C8  UNL     1       5.553  25.660   5.292  1.00  0.00     0.059 A
HETATM    7  C9  UNL     1       5.002  25.650   6.572  1.00  0.00     0.037 A
HETATM    8  C15 UNL     1       5.123  24.479   7.268  1.00  0.00     0.040 A
HETATM    9  C16 UNL     1       5.759  23.363   6.735  1.00  0.00    -0.006 A
HETATM   10  C17 UNL     1       6.011  21.994   7.286  1.00  0.00     0.125 C
ENDROOT
BRANCH  10  11
HETATM   11  C18 UNL     1       4.762  21.253   7.391  1.00  0.00     0.109 A
HETATM   12  N3  UNL     1       3.669  21.511   6.644  1.00  0.00    -0.333 N
HETATM   13  C19 UNL     1       2.715  20.639   6.968  1.00  0.00     0.093 A
ATOM     14  H3  UNL     1       3.587  22.251   5.946  1.00  0.00     0.168 HD
HETATM   15  C20 UNL     1       1.339  20.532   6.412  1.00  0.00     0.090 C
HETATM   16  N4  UNL     1       3.227  19.847   7.917  1.00  0.00    -0.288 N
HETATM   17  N5  UNL     1       4.465  20.216   8.174  1.00  0.00    -0.287 N
ATOM     18  H4  UNL     1       2.736  19.076   8.371  1.00  0.00     0.188 HD
ATOM     19  H5  UNL     1       5.089  19.784   8.855  1.00  0.00     0.188 HD
ENDBRANCH  10  11
BRANCH   1  20
HETATM   20  C2  UNL     1       6.780  20.003   5.943  1.00  0.00     0.035 C
HETATM   21  C1  UNL     1       6.537  20.013   4.439  1.00  0.00     0.008 C
ENDBRANCH   1  20
BRANCH   1  22
HETATM   22  C4  UNL     1       8.405  21.604   6.937  1.00  0.00     0.035 C
HETATM   23  C5  UNL     1       9.475  21.650   5.909  1.00  0.00     0.008 C
ENDBRANCH   1  22
BRANCH   7  24
HETATM   24  N2  UNL     1       4.384  26.828   7.030  1.00  0.00    -0.326 N
HETATM   25  C10 UNL     1       4.813  28.150   6.901  1.00  0.00     0.229 C
HETATM   26  O2  UNL     1       5.865  28.462   6.329  1.00  0.00    -0.272 OA
ATOM     27  H2  UNL     1       3.501  26.699   7.523  1.00  0.00     0.169 HD
BRANCH  25  28
HETATM   28  C11 UNL     1       3.999  29.267   7.463  1.00  0.00     0.030 C
HETATM   29  C12 UNL     1       3.676  30.286   6.377  1.00  0.00     0.025 C
HETATM   30  C13 UNL     1       2.672  28.776   7.996  1.00  0.00     0.025 C
HETATM   31  C14 UNL     1       4.730  30.008   8.558  1.00  0.00     0.025 C
ENDBRANCH  25  28
ENDBRANCH   7  24
TORSDOF 5
ENDMDL