MODEL 4
REMARK VINA RESULT: -7.721454994      5.030      7.127
REMARK  7 active torsions:
REMARK  status: ('A' for Active; 'I' for Inactive)
REMARK    1  A    between atoms: C9_10  and  C11_12
REMARK    2  A    between atoms: C11_12  and  O1_13
REMARK    3  A    between atoms: C11_12  and  C12_15
REMARK    4  A    between atoms: C12_15  and  C13_16
REMARK    5  A    between atoms: C13_16  and  C14_17
REMARK    6  A    between atoms: C14_17  and  O2_18
REMARK    7  A    between atoms: C18_24  and  O3_25
ROOT
HETATM    1  C1  UNL     1       2.337  20.053   1.078  1.00  0.00     0.015 C
HETATM    2  C2  UNL     1       1.851  20.871   2.312  1.00  0.00     0.017 A
HETATM    3  C3  UNL     1       3.086  20.977   3.130  1.00  0.00     0.058 A
HETATM    4  C4  UNL     1       2.997  20.445   4.463  1.00  0.00     0.023 A
HETATM    5  C5  UNL     1       4.201  20.462   5.287  1.00  0.00     0.095 C
HETATM    6  N1  UNL     1       5.155  20.496   5.938  1.00  0.00    -0.192 NA
HETATM    7  C6  UNL     1       1.900  19.962   4.936  1.00  0.00     0.026 A
HETATM    8  C7  UNL     1       0.661  19.903   4.166  1.00  0.00    -0.048 A
HETATM    9  C8  UNL     1       0.642  20.343   2.919  1.00  0.00    -0.058 A
HETATM   10  C9  UNL     1      -0.700  20.294   2.216  1.00  0.00     0.011 C
HETATM   11  C10 UNL     1      -0.579  19.088   1.307  1.00  0.00     0.023 C
HETATM   12  C16 UNL     1      -1.858  20.255   3.134  1.00  0.00     0.011 C
HETATM   13  C17 UNL     1      -2.705  19.002   3.084  1.00  0.00     0.038 C
HETATM   14  C18 UNL     1      -2.169  17.802   3.756  1.00  0.00     0.119 C
HETATM   15  C19 UNL     1      -0.920  18.009   4.567  1.00  0.00     0.042 C
HETATM   16  C20 UNL     1      -0.552  19.378   4.892  1.00  0.00     0.029 C
HETATM   17  C21 UNL     1      -1.584  20.450   4.615  1.00  0.00    -0.035 C
HETATM   18  C22 UNL     1      -2.846  20.286   5.440  1.00  0.00     0.016 C
HETATM   19  C23 UNL     1      -1.097  21.805   5.001  1.00  0.00     0.016 C
ENDROOT
BRANCH  10  20
HETATM   20  C11 UNL     1      -0.858  21.429   1.189  1.00  0.00     0.134 C
BRANCH  20  21
HETATM   21  O1  UNL     1      -1.921  20.870   0.384  1.00  0.00    -0.394 OA
ATOM     22  H1  UNL     1      -2.547  21.582   0.440  1.00  0.00     0.210 HD
ENDBRANCH  20  21
BRANCH  20  23
HETATM   23  C12 UNL     1      -1.292  22.730   1.641  1.00  0.00     0.063 C
BRANCH  23  24
HETATM   24  C13 UNL     1      -0.239  23.724   2.000  1.00  0.00     0.024 C
BRANCH  24  25
HETATM   25  C14 UNL     1      -0.184  25.059   1.417  1.00  0.00     0.143 C
HETATM   26  C15 UNL     1       0.711  25.227   0.293  1.00  0.00     0.124 C
HETATM   27  N2  UNL     1       1.452  25.382  -0.607  1.00  0.00    -0.189 NA
BRANCH  25  28
HETATM   28  O2  UNL     1      -1.379  25.765   1.328  1.00  0.00    -0.351 OA
ATOM     29  H2  UNL     1      -1.338  26.647   0.976  1.00  0.00     0.218 HD
ENDBRANCH  25  28
ENDBRANCH  24  25
ENDBRANCH  23  24
ENDBRANCH  20  23
ENDBRANCH  10  20
BRANCH  14  30
HETATM   30  O3  UNL     1      -2.062  16.726   2.855  1.00  0.00    -0.396 OA
ATOM     31  H3  UNL     1      -1.168  16.413   2.805  1.00  0.00     0.210 HD
ENDBRANCH  14  30
TORSDOF 7
ENDMDL