MODEL 2
REMARK VINA RESULT: -8.096690016      2.953      5.865
REMARK  6 active torsions:
REMARK  status: ('A' for Active; 'I' for Inactive)
REMARK    1  A    between atoms: C3_3  and  C4_4
REMARK    2  A    between atoms: C4_4  and  C5_5
REMARK    3  A    between atoms: C6_6  and  C7_7
REMARK    4  A    between atoms: C9_10  and  O2_11
REMARK    5  A    between atoms: C16_20  and  O4_21
REMARK    6  A    between atoms: C19_25  and  C20_26
ROOT
HETATM    1  C1  UNL     1      -0.928  19.830   1.196  1.00  0.00     0.015 C
HETATM    2  C2  UNL     1      -1.785  20.775   2.018  1.00  0.00     0.016 C
HETATM    3  C3  UNL     1      -1.070  22.016   2.221  1.00  0.00    -0.076 C
HETATM    4  C10 UNL     1      -0.792  22.413   3.434  1.00  0.00    -0.022 C
HETATM    5  C11 UNL     1      -1.162  21.680   4.609  1.00  0.00     0.041 C
HETATM    6  C12 UNL     1      -1.411  20.187   4.471  1.00  0.00    -0.012 C
HETATM    7  C13 UNL     1      -0.067  19.602   4.247  1.00  0.00     0.021 C
HETATM    8  C14 UNL     1      -2.328  20.121   3.246  1.00  0.00     0.009 C
HETATM    9  C15 UNL     1      -2.745  18.737   2.876  1.00  0.00     0.042 C
HETATM   10  C16 UNL     1      -3.947  18.274   3.619  1.00  0.00     0.141 C
HETATM   11  C17 UNL     1      -4.465  19.164   4.666  1.00  0.00     0.005 C
HETATM   12  C18 UNL     1      -3.623  19.868   5.587  1.00  0.00     0.003 C
HETATM   13  C19 UNL     1      -2.135  19.690   5.692  1.00  0.00    -0.064 C
ENDROOT
BRANCH   3  14
HETATM   14  C4  UNL     1      -0.660  22.872   1.076  1.00  0.00     0.061 C
BRANCH  14  15
HETATM   15  C5  UNL     1      -0.425  24.283   1.433  1.00  0.00    -0.024 C
HETATM   16  C6  UNL     1       0.389  25.167   0.934  1.00  0.00     0.003 C
BRANCH  16  17
HETATM   17  C7  UNL     1       1.359  25.056  -0.157  1.00  0.00     0.173 C
HETATM   18  C8  UNL     1       2.794  25.315   0.248  1.00  0.00     0.209 C
HETATM   19  O1  UNL     1       3.495  24.250  -0.327  1.00  0.00    -0.336 OA
HETATM   20  C9  UNL     1       2.651  23.743  -1.315  1.00  0.00     0.411 C
HETATM   21  O3  UNL     1       1.362  23.883  -0.846  1.00  0.00    -0.328 OA
BRANCH  20  22
HETATM   22  O2  UNL     1       2.884  22.400  -1.579  1.00  0.00    -0.349 OA
ATOM     23  H2  UNL     1       2.139  21.850  -1.366  1.00  0.00     0.215 HD
ENDBRANCH  20  22
ENDBRANCH  16  17
ENDBRANCH  14  15
ENDBRANCH   3  14
BRANCH  13  24
HETATM   24  C20 UNL     1      -1.607  18.600   6.525  1.00  0.00    -0.027 C
HETATM   25  C21 UNL     1      -2.661  18.415   7.652  1.00  0.00     0.019 C
HETATM   26  C22 UNL     1      -0.367  19.009   7.370  1.00  0.00     0.019 C
HETATM   27  C23 UNL     1      -1.275  17.270   6.045  1.00  0.00     0.019 C
ENDBRANCH  13  24
BRANCH  10  28
HETATM   28  O4  UNL     1      -4.970  18.037   2.681  1.00  0.00    -0.392 OA
ATOM     29  H4  UNL     1      -5.800  18.061   3.143  1.00  0.00     0.210 HD
ENDBRANCH  10  28
TORSDOF 6
ENDMDL