MODEL 4
REMARK VINA RESULT: -7.477499562      7.008     10.885
REMARK  7 active torsions:
REMARK  status: ('A' for Active; 'I' for Inactive)
REMARK    1  A    between atoms: C2_2  and  C3_3
REMARK    2  A    between atoms: C3_3  and  N1_4
REMARK    3  A    between atoms: N1_4  and  C4_5
REMARK    4  A    between atoms: C7_11  and  N3_12
REMARK    5  A    between atoms: N3_12  and  C8_14
REMARK    6  A    between atoms: C8_14  and  C10_16
REMARK    7  A    between atoms: C10_16  and  O1_19
ROOT
HETATM    1  C4  UNL     1       2.598  20.422   7.415  1.00  0.00     0.222 A
HETATM    2  N2  UNL     1       1.879  19.578   8.195  1.00  0.00    -0.323 N
ATOM      3  H2  UNL     1       2.217  19.332   9.126  1.00  0.00     0.169 HD
HETATM    4  C5  UNL     1       0.770  19.086   7.764  1.00  0.00     0.063 A
HETATM    5  C6  UNL     1       0.350  19.442   6.501  1.00  0.00     0.040 A
HETATM    6  S1  UNL     1       1.580  20.481   5.988  1.00  0.00    -0.039 SA
HETATM    7  C7  UNL     1      -0.891  18.992   5.798  1.00  0.00     0.154 C
HETATM    8  C13 UNL     1      -2.042  19.544   6.627  1.00  0.00     0.085 C
HETATM    9  C14 UNL     1      -1.698  20.947   7.066  1.00  0.00     0.049 C
HETATM   10  C15 UNL     1      -3.331  19.627   5.835  1.00  0.00     0.049 C
HETATM   11  O2  UNL     1      -2.323  18.702   7.753  1.00  0.00    -0.338 OA
HETATM   12  C16 UNL     1      -1.454  18.012   8.595  1.00  0.00     0.082 A
HETATM   13  C17 UNL     1      -2.074  17.129   9.447  1.00  0.00     0.038 A
HETATM   14  C18 UNL     1      -1.335  16.387  10.328  1.00  0.00     0.003 A
HETATM   15  C19 UNL     1       0.056  16.548  10.340  1.00  0.00     0.001 A
HETATM   16  C20 UNL     1       0.682  17.429   9.491  1.00  0.00     0.016 A
HETATM   17  C21 UNL     1      -0.063  18.171   8.610  1.00  0.00     0.025 A
ENDROOT
BRANCH   7  18
HETATM   18  N3  UNL     1      -1.024  19.282   4.485  1.00  0.00    -0.403 N
ATOM     19  H3  UNL     1      -1.262  20.251   4.275  1.00  0.00     0.154 HD
BRANCH  18  20
HETATM   20  C8  UNL     1      -0.883  18.456   3.387  1.00  0.00     0.106 C
HETATM   21  C9  UNL     1      -1.275  17.007   3.606  1.00  0.00     0.035 C
BRANCH  20  22
HETATM   22  C10 UNL     1      -1.869  18.935   2.290  1.00  0.00     0.070 C
HETATM   23  C11 UNL     1      -1.370  18.703   0.914  1.00  0.00     0.047 C
HETATM   24  C12 UNL     1      -2.059  20.453   2.438  1.00  0.00     0.047 C
BRANCH  22  25
HETATM   25  O1  UNL     1      -3.125  18.390   2.457  1.00  0.00    -0.389 OA
ATOM     26  H1  UNL     1      -3.190  17.529   2.061  1.00  0.00     0.210 HD
ENDBRANCH  22  25
ENDBRANCH  20  22
ENDBRANCH  18  20
ENDBRANCH   7  18
BRANCH   1  27
HETATM   27  N1  UNL     1       3.656  20.983   7.623  1.00  0.00    -0.397 NA
BRANCH  27  28
HETATM   28  C3  UNL     1       4.725  21.704   7.850  1.00  0.00     0.157 C
BRANCH  28  29
HETATM   29  C2  UNL     1       4.639  23.161   7.393  1.00  0.00     0.055 C
HETATM   30  C1  UNL     1       3.689  23.987   8.183  1.00  0.00     0.011 C
ENDBRANCH  28  29
ENDBRANCH  27  28
ENDBRANCH   1  27
TORSDOF 7
ENDMDL