MODEL 4
REMARK VINA RESULT: -8.500730570      2.840      5.737
REMARK  7 active torsions:
REMARK  status: ('A' for Active; 'I' for Inactive)
REMARK    1  A    between atoms: C5_5  and  O1_6
REMARK    2  A    between atoms: C8_10  and  C9_11
REMARK    3  A    between atoms: N1_12  and  C10_14
REMARK    4  A    between atoms: C10_14  and  C11_15
REMARK    5  A    between atoms: C11_15  and  O2_18
REMARK    6  A    between atoms: C19_26  and  C20_27
REMARK    7  A    between atoms: C20_27  and  O4_29
ROOT
HETATM    1  C1  UNL     1       7.307  26.484   4.834  1.00  0.00     0.049 C
HETATM    2  C2  UNL     1       6.257  25.954   5.694  1.00  0.00    -0.045 A
HETATM    3  C3  UNL     1       5.412  26.858   6.352  1.00  0.00    -0.042 A
HETATM    4  C4  UNL     1       4.396  26.422   7.172  1.00  0.00    -0.015 A
HETATM    5  C5  UNL     1       4.233  25.073   7.329  1.00  0.00     0.106 A
HETATM    6  C6  UNL     1       5.070  24.189   6.678  1.00  0.00     0.111 A
HETATM    7  C7  UNL     1       6.091  24.604   5.855  1.00  0.00    -0.006 A
HETATM    8  C8  UNL     1       6.941  23.645   5.201  1.00  0.00     0.063 C
HETATM    9  C14 UNL     1       6.818  22.295   5.881  1.00  0.00     0.052 C
HETATM   10  C15 UNL     1       5.435  21.829   6.129  1.00  0.00     0.061 C
HETATM   11  C16 UNL     1       5.508  20.590   6.998  1.00  0.00     0.046 C
HETATM   12  C17 UNL     1       4.644  21.614   4.877  1.00  0.00     0.046 C
HETATM   13  O3  UNL     1       4.806  22.833   6.914  1.00  0.00    -0.338 OA
HETATM   14  C18 UNL     1       3.670  27.600   7.723  1.00  0.00     0.049 C
HETATM   15  C19 UNL     1       3.955  28.654   6.642  1.00  0.00     0.023 C
HETATM   16  C22 UNL     1       5.400  28.341   6.340  1.00  0.00     0.047 C
ENDROOT
BRANCH   8  17
HETATM   17  C9  UNL     1       8.397  23.925   5.254  1.00  0.00     0.065 C
HETATM   18  N1  UNL     1       9.117  23.796   6.296  1.00  0.00    -0.399 N
ATOM     19  H1  UNL     1       8.678  23.479   7.160  1.00  0.00     0.158 HD
BRANCH  18  20
HETATM   20  C10 UNL     1      10.502  24.075   6.298  1.00  0.00     0.155 C
BRANCH  20  21
HETATM   21  C11 UNL     1      10.969  24.935   7.428  1.00  0.00     0.066 C
HETATM   22  C12 UNL     1      10.626  26.379   7.067  1.00  0.00     0.047 C
HETATM   23  C13 UNL     1      12.478  24.889   7.604  1.00  0.00     0.047 C
BRANCH  21  24
HETATM   24  O2  UNL     1      10.324  24.638   8.611  1.00  0.00    -0.389 OA
ATOM     25  H2  UNL     1      10.751  25.033   9.362  1.00  0.00     0.210 HD
ENDBRANCH  21  24
ENDBRANCH  20  21
ENDBRANCH  18  20
ENDBRANCH   8  17
BRANCH   5  26
HETATM   26  O1  UNL     1       3.191  24.644   8.170  1.00  0.00    -0.357 OA
ATOM     27  H1  UNL     1       2.849  23.770   8.026  1.00  0.00     0.217 HD
ENDBRANCH   5  26
BRANCH  15  28
HETATM   28  C20 UNL     1       3.797  30.009   7.298  1.00  0.00     0.118 C
HETATM   29  C21 UNL     1       5.005  30.410   8.085  1.00  0.00     0.040 C
BRANCH  28  30
HETATM   30  O4  UNL     1       2.619  30.041   8.012  1.00  0.00    -0.396 OA
ATOM     31  H4  UNL     1       2.673  30.710   8.685  1.00  0.00     0.210 HD
ENDBRANCH  28  30
ENDBRANCH  15  28
TORSDOF 7
ENDMDL