MODEL 1
REMARK VINA RESULT: -7.895502172      0.000      0.000
REMARK  5 active torsions:
REMARK  status: ('A' for Active; 'I' for Inactive)
REMARK    1  A    between atoms: C4_4  and  C5_5
REMARK    2  A    between atoms: C5_5  and  C6_6
REMARK    3  A    between atoms: C6_6  and  O1_7
REMARK    4  A    between atoms: C8_10  and  C9_11
REMARK    5  A    between atoms: C13_19  and  C14_20
ROOT
HETATM    1  C6  UNL     1      -1.274  19.769   4.882  1.00  0.00     0.117 C
HETATM    2  C7  UNL     1      -0.741  18.578   4.187  1.00  0.00     0.088 C
HETATM    3  C8  UNL     1      -0.917  18.375   2.917  1.00  0.00     0.119 C
HETATM    4  O4  UNL     1      -0.047  17.709   4.993  1.00  0.00    -0.351 OA
HETATM    5  C10 UNL     1      -0.060  17.920   6.422  1.00  0.00     0.189 C
HETATM    6  C11 UNL     1      -1.501  18.208   6.791  1.00  0.00     0.023 C
HETATM    7  C12 UNL     1      -2.113  16.885   6.845  1.00  0.00     0.181 C
HETATM    8  O5  UNL     1      -1.273  16.290   7.837  1.00  0.00    -0.384 OA
HETATM    9  C13 UNL     1      -0.928  17.315   8.739  1.00  0.00     0.133 C
HETATM   10  C17 UNL     1      -1.626  18.503   8.303  1.00  0.00    -0.005 C
HETATM   11  C18 UNL     1      -2.983  18.654   8.823  1.00  0.00     0.019 C
HETATM   12  C19 UNL     1      -0.992  19.834   8.295  1.00  0.00     0.013 C
HETATM   13  C20 UNL     1      -1.753  20.490   7.133  1.00  0.00     0.014 C
HETATM   14  C21 UNL     1      -2.041  19.388   6.123  1.00  0.00     0.006 C
HETATM   15  C22 UNL     1      -3.515  19.225   5.855  1.00  0.00     0.020 C
ENDROOT
BRANCH   1  16
HETATM   16  C5  UNL     1      -1.878  20.669   3.890  1.00  0.00     0.073 C
BRANCH  16  17
HETATM   17  C4  UNL     1      -1.120  21.903   3.566  1.00  0.00    -0.021 C
HETATM   18  C2  UNL     1      -0.954  22.255   2.315  1.00  0.00    -0.091 C
HETATM   19  C1  UNL     1      -0.168  23.536   2.056  1.00  0.00     0.042 C
HETATM   20  C3  UNL     1      -1.398  21.552   1.102  1.00  0.00     0.042 C
ENDBRANCH  16  17
ENDBRANCH   1  16
BRANCH   1  21
HETATM   21  O1  UNL     1      -0.060  20.448   5.252  1.00  0.00    -0.382 OA
ATOM     22  H1  UNL     1       0.448  20.443   4.449  1.00  0.00     0.211 HD
ENDBRANCH   1  21
BRANCH   3  23
HETATM   23  C9  UNL     1      -0.391  17.195   2.218  1.00  0.00     0.201 C
HETATM   24  O2  UNL     1      -1.078  16.143   2.240  1.00  0.00    -0.644 OA
HETATM   25  O3  UNL     1       0.809  17.167   1.539  1.00  0.00    -0.644 OA
ENDBRANCH   3  23
BRANCH   9  26
HETATM   26  C14 UNL     1      -1.097  16.767  10.108  1.00  0.00     0.007 C
HETATM   27  C15 UNL     1       0.258  16.993  10.835  1.00  0.00     0.012 C
HETATM   28  C16 UNL     1      -1.208  15.233  10.148  1.00  0.00     0.012 C
ENDBRANCH   9  26
TORSDOF 5
ENDMDL