MODEL 5
REMARK VINA RESULT: -5.944414621      3.088      5.446
REMARK  7 active torsions:
REMARK  status: ('A' for Active; 'I' for Inactive)
REMARK    1  A    between atoms: C2_2  and  C3_3
REMARK    2  A    between atoms: C3_3  and  O1_4
REMARK    3  A    between atoms: C3_3  and  C4_6
REMARK    4  A    between atoms: C6_8  and  O2_9
REMARK    5  A    between atoms: O2_9  and  C7_10
REMARK       I    between atoms: C7_10  and  N1_12
REMARK    6  A    between atoms: C9_15  and  C10_16
REMARK    7  A    between atoms: C10_16  and  O4_17
ROOT
HETATM    1  C4  UNL     1     -24.516   6.828 101.710  1.00  0.00     0.217 C
HETATM    2  C5  UNL     1     -23.312   6.522 100.866  1.00  0.00     0.069 C
HETATM    3  C6  UNL     1     -23.243   5.068 100.561  1.00  0.00     0.145 C
HETATM    4  C9  UNL     1     -23.589   4.136 101.677  1.00  0.00     0.082 C
HETATM    5  C15 UNL     1     -24.487   4.731 102.720  1.00  0.00     0.192 C
HETATM    6  C16 UNL     1     -25.970   4.597 102.339  1.00  0.00     0.040 C
HETATM    7  N2  UNL     1     -24.277   6.127 102.980  1.00  0.00    -0.064 N
ATOM      8  H21 UNL     1     -24.842   6.484 103.751  1.00  0.00     0.278 HD
ATOM      9  H22 UNL     1     -23.365   6.329 103.388  1.00  0.00     0.278 HD
ENDROOT
BRANCH   4  10
HETATM   10  C10 UNL     1     -22.440   3.474 102.336  1.00  0.00     0.091 C
HETATM   11  C12 UNL     1     -22.562   3.302 103.838  1.00  0.00     0.067 C
HETATM   12  C13 UNL     1     -21.101   2.983 104.148  1.00  0.00     0.170 C
HETATM   13  O5  UNL     1     -20.336   3.389 103.095  1.00  0.00    -0.388 OA
HETATM   14  C14 UNL     1     -21.141   4.221 102.281  1.00  0.00     0.206 C
BRANCH  10  15
HETATM   15  O4  UNL     1     -22.236   2.222 101.823  1.00  0.00    -0.382 OA
HETATM   16  C11 UNL     1     -23.306   1.394 101.715  1.00  0.00     0.202 C
ENDBRANCH  10  15
ENDBRANCH   4  10
BRANCH   3  17
HETATM   17  O2  UNL     1     -24.091   4.849  99.420  1.00  0.00    -0.298 OA
BRANCH  17  18
HETATM   18  C7  UNL     1     -24.382   3.597  98.922  1.00  0.00     0.360 C
HETATM   19  O3  UNL     1     -25.597   3.235  98.974  1.00  0.00    -0.239 OA
HETATM   20  N1  UNL     1     -23.376   2.741  98.374  1.00  0.00    -0.341 N
HETATM   21  C8  UNL     1     -23.703   1.424  97.854  1.00  0.00     0.151 C
ATOM     22  H1  UNL     1     -22.408   3.062  98.346  1.00  0.00     0.164 HD
ENDBRANCH  17  18
ENDBRANCH   3  17
BRANCH   1  23
HETATM   23  C3  UNL     1     -24.620   8.297 102.056  1.00  0.00     0.148 C
BRANCH  23  24
HETATM   24  C2  UNL     1     -24.604   9.074 100.756  1.00  0.00     0.029 C
HETATM   25  C1  UNL     1     -23.672  10.276 100.858  1.00  0.00     0.007 C
ENDBRANCH  23  24
BRANCH  23  26
HETATM   26  O1  UNL     1     -25.787   8.542 102.746  1.00  0.00    -0.393 OA
ATOM     27  H1  UNL     1     -25.759   9.401 103.150  1.00  0.00     0.210 HD
ENDBRANCH  23  26
ENDBRANCH   1  23
TORSDOF 7
ENDMDL