MODEL 2
REMARK VINA RESULT: -6.774192782      3.302      5.328
REMARK  8 active torsions:
REMARK  status: ('A' for Active; 'I' for Inactive)
REMARK    1  A    between atoms: C2_2  and  O1_3
REMARK    2  A    between atoms: C2_2  and  C3_5
REMARK    3  A    between atoms: C3_5  and  C4_6
REMARK    4  A    between atoms: C4_6  and  C5_7
REMARK    5  A    between atoms: C5_7  and  O3_9
REMARK    6  A    between atoms: O3_9  and  C6_10
REMARK    7  A    between atoms: C17_22  and  O5_23
REMARK    8  A    between atoms: C17_22  and  O6_25
ROOT
HETATM    1  C6  UNL     1     -21.237   6.655 104.432  1.00  0.00     0.170 C
HETATM    2  C7  UNL     1     -21.529   5.863 105.638  1.00  0.00     0.068 C
HETATM    3  C8  UNL     1     -21.957   4.571 104.923  1.00  0.00     0.132 C
HETATM    4  O4  UNL     1     -20.934   4.462 103.954  1.00  0.00    -0.371 OA
HETATM    5  C9  UNL     1     -21.532   5.569 103.375  1.00  0.00     0.103 C
HETATM    6  C10 UNL     1     -22.838   5.046 103.818  1.00  0.00     0.056 C
HETATM    7  C11 UNL     1     -23.479   3.977 103.072  1.00  0.00    -0.009 C
HETATM    8  C12 UNL     1     -23.663   2.751 103.973  1.00  0.00     0.010 C
HETATM    9  C13 UNL     1     -22.875   3.502 101.811  1.00  0.00     0.014 C
HETATM   10  C14 UNL     1     -22.407   4.540 100.854  1.00  0.00     0.049 C
HETATM   11  C15 UNL     1     -22.685   5.952 101.285  1.00  0.00     0.023 C
HETATM   12  C16 UNL     1     -21.326   5.906 101.993  1.00  0.00     0.086 C
HETATM   13  C17 UNL     1     -20.926   4.772 101.103  1.00  0.00     0.169 C
ENDROOT
BRANCH   1  14
HETATM   14  O3  UNL     1     -20.094   7.324 104.249  1.00  0.00    -0.313 OA
BRANCH  14  15
HETATM   15  C5  UNL     1     -19.317   8.035 105.136  1.00  0.00     0.259 C
HETATM   16  O2  UNL     1     -19.337   7.547 106.273  1.00  0.00    -0.265 OA
BRANCH  15  17
HETATM   17  C4  UNL     1     -18.545   9.245 104.778  1.00  0.00     0.113 C
BRANCH  17  18
HETATM   18  C3  UNL     1     -17.339   9.299 105.720  1.00  0.00     0.041 C
BRANCH  18  19
HETATM   19  C2  UNL     1     -16.095   9.677 104.929  1.00  0.00     0.114 C
HETATM   20  C1  UNL     1     -16.554   9.954 103.500  1.00  0.00     0.039 C
BRANCH  19  21
HETATM   21  O1  UNL     1     -15.529  10.838 105.404  1.00  0.00    -0.396 OA
ATOM     22  H1  UNL     1     -15.128  10.631 106.240  1.00  0.00     0.210 HD
ENDBRANCH  19  21
ENDBRANCH  18  19
ENDBRANCH  17  18
ENDBRANCH  15  17
ENDBRANCH  14  15
ENDBRANCH   1  14
BRANCH  13  23
HETATM   23  O5  UNL     1     -20.266   3.774 101.775  1.00  0.00    -0.365 OA
ATOM     24  H5  UNL     1     -19.998   3.028 101.252  1.00  0.00     0.213 HD
ENDBRANCH  13  23
BRANCH  13  25
HETATM   25  O6  UNL     1     -20.279   5.249  99.953  1.00  0.00    -0.365 OA
ATOM     26  H6  UNL     1     -19.363   4.996  99.938  1.00  0.00     0.213 HD
ENDBRANCH  13  25
TORSDOF 8
ENDMDL