MODEL 1
REMARK VINA RESULT: -6.254701876      0.000      0.000
REMARK  7 active torsions:
REMARK  status: ('A' for Active; 'I' for Inactive)
REMARK    1  A    between atoms: C2_2  and  O1_3
REMARK    2  A    between atoms: O1_3  and  C3_4
REMARK    3  A    between atoms: C3_4  and  C4_6
REMARK    4  A    between atoms: C6_8  and  O3_10
REMARK    5  A    between atoms: C8_12  and  N1_13
REMARK       I    between atoms: N1_13  and  C9_15
REMARK    6  A    between atoms: C14_21  and  O5_22
REMARK    7  A    between atoms: C16_24  and  O6_25
ROOT
HETATM    1  C4  UNL     1     -22.484   4.636 102.031  1.00  0.00     0.084 C
HETATM    2  C5  UNL     1     -23.951   4.326 102.255  1.00  0.00     0.062 C
HETATM    3  C6  UNL     1     -24.669   5.648 102.413  1.00  0.00     0.076 C
HETATM    4  C7  UNL     1     -25.908   5.697 101.533  1.00  0.00     0.048 C
HETATM    5  C8  UNL     1     -23.663   6.633 101.914  1.00  0.00     0.123 C
HETATM    6  C11 UNL     1     -22.314   6.061 102.376  1.00  0.00     0.032 C
HETATM    7  C12 UNL     1     -21.979   6.425 103.758  1.00  0.00     0.011 C
HETATM    8  C13 UNL     1     -21.415   5.392 104.649  1.00  0.00     0.035 C
HETATM    9  C14 UNL     1     -21.662   3.968 104.292  1.00  0.00     0.150 C
HETATM   10  C16 UNL     1     -21.658   3.667 102.829  1.00  0.00     0.166 C
ENDROOT
BRANCH   1  11
HETATM   11  C3  UNL     1     -22.140   4.402 100.605  1.00  0.00     0.270 C
HETATM   12  O2  UNL     1     -21.147   5.007 100.132  1.00  0.00    -0.264 OA
BRANCH  11  13
HETATM   13  O1  UNL     1     -22.847   3.560  99.771  1.00  0.00    -0.321 OA
BRANCH  13  14
HETATM   14  C2  UNL     1     -23.206   3.928  98.455  1.00  0.00     0.174 C
HETATM   15  C1  UNL     1     -24.138   5.102  98.406  1.00  0.00     0.034 C
ENDBRANCH  13  14
ENDBRANCH  11  13
ENDBRANCH   1  11
BRANCH  10  16
HETATM   16  O6  UNL     1     -20.349   3.589 102.321  1.00  0.00    -0.392 OA
ATOM     17  H6  UNL     1     -19.889   2.841 102.684  1.00  0.00     0.210 HD
ENDBRANCH  10  16
BRANCH   3  18
HETATM   18  O3  UNL     1     -25.061   5.810 103.717  1.00  0.00    -0.388 OA
ATOM     19  H3  UNL     1     -25.946   6.155 103.746  1.00  0.00     0.210 HD
ENDBRANCH   3  18
BRANCH   5  20
HETATM   20  N1  UNL     1     -23.879   7.979 102.283  1.00  0.00    -0.353 N
HETATM   21  C9  UNL     1     -24.080   8.963 101.282  1.00  0.00     0.214 C
HETATM   22  C10 UNL     1     -24.313  10.394 101.587  1.00  0.00     0.117 C
HETATM   23  O4  UNL     1     -24.069   8.651 100.043  1.00  0.00    -0.274 OA
ATOM     24  H1  UNL     1     -23.890   8.244 103.268  1.00  0.00     0.163 HD
ENDBRANCH   5  20
BRANCH   9  25
HETATM   25  O5  UNL     1     -20.698   3.135 104.868  1.00  0.00    -0.388 OA
HETATM   26  C15 UNL     1     -21.191   2.395 105.929  1.00  0.00     0.202 C
ENDBRANCH   9  25
TORSDOF 7
ENDMDL