MODEL 2
REMARK VINA RESULT: -6.543526543      2.073      3.356
REMARK  7 active torsions:
REMARK  status: ('A' for Active; 'I' for Inactive)
REMARK    1  A    between atoms: C8_10  and  O3_11
REMARK    2  A    between atoms: C8_10  and  C9_13
REMARK    3  A    between atoms: C9_13  and  C10_14
REMARK    4  A    between atoms: C10_14  and  C11_15
REMARK    5  A    between atoms: C11_15  and  O4_16
REMARK    6  A    between atoms: C15_21  and  C16_22
REMARK    7  A    between atoms: C16_22  and  O5_23
ROOT
HETATM    1  O1  UNL     1     -20.811   6.567 103.251  1.00  0.00    -0.298 OA
HETATM    2  C1  UNL     1     -21.488   5.574 103.094  1.00  0.00     0.128 C
HETATM    3  C2  UNL     1     -21.840   4.687 104.236  1.00  0.00     0.086 C
HETATM    4  C3  UNL     1     -22.900   3.707 103.710  1.00  0.00     0.040 C
HETATM    5  C4  UNL     1     -23.993   4.477 103.076  1.00  0.00     0.005 C
HETATM    6  C5  UNL     1     -25.335   3.823 103.005  1.00  0.00     0.013 C
HETATM    7  C6  UNL     1     -25.402   2.437 103.593  1.00  0.00     0.082 C
HETATM    8  C7  UNL     1     -24.607   2.297 104.824  1.00  0.00     0.162 C
HETATM    9  O2  UNL     1     -25.146   1.702 105.738  1.00  0.00    -0.295 OA
HETATM   10  C8  UNL     1     -23.276   2.853 104.874  1.00  0.00     0.131 C
HETATM   11  C12 UNL     1     -23.524   5.046 101.773  1.00  0.00    -0.008 C
HETATM   12  C13 UNL     1     -23.844   4.294 100.541  1.00  0.00     0.015 C
HETATM   13  C14 UNL     1     -24.834   5.032  99.689  1.00  0.00     0.035 C
HETATM   14  C15 UNL     1     -24.337   6.387  99.342  1.00  0.00     0.145 C
HETATM   15  O6  UNL     1     -23.542   6.917 100.359  1.00  0.00    -0.383 OA
HETATM   16  C17 UNL     1     -24.004   6.503 101.611  1.00  0.00     0.178 C
HETATM   17  C18 UNL     1     -21.984   5.218 101.776  1.00  0.00     0.090 C
ENDROOT
BRANCH  10  18
HETATM   18  O3  UNL     1     -22.382   1.741 104.833  1.00  0.00    -0.381 OA
ATOM     19  H3  UNL     1     -22.639   1.183 105.558  1.00  0.00     0.211 HD
ENDBRANCH  10  18
BRANCH  10  20
HETATM   20  C9  UNL     1     -22.987   3.470 106.212  1.00  0.00     0.128 C
BRANCH  20  21
HETATM   21  C10 UNL     1     -22.448   2.921 107.243  1.00  0.00    -0.154 C
BRANCH  21  22
HETATM   22  C11 UNL     1     -21.855   2.316 108.375  1.00  0.00     0.244 C
BRANCH  22  23
HETATM   23  O4  UNL     1     -22.776   1.730 109.290  1.00  0.00    -0.390 OA
ATOM     24  H4  UNL     1     -22.838   0.783 109.242  1.00  0.00     0.210 HD
ENDBRANCH  22  23
ENDBRANCH  21  22
ENDBRANCH  20  21
ENDBRANCH  10  20
BRANCH  14  25
HETATM   25  C16 UNL     1     -25.474   7.389  99.175  1.00  0.00     0.196 C
BRANCH  25  26
HETATM   26  O5  UNL     1     -25.426   7.987  97.921  1.00  0.00    -0.398 OA
ATOM     27  H5  UNL     1     -25.379   8.932  98.000  1.00  0.00     0.209 HD
ENDBRANCH  25  26
ENDBRANCH  14  25
TORSDOF 7
ENDMDL