MODEL 3
REMARK VINA RESULT: -6.826771386      0.953      1.268
REMARK  4 active torsions:
REMARK  status: ('A' for Active; 'I' for Inactive)
REMARK    1  A    between atoms: O1_2  and  C2_3
REMARK    2  A    between atoms: C2_3  and  C3_4
REMARK    3  A    between atoms: C3_4  and  N1_5
REMARK       I    between atoms: N1_5  and  C4_7
REMARK       I    between atoms: C4_7  and  N5_15
REMARK       I    between atoms: N2_8  and  C5_10
REMARK    4  A    between atoms: N5_15  and  C6_17
ROOT
HETATM    1  N1  UNL     1     -22.822   7.087 102.720  1.00  0.00    -0.224 N
ATOM      2  H1  UNL     1     -22.639   8.088 102.785  1.00  0.00     0.177 HD
HETATM    3  C4  UNL     1     -23.943   6.698 101.961  1.00  0.00     0.678 C
HETATM    4  N2  UNL     1     -24.764   5.769 102.204  1.00  0.00    -0.164 N
ATOM      5  H2  UNL     1     -25.504   5.664 101.510  1.00  0.00     0.187 HD
HETATM    6  C5  UNL     1     -24.827   4.867 103.258  1.00  0.00     0.200 C
HETATM    7  N3  UNL     1     -24.292   3.682 103.085  1.00  0.00    -0.373 N
ATOM      8  H31 UNL     1     -24.339   3.019 103.859  1.00  0.00     0.158 HD
ATOM      9  H32 UNL     1     -23.861   3.511 102.176  1.00  0.00     0.158 HD
HETATM   10  N4  UNL     1     -25.424   5.104 104.518  1.00  0.00    -0.063 NA
HETATM   11  N5  UNL     1     -24.192   7.445 100.748  1.00  0.00    -0.191 N
ATOM     12  H5  UNL     1     -23.410   7.883 100.261  1.00  0.00     0.181 HD
ENDROOT
BRANCH  11  13
HETATM   13  C6  UNL     1     -25.546   7.586 100.202  1.00  0.00     0.182 C
HETATM   14  C7  UNL     1     -26.419   8.112 101.281  1.00  0.00     0.096 C
HETATM   15  C8  UNL     1     -27.248   9.320 100.821  1.00  0.00     0.126 C
HETATM   16  C9  UNL     1     -27.892   8.828  99.515  1.00  0.00     0.041 C
HETATM   17  O2  UNL     1     -26.441  10.374 100.482  1.00  0.00    -0.385 OA
HETATM   18  C10 UNL     1     -26.704   9.162  98.600  1.00  0.00     0.046 C
HETATM   19  C11 UNL     1     -26.477  10.591  99.129  1.00  0.00     0.175 C
HETATM   20  C12 UNL     1     -25.488   8.386  98.947  1.00  0.00     0.187 C
HETATM   21  O3  UNL     1     -25.112   7.446  97.993  1.00  0.00    -0.345 OA
HETATM   22  C13 UNL     1     -25.543   6.218  98.421  1.00  0.00     0.160 C
HETATM   23  C14 UNL     1     -24.424   5.198  98.232  1.00  0.00     0.078 C
HETATM   24  C15 UNL     1     -26.673   5.776  97.520  1.00  0.00     0.078 C
HETATM   25  O4  UNL     1     -25.933   6.320  99.748  1.00  0.00    -0.322 OA
ENDBRANCH  11  13
BRANCH   1  26
HETATM   26  C3  UNL     1     -21.911   6.218 103.411  1.00  0.00     0.164 C
BRANCH  26  27
HETATM   27  C2  UNL     1     -21.095   6.986 104.451  1.00  0.00     0.187 C
BRANCH  27  28
HETATM   28  O1  UNL     1     -20.896   6.273 105.613  1.00  0.00    -0.394 OA
HETATM   29  C1  UNL     1     -21.756   5.222 105.817  1.00  0.00     0.201 C
ENDBRANCH  27  28
ENDBRANCH  26  27
ENDBRANCH   1  26
TORSDOF 4
ENDMDL