MODEL 3
REMARK VINA RESULT: -6.252722569      1.171      1.236
REMARK  6 active torsions:
REMARK  status: ('A' for Active; 'I' for Inactive)
REMARK    1  A    between atoms: C2_2  and  C4_4
REMARK    2  A    between atoms: C10_13  and  N1_14
REMARK       I    between atoms: N1_14  and  C11_16
REMARK    3  A    between atoms: C11_16  and  C12_18
REMARK    4  A    between atoms: C12_18  and  C13_19
REMARK    5  A    between atoms: C15_21  and  O5_22
REMARK    6  A    between atoms: C16_24  and  O6_25
ROOT
HETATM    1  C4  UNL     1     -25.236   9.025 102.184  1.00  0.00     0.184 C
HETATM    2  O1  UNL     1     -25.849   7.900 102.712  1.00  0.00    -0.346 OA
HETATM    3  C5  UNL     1     -25.531   6.734 102.078  1.00  0.00     0.297 C
HETATM    4  O2  UNL     1     -26.220   5.610 102.449  1.00  0.00    -0.323 OA
HETATM    5  C6  UNL     1     -26.256   4.761 101.330  1.00  0.00     0.160 C
HETATM    6  C7  UNL     1     -26.555   3.370 101.787  1.00  0.00     0.078 C
HETATM    7  C8  UNL     1     -27.401   5.238 100.462  1.00  0.00     0.078 C
HETATM    8  O3  UNL     1     -25.093   4.867 100.577  1.00  0.00    -0.353 OA
HETATM    9  C9  UNL     1     -23.964   5.073 101.329  1.00  0.00     0.210 C
HETATM   10  C10 UNL     1     -24.075   6.440 101.986  1.00  0.00     0.132 C
HETATM   11  C15 UNL     1     -23.559   7.526 101.023  1.00  0.00     0.184 C
HETATM   12  C16 UNL     1     -23.874   8.833 101.687  1.00  0.00     0.182 C
ENDROOT
BRANCH  10  13
HETATM   13  N1  UNL     1     -23.326   6.441 103.194  1.00  0.00    -0.343 N
HETATM   14  C11 UNL     1     -21.938   6.240 103.365  1.00  0.00     0.218 C
HETATM   15  O4  UNL     1     -21.148   6.026 102.419  1.00  0.00    -0.274 OA
ATOM     16  H1  UNL     1     -23.860   6.608 104.048  1.00  0.00     0.163 HD
BRANCH  14  17
HETATM   17  C12 UNL     1     -21.315   6.273 104.740  1.00  0.00     0.102 C
BRANCH  17  18
HETATM   18  C13 UNL     1     -20.507   7.537 104.901  1.00  0.00     0.005 C
HETATM   19  C14 UNL     1     -19.998   7.598 106.317  1.00  0.00     0.005 C
ENDBRANCH  17  18
ENDBRANCH  14  17
ENDBRANCH  10  13
BRANCH  11  20
HETATM   20  O5  UNL     1     -24.253   7.309  99.837  1.00  0.00    -0.390 OA
ATOM     21  H5  UNL     1     -23.952   7.993  99.250  1.00  0.00     0.210 HD
ENDBRANCH  11  20
BRANCH  12  22
HETATM   22  O6  UNL     1     -23.353   9.922 100.976  1.00  0.00    -0.390 OA
ATOM     23  H6  UNL     1     -23.997  10.418 100.484  1.00  0.00     0.210 HD
ENDBRANCH  12  22
BRANCH   1  24
HETATM   24  C2  UNL     1     -26.226   9.612 101.280  1.00  0.00    -0.062 C
HETATM   25  C1  UNL     1     -26.071  10.071 100.074  1.00  0.00     0.016 C
HETATM   26  C3  UNL     1     -27.629   9.687 101.855  1.00  0.00     0.045 C
ENDBRANCH   1  24
TORSDOF 6
ENDMDL