MODEL 3
REMARK VINA RESULT: -6.589992073      2.083      5.077
REMARK  7 active torsions:
REMARK  status: ('A' for Active; 'I' for Inactive)
REMARK    1  A    between atoms: C6_8  and  C7_9
REMARK    2  A    between atoms: C7_9  and  C8_10
REMARK    3  A    between atoms: C8_10  and  N3_17
REMARK    4  A    between atoms: N1_11  and  O3_13
REMARK    5  A    between atoms: O3_13  and  C9_14
REMARK    6  A    between atoms: N3_17  and  C10_19
REMARK    7  A    between atoms: C15_24  and  O5_25
ROOT
HETATM    1  C8  UNL     1     -21.438   6.673 104.261  1.00  0.00     0.101 C
HETATM    2  N1  UNL     1     -20.501   7.545 104.209  1.00  0.00    -0.244 N
ATOM      3  H1  UNL     1     -20.495   8.245 103.467  1.00  0.00     0.196 HD
ENDROOT
BRANCH   1   4
HETATM    4  C7  UNL     1     -21.517   5.632 105.298  1.00  0.00     0.113 C
BRANCH   4   5
HETATM    5  C6  UNL     1     -22.427   4.490 105.028  1.00  0.00     0.162 C
HETATM    6  C2  UNL     1     -22.276   3.287 105.900  1.00  0.00     0.080 C
HETATM    7  C1  UNL     1     -21.111   2.394 105.545  1.00  0.00     0.048 C
HETATM    8  C3  UNL     1     -22.235   3.689 107.367  1.00  0.00     0.048 C
HETATM    9  O1  UNL     1     -23.407   2.440 105.810  1.00  0.00    -0.376 OA
HETATM   10  C4  UNL     1     -24.121   2.687 104.668  1.00  0.00     0.195 C
HETATM   11  C5  UNL     1     -24.685   4.088 104.766  1.00  0.00     0.194 C
HETATM   12  O2  UNL     1     -23.746   4.969 105.243  1.00  0.00    -0.380 OA
ENDBRANCH   4   5
ENDBRANCH   1   4
BRANCH   1  13
HETATM   13  N3  UNL     1     -22.445   6.782 103.260  1.00  0.00    -0.371 N
ATOM     14  H3  UNL     1     -23.364   7.123 103.543  1.00  0.00     0.161 HD
BRANCH  13  15
HETATM   15  C10 UNL     1     -22.250   6.443 101.873  1.00  0.00     0.111 C
HETATM   16  C11 UNL     1     -23.638   6.176 101.273  1.00  0.00     0.028 C
HETATM   17  C12 UNL     1     -23.516   5.850  99.822  1.00  0.00     0.002 C
HETATM   18  C13 UNL     1     -22.694   4.587  99.693  1.00  0.00     0.003 C
HETATM   19  C14 UNL     1     -22.217   4.087 101.040  1.00  0.00     0.034 C
HETATM   20  C15 UNL     1     -21.456   5.165 101.790  1.00  0.00     0.140 C
BRANCH  20  21
HETATM   21  O5  UNL     1     -20.237   5.410 101.137  1.00  0.00    -0.394 OA
ATOM     22  H5  UNL     1     -20.366   5.373 100.197  1.00  0.00     0.210 HD
ENDBRANCH  20  21
ENDBRANCH  13  15
ENDBRANCH   1  13
BRANCH   2  23
HETATM   23  O3  UNL     1     -19.519   7.536 105.140  1.00  0.00    -0.182 OA
BRANCH  23  24
HETATM   24  C9  UNL     1     -18.516   8.474 105.246  1.00  0.00     0.394 C
HETATM   25  N2  UNL     1     -17.474   8.262 106.175  1.00  0.00    -0.031 NA
HETATM   26  O4  UNL     1     -18.571   9.484 104.509  1.00  0.00    -0.240 OA
ENDBRANCH  23  24
ENDBRANCH   2  23
TORSDOF 7
ENDMDL