MODEL 1
REMARK VINA RESULT: -5.775088706      0.000      0.000
REMARK  6 active torsions:
REMARK  status: ('A' for Active; 'I' for Inactive)
REMARK    1  A    between atoms: C1_2  and  C2_4
REMARK    2  A    between atoms: N1_9  and  C6_10
REMARK    3  A    between atoms: C6_10  and  C7_11
REMARK       I    between atoms: C7_11  and  N2_13
REMARK    4  A    between atoms: C12_18  and  C13_19
REMARK    5  A    between atoms: C13_19  and  O4_20
REMARK    6  A    between atoms: N3_22  and  O5_24
ROOT
HETATM    1  C7  UNL     1     -27.230   7.356  99.977  1.00  0.00     0.249 C
HETATM    2  O3  UNL     1     -28.183   6.680 100.438  1.00  0.00    -0.271 OA
HETATM    3  N2  UNL     1     -27.401   8.746  99.815  1.00  0.00    -0.338 N
HETATM    4  C8  UNL     1     -28.698   9.303 100.239  1.00  0.00     0.127 C
HETATM    5  C9  UNL     1     -29.442   9.780  98.987  1.00  0.00     0.020 C
HETATM    6  C10 UNL     1     -28.446  10.389  98.008  1.00  0.00     0.004 C
HETATM    7  C11 UNL     1     -27.279  10.914  98.807  1.00  0.00     0.034 C
HETATM    8  C12 UNL     1     -26.470   9.689  99.270  1.00  0.00     0.163 C
ENDROOT
BRANCH   1   9
HETATM    9  C6  UNL     1     -25.977   6.710  99.620  1.00  0.00     0.376 C
BRANCH   9  10
HETATM   10  N1  UNL     1     -25.232   6.132 100.736  1.00  0.00     0.113 N
HETATM   11  C2  UNL     1     -23.864   6.622 100.723  1.00  0.00     0.332 C
HETATM   12  C3  UNL     1     -22.824   5.654 100.317  1.00  0.00     0.121 C
HETATM   13  S1  UNL     1     -23.363   4.631  98.889  1.00  0.00    -0.165 SA
HETATM   14  C4  UNL     1     -25.058   4.094  99.367  1.00  0.00     0.104 C
HETATM   15  C5  UNL     1     -25.269   4.689 100.717  1.00  0.00     0.284 C
BRANCH  11  16
HETATM   16  C1  UNL     1     -23.548   7.142 102.077  1.00  0.00     0.208 C
HETATM   17  O1  UNL     1     -23.673   8.352 102.387  1.00  0.00    -0.646 OA
HETATM   18  O2  UNL     1     -23.083   6.290 103.094  1.00  0.00    -0.646 OA
ENDBRANCH  11  16
ENDBRANCH   9  10
ENDBRANCH   1   9
BRANCH   8  19
HETATM   19  C13 UNL     1     -25.362  10.091 100.130  1.00  0.00     0.159 C
HETATM   20  N3  UNL     1     -24.136  10.045  99.739  1.00  0.00    -0.249 N
ATOM     21  H3  UNL     1     -23.920   9.716  98.798  1.00  0.00     0.196 HD
BRANCH  19  22
HETATM   22  O4  UNL     1     -25.617  10.541 101.411  1.00  0.00    -0.347 OA
ATOM     23  H4  UNL     1     -25.052  10.273 102.126  1.00  0.00     0.219 HD
ENDBRANCH  19  22
BRANCH  20  24
HETATM   24  O5  UNL     1     -23.115  10.430 100.570  1.00  0.00    -0.288 OA
ATOM     25  H5  UNL     1     -22.220  10.471 100.257  1.00  0.00     0.244 HD
ENDBRANCH  20  24
ENDBRANCH   8  19
TORSDOF 6
ENDMDL