MODEL 5
REMARK VINA RESULT: -6.263505050      2.150      2.877
REMARK  8 active torsions:
REMARK  status: ('A' for Active; 'I' for Inactive)
REMARK    1  A    between atoms: C2_2  and  C3_3
REMARK    2  A    between atoms: C4_4  and  O1_5
REMARK    3  A    between atoms: C5_7  and  O2_8
REMARK    4  A    between atoms: C6_10  and  O3_11
REMARK    5  A    between atoms: C11_17  and  O4_18
REMARK    6  A    between atoms: O4_18  and  C12_19
REMARK    7  A    between atoms: C12_19  and  C13_21
REMARK    8  A    between atoms: C16_24  and  O6_25
ROOT
HETATM    1  C3  UNL     1     -25.547   6.377  99.820  1.00  0.00     0.046 C
HETATM    2  C4  UNL     1     -25.294   7.513  98.851  1.00  0.00     0.157 C
HETATM    3  C5  UNL     1     -26.303   8.590  99.010  1.00  0.00     0.176 C
HETATM    4  C6  UNL     1     -26.558   8.937 100.421  1.00  0.00     0.158 C
HETATM    5  C7  UNL     1     -25.720   8.266 101.457  1.00  0.00     0.052 C
HETATM    6  C8  UNL     1     -24.425   8.928 101.694  1.00  0.00    -0.078 C
HETATM    7  C9  UNL     1     -24.454  10.420 101.854  1.00  0.00     0.043 C
HETATM    8  C10 UNL     1     -23.280   8.298 101.771  1.00  0.00     0.011 C
HETATM    9  C11 UNL     1     -23.210   6.852 101.621  1.00  0.00     0.184 C
HETATM   10  C16 UNL     1     -24.493   6.148 102.002  1.00  0.00     0.159 C
HETATM   11  C18 UNL     1     -25.640   6.778 101.243  1.00  0.00     0.038 C
ENDROOT
BRANCH   9  12
HETATM   12  O4  UNL     1     -22.081   6.252 102.203  1.00  0.00    -0.306 OA
BRANCH  12  13
HETATM   13  C12 UNL     1     -21.280   6.796 103.158  1.00  0.00     0.283 C
HETATM   14  O5  UNL     1     -20.371   7.582 102.786  1.00  0.00    -0.260 OA
BRANCH  13  15
HETATM   15  C13 UNL     1     -21.451   6.495 104.566  1.00  0.00     0.078 C
HETATM   16  C14 UNL     1     -21.741   5.269 104.957  1.00  0.00    -0.025 C
HETATM   17  C15 UNL     1     -21.922   4.944 106.416  1.00  0.00     0.036 C
ENDBRANCH  13  15
ENDBRANCH  12  13
ENDBRANCH   9  12
BRANCH  10  18
HETATM   18  O6  UNL     1     -24.677   5.987 103.325  1.00  0.00    -0.387 OA
HETATM   19  C17 UNL     1     -25.445   4.943 103.753  1.00  0.00     0.202 C
ENDBRANCH  10  18
BRANCH   1  20
HETATM   20  C2  UNL     1     -26.674   5.604  99.267  1.00  0.00    -0.029 C
HETATM   21  C1  UNL     1     -27.622   4.990  99.910  1.00  0.00     0.007 C
ENDBRANCH   1  20
BRANCH   4  22
HETATM   22  O3  UNL     1     -27.916   8.745 100.749  1.00  0.00    -0.392 OA
ATOM     23  H3  UNL     1     -28.449   9.457 100.416  1.00  0.00     0.210 HD
ENDBRANCH   4  22
BRANCH   2  24
HETATM   24  O1  UNL     1     -25.499   6.954  97.564  1.00  0.00    -0.392 OA
ATOM     25  H1  UNL     1     -25.129   6.081  97.611  1.00  0.00     0.210 HD
ENDBRANCH   2  24
BRANCH   3  26
HETATM   26  O2  UNL     1     -27.506   8.158  98.412  1.00  0.00    -0.390 OA
ATOM     27  H2  UNL     1     -28.228   8.459  98.951  1.00  0.00     0.210 HD
ENDBRANCH   3  26
TORSDOF 8
ENDMDL