MODEL 1
REMARK VINA RESULT: -7.021166429      0.000      0.000
REMARK  6 active torsions:
REMARK  status: ('A' for Active; 'I' for Inactive)
REMARK    1  A    between atoms: O1_2  and  C2_3
REMARK    2  A    between atoms: C4_5  and  O2_6
REMARK    3  A    between atoms: O2_6  and  C5_7
REMARK    4  A    between atoms: C5_7  and  C6_8
REMARK    5  A    between atoms: C11_14  and  C12_15
REMARK    6  A    between atoms: C16_22  and  O4_23
ROOT
HETATM    1  C6  UNL     1     -21.501   5.888 103.570  1.00  0.00     0.152 C
HETATM    2  O3  UNL     1     -20.842   5.325 102.477  1.00  0.00    -0.377 OA
HETATM    3  C7  UNL     1     -22.052   4.812 101.947  1.00  0.00     0.134 C
HETATM    4  C8  UNL     1     -22.740   5.917 102.739  1.00  0.00     0.046 C
HETATM    5  C9  UNL     1     -22.888   7.008 101.730  1.00  0.00     0.010 C
HETATM    6  C10 UNL     1     -23.342   6.220 100.505  1.00  0.00     0.010 C
HETATM    7  C11 UNL     1     -22.282   5.109 100.504  1.00  0.00     0.048 C
ENDROOT
BRANCH   7   8
HETATM    8  C12 UNL     1     -22.879   3.951  99.744  1.00  0.00     0.220 C
HETATM    9  N1  UNL     1     -23.876   4.369  98.789  1.00  0.00    -0.068 N
HETATM   10  C13 UNL     1     -24.403   3.152  98.173  1.00  0.00     0.233 C
ATOM     11  H12 UNL     1     -24.600   4.961  99.196  1.00  0.00     0.277 HD
ATOM     12  H11 UNL     1     -23.525   5.045  98.110  1.00  0.00     0.277 HD
HETATM   13  C14 UNL     1     -25.414   2.574  99.106  1.00  0.00     0.030 C
HETATM   14  C15 UNL     1     -25.061   2.994 100.529  1.00  0.00     0.035 C
HETATM   15  C16 UNL     1     -23.539   3.012 100.720  1.00  0.00     0.149 C
BRANCH  15  16
HETATM   16  O4  UNL     1     -23.023   1.730 100.544  1.00  0.00    -0.393 OA
ATOM     17  H4  UNL     1     -23.238   1.200 101.301  1.00  0.00     0.210 HD
ENDBRANCH  15  16
ENDBRANCH   7   8
BRANCH   1  18
HETATM   18  C5  UNL     1     -20.986   7.230 104.030  1.00  0.00     0.200 C
BRANCH  18  19
HETATM   19  O2  UNL     1     -20.031   6.993 105.008  1.00  0.00    -0.381 OA
BRANCH  19  20
HETATM   20  C4  UNL     1     -19.486   8.138 105.544  1.00  0.00     0.150 C
HETATM   21  C3  UNL     1     -18.694   8.947 104.565  1.00  0.00     0.094 C
HETATM   22  C2  UNL     1     -17.456   9.289 105.368  1.00  0.00     0.261 C
HETATM   23  O5  UNL     1     -17.234   8.097 106.058  1.00  0.00    -0.359 OA
HETATM   24  C17 UNL     1     -18.498   7.884 106.648  1.00  0.00     0.203 C
BRANCH  22  25
HETATM   25  O1  UNL     1     -16.377   9.604 104.550  1.00  0.00    -0.366 OA
HETATM   26  C1  UNL     1     -16.825   9.835 103.255  1.00  0.00     0.204 C
ENDBRANCH  22  25
ENDBRANCH  19  20
ENDBRANCH  18  19
ENDBRANCH   1  18
TORSDOF 6
ENDMDL