MODEL 5
REMARK VINA RESULT: -5.556683975      1.202      1.290
REMARK  6 active torsions:
REMARK  status: ('A' for Active; 'I' for Inactive)
REMARK    1  A    between atoms: O1_2  and  C2_3
REMARK    2  A    between atoms: C7_9  and  C8_10
REMARK    3  A    between atoms: C8_10  and  O3_11
REMARK    4  A    between atoms: C9_13  and  O4_14
REMARK    5  A    between atoms: C10_16  and  O5_17
REMARK    6  A    between atoms: C12_19  and  O6_20
ROOT
HETATM    1  C2  UNL     1     -23.668   7.647 101.512  1.00  0.00     0.146 C
HETATM    2  C3  UNL     1     -25.063   7.231 101.768  1.00  0.00     0.004 C
HETATM    3  C4  UNL     1     -25.539   6.603 100.714  1.00  0.00     0.012 C
HETATM    4  C5  UNL     1     -24.510   6.522  99.611  1.00  0.00     0.110 C
HETATM    5  C6  UNL     1     -23.610   7.708 100.008  1.00  0.00     0.081 C
HETATM    6  O2  UNL     1     -25.104   6.827  98.454  1.00  0.00    -0.363 OA
HETATM    7  C7  UNL     1     -25.302   5.893  97.510  1.00  0.00     0.178 C
HETATM    8  C9  UNL     1     -25.178   4.474  98.003  1.00  0.00     0.180 C
HETATM    9  C10 UNL     1     -23.743   4.391  98.526  1.00  0.00     0.184 C
HETATM   10  C12 UNL     1     -23.735   5.286  99.749  1.00  0.00     0.188 C
ENDROOT
BRANCH  10  11
HETATM   11  O6  UNL     1     -24.198   4.512 100.812  1.00  0.00    -0.390 OA
ATOM     12  H6  UNL     1     -23.633   4.593 101.572  1.00  0.00     0.210 HD
ENDBRANCH  10  11
BRANCH   1  13
HETATM   13  O1  UNL     1     -23.365   8.876 102.096  1.00  0.00    -0.387 OA
HETATM   14  C1  UNL     1     -22.970   9.752 101.103  1.00  0.00     0.202 C
ENDBRANCH   1  13
BRANCH   7  15
HETATM   15  C8  UNL     1     -26.656   6.113  96.836  1.00  0.00     0.198 C
BRANCH  15  16
HETATM   16  O3  UNL     1     -26.581   5.671  95.526  1.00  0.00    -0.398 OA
ATOM     17  H3  UNL     1     -27.322   5.105  95.350  1.00  0.00     0.209 HD
ENDBRANCH  15  16
ENDBRANCH   7  15
BRANCH   9  18
HETATM   18  O5  UNL     1     -23.501   3.069  98.836  1.00  0.00    -0.385 OA
HETATM   19  C11 UNL     1     -22.293   2.649  98.299  1.00  0.00     0.202 C
ENDBRANCH   9  18
BRANCH   8  20
HETATM   20  O4  UNL     1     -25.443   3.542  97.045  1.00  0.00    -0.390 OA
ATOM     21  H4  UNL     1     -25.231   2.655  97.311  1.00  0.00     0.210 HD
ENDBRANCH   8  20
TORSDOF 6
ENDMDL