MODEL 1
REMARK VINA RESULT: -5.927309692      0.000      0.000
REMARK  9 active torsions:
REMARK  status: ('A' for Active; 'I' for Inactive)
REMARK    1  A    between atoms: C3_4  and  O1_5
REMARK    2  A    between atoms: C4_7  and  O2_8
REMARK    3  A    between atoms: C5_10  and  O3_11
REMARK    4  A    between atoms: C6_13  and  N2_14
REMARK    5  A    between atoms: N2_14  and  N3_16
REMARK    6  A    between atoms: N3_16  and  N4_17
REMARK    7  A    between atoms: C7_20  and  C8_21
REMARK    8  A    between atoms: C8_21  and  N5_22
REMARK    9  A    between atoms: N5_22  and  N6_24
ROOT
HETATM    1  C1  UNL     1     -18.644   1.241 106.911  1.00  0.00     0.221 C
HETATM    2  N1  UNL     1     -19.299   1.885 106.206  1.00  0.00    -0.463 NA
HETATM    3  C2  UNL     1     -20.080   2.654 105.316  1.00  0.00     0.200 C
HETATM    4  C3  UNL     1     -20.116   1.993 103.958  1.00  0.00     0.185 C
HETATM    5  C4  UNL     1     -21.463   1.531 103.509  1.00  0.00     0.180 C
HETATM    6  C5  UNL     1     -22.492   2.644 103.530  1.00  0.00     0.175 C
HETATM    7  C6  UNL     1     -22.197   3.623 104.639  1.00  0.00     0.154 C
HETATM    8  C7  UNL     1     -21.478   2.878 105.782  1.00  0.00     0.071 C
ENDROOT
BRANCH   4   9
HETATM    9  O1  UNL     1     -19.447   2.732 102.981  1.00  0.00    -0.390 OA
ATOM     10  H1  UNL     1     -19.781   2.571 102.106  1.00  0.00     0.210 HD
ENDBRANCH   4   9
BRANCH   8  11
HETATM   11  C8  UNL     1     -21.569   3.723 107.027  1.00  0.00     0.151 C
BRANCH  11  12
HETATM   12  N5  UNL     1     -21.253   2.915 108.170  1.00  0.00    -0.322 N
ATOM     13  H5  UNL     1     -20.556   3.237 108.842  1.00  0.00     0.181 HD
BRANCH  12  14
HETATM   14  N6  UNL     1     -21.823   1.827 108.347  1.00  0.00    -0.254 N
HETATM   15  N7  UNL     1     -22.285   0.923 109.077  1.00  0.00    -0.331 N
ATOM     16  H72 UNL     1     -22.074   1.287 110.007  1.00  0.00     0.178 HD
ATOM     17  H71 UNL     1     -22.753   0.029 109.223  1.00  0.00     0.178 HD
ATOM     18  H6  UNL     1     -22.017   1.498 107.401  1.00  0.00     0.207 HD
ENDBRANCH  12  14
ENDBRANCH  11  12
ENDBRANCH   8  11
BRANCH   5  19
HETATM   19  O2  UNL     1     -21.342   1.078 102.196  1.00  0.00    -0.390 OA
ATOM     20  H2  UNL     1     -21.586   1.791 101.619  1.00  0.00     0.210 HD
ENDBRANCH   5  19
BRANCH   7  21
HETATM   21  N2  UNL     1     -21.318   4.697 104.242  1.00  0.00    -0.245 N
ATOM     22  H2  UNL     1     -20.378   4.714 104.637  1.00  0.00     0.197 HD
BRANCH  21  23
HETATM   23  N3  UNL     1     -21.625   5.586 103.467  1.00  0.00    -0.248 NA
BRANCH  23  24
HETATM   24  N4  UNL     1     -22.199   6.303 102.661  1.00  0.00    -0.261 N
ATOM     25  H42 UNL     1     -22.747   5.532 102.278  1.00  0.00     0.193 HD
ATOM     26  H41 UNL     1     -22.527   7.089 102.102  1.00  0.00     0.193 HD
ENDBRANCH  23  24
ENDBRANCH  21  23
ENDBRANCH   7  21
BRANCH   6  27
HETATM   27  O3  UNL     1     -22.633   3.250 102.285  1.00  0.00    -0.391 OA
ATOM     28  H3  UNL     1     -23.459   3.029 101.871  1.00  0.00     0.210 HD
ENDBRANCH   6  27
TORSDOF 9
ENDMDL