MODEL 1
REMARK VINA RESULT: -5.483148094      0.000      0.000
REMARK  7 active torsions:
REMARK  status: ('A' for Active; 'I' for Inactive)
REMARK    1  A    between atoms: O1_2  and  C2_3
REMARK    2  A    between atoms: C3_4  and  O2_5
REMARK    3  A    between atoms: C4_7  and  O3_8
REMARK    4  A    between atoms: C5_10  and  O4_11
REMARK    5  A    between atoms: C6_13  and  C7_14
REMARK    6  A    between atoms: C7_14  and  O5_17
REMARK    7  A    between atoms: C10_19  and  O6_20
ROOT
HETATM    1  C2  UNL     1     -25.235   6.321 100.470  1.00  0.00     0.181 C
HETATM    2  C3  UNL     1     -26.253   7.201  99.856  1.00  0.00     0.180 C
HETATM    3  C4  UNL     1     -25.762   8.046  98.724  1.00  0.00     0.178 C
HETATM    4  C5  UNL     1     -24.517   8.808  99.007  1.00  0.00     0.159 C
HETATM    5  C6  UNL     1     -23.539   8.131  99.921  1.00  0.00     0.082 C
HETATM    6  C10 UNL     1     -23.810   6.710 100.221  1.00  0.00     0.162 C
ENDROOT
BRANCH   5   7
HETATM    7  C7  UNL     1     -23.144   8.987 101.098  1.00  0.00     0.059 C
HETATM    8  C8  UNL     1     -24.257   9.546 101.913  1.00  0.00     0.046 C
HETATM    9  C9  UNL     1     -22.293   8.149 102.033  1.00  0.00     0.046 C
BRANCH   7  10
HETATM   10  O5  UNL     1     -22.316  10.017 100.645  1.00  0.00    -0.390 OA
ATOM     11  H5  UNL     1     -21.509  10.003 101.147  1.00  0.00     0.210 HD
ENDBRANCH   7  10
ENDBRANCH   5   7
BRANCH   4  12
HETATM   12  O4  UNL     1     -23.955   9.253  97.812  1.00  0.00    -0.392 OA
ATOM     13  H4  UNL     1     -23.527  10.089  97.950  1.00  0.00     0.210 HD
ENDBRANCH   4  12
BRANCH   6  14
HETATM   14  O6  UNL     1     -23.336   5.837  99.220  1.00  0.00    -0.387 OA
HETATM   15  C11 UNL     1     -22.499   4.871  99.683  1.00  0.00     0.202 C
ENDBRANCH   6  14
BRANCH   3  16
HETATM   16  O3  UNL     1     -26.793   8.901  98.331  1.00  0.00    -0.390 OA
ATOM     17  H3  UNL     1     -26.437   9.776  98.229  1.00  0.00     0.210 HD
ENDBRANCH   3  16
BRANCH   1  18
HETATM   18  O1  UNL     1     -25.456   6.297 101.845  1.00  0.00    -0.385 OA
HETATM   19  C1  UNL     1     -24.557   5.536 102.545  1.00  0.00     0.202 C
ENDBRANCH   1  18
BRANCH   2  20
HETATM   20  O2  UNL     1     -27.353   6.441  99.467  1.00  0.00    -0.390 OA
ATOM     21  H2  UNL     1     -27.349   6.334  98.523  1.00  0.00     0.210 HD
ENDBRANCH   2  20
TORSDOF 7
ENDMDL