MODEL 2
REMARK VINA RESULT: -6.009451481      2.213      5.384
REMARK  6 active torsions:
REMARK  status: ('A' for Active; 'I' for Inactive)
REMARK    1  A    between atoms: O1_1  and  C1_3
REMARK    2  A    between atoms: C1_3  and  C2_4
REMARK    3  A    between atoms: C4_8  and  C5_9
REMARK    4  A    between atoms: C5_9  and  C6_10
REMARK    5  A    between atoms: C11_16  and  O5_17
REMARK    6  A    between atoms: C12_19  and  O6_20
ROOT
HETATM    1  C2  UNL     1     -22.405   6.953 101.338  1.00  0.00     0.179 C
HETATM    2  O2  UNL     1     -23.468   6.430 100.623  1.00  0.00    -0.350 OA
HETATM    3  C3  UNL     1     -24.454   7.352 100.346  1.00  0.00     0.271 C
HETATM    4  O3  UNL     1     -25.133   6.951  99.170  1.00  0.00    -0.351 OA
HETATM    5  C4  UNL     1     -26.420   7.561  99.168  1.00  0.00     0.149 C
HETATM    6  C8  UNL     1     -26.218   9.039  99.304  1.00  0.00     0.001 C
HETATM    7  C9  UNL     1     -25.086   9.601  99.713  1.00  0.00    -0.016 C
HETATM    8  C10 UNL     1     -23.941   8.723 100.058  1.00  0.00     0.095 C
HETATM    9  C11 UNL     1     -23.102   9.286 101.184  1.00  0.00     0.162 C
HETATM   10  C12 UNL     1     -22.764   8.175 102.134  1.00  0.00     0.178 C
ENDROOT
BRANCH   5  11
HETATM   11  C5  UNL     1     -27.016   7.271  97.832  1.00  0.00     0.070 C
BRANCH  11  12
HETATM   12  C6  UNL     1     -26.732   5.930  97.257  1.00  0.00     0.148 A
HETATM   13  C7  UNL     1     -27.357   5.654  95.895  1.00  0.00     0.200 A
HETATM   14  O4  UNL     1     -25.999   5.730  96.116  1.00  0.00    -0.381 OA
ENDBRANCH  11  12
ENDBRANCH   5  11
BRANCH   1  15
HETATM   15  C1  UNL     1     -21.804   5.936 102.300  1.00  0.00     0.198 C
BRANCH  15  16
HETATM   16  O1  UNL     1     -21.220   6.547 103.397  1.00  0.00    -0.398 OA
ATOM     17  H1  UNL     1     -20.385   6.153 103.617  1.00  0.00     0.209 HD
ENDBRANCH  15  16
ENDBRANCH   1  15
BRANCH   9  18
HETATM   18  O5  UNL     1     -23.776  10.320 101.832  1.00  0.00    -0.392 OA
ATOM     19  H5  UNL     1     -24.275   9.987 102.569  1.00  0.00     0.210 HD
ENDBRANCH   9  18
BRANCH  10  20
HETATM   20  O6  UNL     1     -23.792   7.952 103.032  1.00  0.00    -0.390 OA
ATOM     21  H6  UNL     1     -23.503   7.965 103.937  1.00  0.00     0.210 HD
ENDBRANCH  10  20
TORSDOF 6
ENDMDL