MODEL 5
REMARK VINA RESULT: -5.497441749      2.810      5.737
REMARK  6 active torsions:
REMARK  status: ('A' for Active; 'I' for Inactive)
REMARK    1  A    between atoms: O1_2  and  C2_3
REMARK    2  A    between atoms: C3_5  and  C4_6
REMARK    3  A    between atoms: C4_6  and  N1_8
REMARK    4  A    between atoms: C9_12  and  O3_13
REMARK    5  A    between atoms: C10_15  and  O4_16
REMARK    6  A    between atoms: C11_18  and  O5_19
ROOT
HETATM    1  C2  UNL     1     -23.812   7.231  99.704  1.00  0.00     0.290 C
HETATM    2  O2  UNL     1     -23.476   6.409 100.699  1.00  0.00    -0.348 OA
HETATM    3  C3  UNL     1     -22.780   6.770 101.793  1.00  0.00     0.189 C
HETATM    4  C9  UNL     1     -22.867   8.193 102.238  1.00  0.00     0.180 C
HETATM    5  C10 UNL     1     -23.213   9.179 101.191  1.00  0.00     0.183 C
HETATM    6  C11 UNL     1     -23.937   8.694  99.991  1.00  0.00     0.204 C
ENDROOT
BRANCH   3   7
HETATM    7  C4  UNL     1     -21.370   6.182 101.843  1.00  0.00     0.250 C
HETATM    8  C5  UNL     1     -20.531   6.913 102.890  1.00  0.00     0.045 C
BRANCH   7   9
HETATM    9  N1  UNL     1     -21.351   4.827 102.217  1.00  0.00     0.095 N
HETATM   10  C6  UNL     1     -20.792   4.362 103.431  1.00  0.00     0.275 C
HETATM   11  C7  UNL     1     -20.394   3.073 102.713  1.00  0.00     0.060 C
HETATM   12  C8  UNL     1     -20.502   3.932 101.483  1.00  0.00     0.275 C
ENDBRANCH   7   9
ENDBRANCH   3   7
BRANCH   4  13
HETATM   13  O3  UNL     1     -23.741   8.312 103.348  1.00  0.00    -0.390 OA
ATOM     14  H3  UNL     1     -23.855   9.225 103.584  1.00  0.00     0.210 HD
ENDBRANCH   4  13
BRANCH   1  15
HETATM   15  O1  UNL     1     -25.095   6.806  99.243  1.00  0.00    -0.363 OA
HETATM   16  C1  UNL     1     -26.084   7.304 100.073  1.00  0.00     0.204 C
ENDBRANCH   1  15
BRANCH   5  17
HETATM   17  O4  UNL     1     -24.034  10.174 101.782  1.00  0.00    -0.390 OA
ATOM     18  H4  UNL     1     -23.965  10.961 101.256  1.00  0.00     0.210 HD
ENDBRANCH   5  17
BRANCH   6  19
HETATM   19  O5  UNL     1     -23.440   9.368  98.846  1.00  0.00    -0.388 OA
ATOM     20  H5  UNL     1     -22.782   9.977  99.160  1.00  0.00     0.210 HD
ENDBRANCH   6  19
TORSDOF 6
ENDMDL