MODEL 1
REMARK VINA RESULT: -6.307944493      0.000      0.000
REMARK  4 active torsions:
REMARK  status: ('A' for Active; 'I' for Inactive)
REMARK    1  A    between atoms: S1_2  and  O4_5
REMARK    2  A    between atoms: O4_5  and  C1_6
REMARK    3  A    between atoms: C2_7  and  O5_8
REMARK    4  A    between atoms: C7_15  and  O7_16
ROOT
HETATM    1  C1  UNL     1     -22.150   3.994 103.456  1.00  0.00     0.238 C
HETATM    2  C2  UNL     1     -20.736   4.439 103.640  1.00  0.00     0.290 C
HETATM    3  O6  UNL     1     -20.321   5.466 102.871  1.00  0.00    -0.358 OA
HETATM    4  C3  UNL     1     -21.297   6.286 102.351  1.00  0.00     0.179 C
HETATM    5  C4  UNL     1     -21.928   5.721 101.095  1.00  0.00     0.035 C
HETATM    6  C5  UNL     1     -21.019   4.630 100.605  1.00  0.00    -0.021 C
HETATM    7  C6  UNL     1     -21.367   3.474 101.152  1.00  0.00     0.010 C
HETATM    8  C7  UNL     1     -22.512   3.661 102.043  1.00  0.00     0.108 C
HETATM    9  C8  UNL     1     -23.179   4.905 101.440  1.00  0.00     0.055 C
ENDROOT
BRANCH   1  10
HETATM   10  O4  UNL     1     -22.322   2.823 104.212  1.00  0.00    -0.243 OA
BRANCH  10  11
HETATM   11  S1  UNL     1     -23.376   3.047 105.484  1.00  0.00     0.252 S
HETATM   12  O1  UNL     1     -22.594   3.697 106.602  1.00  0.00    -0.572 OA
HETATM   13  O2  UNL     1     -23.872   1.712 105.978  1.00  0.00    -0.572 OA
HETATM   14  O3  UNL     1     -24.640   4.078 105.104  1.00  0.00    -0.572 OA
ENDBRANCH  10  11
ENDBRANCH   1  10
BRANCH   2  15
HETATM   15  O5  UNL     1     -19.889   3.327 103.443  1.00  0.00    -0.368 OA
ATOM     16  H5  UNL     1     -19.300   3.522 102.724  1.00  0.00     0.212 HD
ENDBRANCH   2  15
BRANCH   8  17
HETATM   17  O7  UNL     1     -23.444   2.616 101.957  1.00  0.00    -0.383 OA
ATOM     18  H7  UNL     1     -23.773   2.492 101.074  1.00  0.00     0.211 HD
ENDBRANCH   8  17
TORSDOF 4
ENDMDL