MODEL 2
REMARK VINA RESULT: -5.815972365      3.252      4.612
REMARK  6 active torsions:
REMARK  status: ('A' for Active; 'I' for Inactive)
REMARK    1  A    between atoms: C2_2  and  C3_3
REMARK    2  A    between atoms: C3_3  and  O1_5
REMARK    3  A    between atoms: O1_5  and  C5_6
REMARK    4  A    between atoms: C7_9  and  O3_10
REMARK    5  A    between atoms: C8_12  and  O4_13
REMARK    6  A    between atoms: N1_16  and  O5_17
ROOT
HETATM    1  C5  UNL     1     -24.825   6.654  98.383  1.00  0.00     0.295 C
HETATM    2  O2  UNL     1     -23.696   6.039  98.867  1.00  0.00    -0.314 OA
HETATM    3  C6  UNL     1     -23.806   4.683  98.713  1.00  0.00     0.341 A
HETATM    4  C7  UNL     1     -25.021   4.397  97.883  1.00  0.00     0.222 C
HETATM    5  C8  UNL     1     -25.221   5.769  97.219  1.00  0.00     0.207 C
HETATM    6  C9  UNL     1     -23.267   3.796  99.698  1.00  0.00     0.399 A
HETATM    7  N1  UNL     1     -23.336   2.370  99.425  1.00  0.00    -0.131 NA
HETATM    8  C11 UNL     1     -22.511   2.584  98.281  1.00  0.00     0.401 C
HETATM    9  N2  UNL     1     -22.618   3.998  98.323  1.00  0.00     0.170 N
ENDROOT
BRANCH   4  10
HETATM   10  O3  UNL     1     -24.836   3.406  96.949  1.00  0.00    -0.388 OA
ATOM     11  H3  UNL     1     -25.324   2.611  97.131  1.00  0.00     0.210 HD
ENDBRANCH   4  10
BRANCH   1  12
HETATM   12  O1  UNL     1     -24.603   7.965  97.993  1.00  0.00    -0.350 OA
BRANCH  12  13
HETATM   13  C3  UNL     1     -24.758   8.771  99.133  1.00  0.00     0.142 C
HETATM   14  C4  UNL     1     -25.838   9.805  98.912  1.00  0.00     0.044 C
BRANCH  13  15
HETATM   15  C2  UNL     1     -23.476   9.438  99.494  1.00  0.00    -0.006 C
HETATM   16  C1  UNL     1     -23.123   9.528 100.765  1.00  0.00     0.009 C
ENDBRANCH  13  15
ENDBRANCH  12  13
ENDBRANCH   1  12
BRANCH   5  17
HETATM   17  O4  UNL     1     -26.550   5.941  96.848  1.00  0.00    -0.388 OA
ATOM     18  H4  UNL     1     -26.964   5.125  96.593  1.00  0.00     0.210 HD
ENDBRANCH   5  17
BRANCH   7  19
HETATM   19  O5  UNL     1     -22.782   1.597 100.413  1.00  0.00    -0.305 OA
HETATM   20  C10 UNL     1     -22.646   2.396 101.551  1.00  0.00     0.230 C
ENDBRANCH   7  19
TORSDOF 6
ENDMDL