MODEL 1
REMARK VINA RESULT: -5.981730448      0.000      0.000
REMARK  6 active torsions:
REMARK  status: ('A' for Active; 'I' for Inactive)
REMARK    1  A    between atoms: C2_2  and  O1_3
REMARK    2  A    between atoms: C2_2  and  C3_5
REMARK    3  A    between atoms: C3_5  and  O2_6
REMARK    4  A    between atoms: O2_6  and  C4_7
REMARK    5  A    between atoms: C11_16  and  O5_17
REMARK    6  A    between atoms: C12_19  and  O6_20
ROOT
HETATM    1  C4  UNL     1     -20.958   2.275 104.113  1.00  0.00     0.294 C
HETATM    2  O3  UNL     1     -20.060   3.363 104.051  1.00  0.00    -0.328 OA
HETATM    3  C5  UNL     1     -20.570   4.494 103.515  1.00  0.00     0.270 C
HETATM    4  O4  UNL     1     -20.734   5.434 104.547  1.00  0.00    -0.357 OA
HETATM    5  C6  UNL     1     -20.007   6.597 104.325  1.00  0.00     0.198 C
HETATM    6  C7  UNL     1     -20.380   7.128 102.973  1.00  0.00    -0.005 C
HETATM    7  C8  UNL     1     -21.410   6.787 102.186  1.00  0.00    -0.028 C
HETATM    8  C9  UNL     1     -22.426   5.760 102.531  1.00  0.00     0.039 C
HETATM    9  C10 UNL     1     -21.784   4.372 102.673  1.00  0.00     0.076 C
HETATM   10  C11 UNL     1     -22.843   3.457 103.174  1.00  0.00     0.160 C
HETATM   11  C12 UNL     1     -22.314   2.828 104.457  1.00  0.00     0.202 C
ENDROOT
BRANCH   1  12
HETATM   12  O2  UNL     1     -20.521   1.478 105.071  1.00  0.00    -0.356 OA
BRANCH  12  13
HETATM   13  C3  UNL     1     -19.600   1.730 105.964  1.00  0.00     0.202 C
BRANCH  13  14
HETATM   14  C2  UNL     1     -19.792   2.413 107.240  1.00  0.00     0.138 C
HETATM   15  C1  UNL     1     -21.175   2.126 107.863  1.00  0.00     0.041 C
BRANCH  14  16
HETATM   16  O1  UNL     1     -19.857   3.824 107.037  1.00  0.00    -0.394 OA
ATOM     17  H1  UNL     1     -19.175   3.955 106.389  1.00  0.00     0.210 HD
ENDBRANCH  14  16
ENDBRANCH  13  14
ENDBRANCH  12  13
ENDBRANCH   1  12
BRANCH  11  18
HETATM   18  O6  UNL     1     -23.240   1.911 104.869  1.00  0.00    -0.388 OA
ATOM     19  H6  UNL     1     -24.143   2.107 104.644  1.00  0.00     0.210 HD
ENDBRANCH  11  18
BRANCH  10  20
HETATM   20  O5  UNL     1     -24.053   4.108 103.430  1.00  0.00    -0.392 OA
ATOM     21  H5  UNL     1     -24.409   3.908 104.288  1.00  0.00     0.210 HD
ENDBRANCH  10  20
TORSDOF 6
ENDMDL