MODEL 1
REMARK VINA RESULT: -6.123940078      0.000      0.000
REMARK  6 active torsions:
REMARK  status: ('A' for Active; 'I' for Inactive)
REMARK    1  A    between atoms: O1_1  and  C1_3
REMARK    2  A    between atoms: C1_3  and  C2_4
REMARK    3  A    between atoms: C3_6  and  C4_7
REMARK    4  A    between atoms: C4_7  and  N1_8
REMARK    5  A    between atoms: C9_14  and  O3_15
REMARK    6  A    between atoms: C11_18  and  O4_19
ROOT
HETATM    1  C2  UNL     1     -19.819   1.552 106.675  1.00  0.00     0.174 C
HETATM    2  O2  UNL     1     -19.551   2.125 105.464  1.00  0.00    -0.371 OA
HETATM    3  C3  UNL     1     -20.682   2.532 104.751  1.00  0.00     0.179 C
HETATM    4  C9  UNL     1     -21.268   3.684 105.530  1.00  0.00     0.151 C
HETATM    5  C10 UNL     1     -21.643   3.289 106.919  1.00  0.00     0.068 C
HETATM    6  C11 UNL     1     -20.798   2.255 107.545  1.00  0.00     0.151 C
ENDROOT
BRANCH   3   7
HETATM    7  C4  UNL     1     -20.234   2.885 103.385  1.00  0.00     0.306 C
BRANCH   7   8
HETATM    8  N1  UNL     1     -21.227   3.298 102.461  1.00  0.00     0.092 N
HETATM    9  C5  UNL     1     -21.948   2.214 101.838  1.00  0.00     0.282 C
HETATM   10  C6  UNL     1     -22.734   2.701 100.639  1.00  0.00     0.104 C
HETATM   11  S1  UNL     1     -23.056   4.504 100.757  1.00  0.00    -0.166 SA
HETATM   12  C7  UNL     1     -21.388   5.232 100.998  1.00  0.00     0.104 C
HETATM   13  C8  UNL     1     -20.528   4.049 101.407  1.00  0.00     0.282 C
ENDBRANCH   7   8
ENDBRANCH   3   7
BRANCH   4  14
HETATM   14  O3  UNL     1     -20.313   4.704 105.588  1.00  0.00    -0.393 OA
ATOM     15  H3  UNL     1     -20.037   4.801 106.493  1.00  0.00     0.210 HD
ENDBRANCH   4  14
BRANCH   1  16
HETATM   16  C1  UNL     1     -18.470   1.389 107.379  1.00  0.00     0.198 C
BRANCH  16  17
HETATM   17  O1  UNL     1     -17.428   1.885 106.629  1.00  0.00    -0.398 OA
ATOM     18  H1  UNL     1     -16.717   2.207 107.170  1.00  0.00     0.209 HD
ENDBRANCH  16  17
ENDBRANCH   1  16
BRANCH   6  19
HETATM   19  O4  UNL     1     -21.586   1.296 108.213  1.00  0.00    -0.393 OA
ATOM     20  H4  UNL     1     -21.168   1.074 109.037  1.00  0.00     0.210 HD
ENDBRANCH   6  19
TORSDOF 6
ENDMDL