MODEL 4
REMARK VINA RESULT: -6.104323801      1.325      1.898
REMARK  9 active torsions:
REMARK  status: ('A' for Active; 'I' for Inactive)
REMARK    1  A    between atoms: C2_2  and  C3_3
REMARK    2  A    between atoms: C4_4  and  C5_5
REMARK    3  A    between atoms: C6_6  and  C7_7
REMARK    4  A    between atoms: C7_7  and  O1_8
REMARK    5  A    between atoms: O1_8  and  C8_9
REMARK    6  A    between atoms: C9_11  and  O3_12
REMARK    7  A    between atoms: C10_14  and  O4_15
REMARK    8  A    between atoms: C11_17  and  C12_18
REMARK    9  A    between atoms: C12_18  and  O5_19
ROOT
HETATM    1  C8  UNL     1     -20.940   2.736 104.649  1.00  0.00     0.416 C
HETATM    2  O2  UNL     1     -21.834   2.057 105.472  1.00  0.00    -0.306 OA
HETATM    3  C9  UNL     1     -22.093   2.766 106.628  1.00  0.00     0.293 C
HETATM    4  C10 UNL     1     -20.804   3.404 107.094  1.00  0.00     0.204 C
HETATM    5  C11 UNL     1     -19.593   2.729 106.525  1.00  0.00     0.184 C
HETATM    6  O6  UNL     1     -19.659   2.540 105.165  1.00  0.00    -0.329 OA
ENDROOT
BRANCH   1   7
HETATM    7  O1  UNL     1     -20.949   2.260 103.359  1.00  0.00    -0.327 OA
BRANCH   7   8
HETATM    8  C7  UNL     1     -20.192   3.042 102.487  1.00  0.00     0.268 C
BRANCH   8   9
HETATM    9  C6  UNL     1     -20.884   4.334 102.337  1.00  0.00    -0.066 C
HETATM   10  C5  UNL     1     -21.446   5.400 102.234  1.00  0.00    -0.013 C
BRANCH  10  11
HETATM   11  C4  UNL     1     -22.114   6.645 102.134  1.00  0.00    -0.015 C
HETATM   12  C3  UNL     1     -22.696   7.701 102.065  1.00  0.00    -0.093 C
BRANCH  12  13
HETATM   13  C2  UNL     1     -23.413   8.988 102.002  1.00  0.00     0.090 C
HETATM   14  C1  UNL     1     -22.930   9.718 100.778  1.00  0.00     0.018 C
ENDBRANCH  12  13
ENDBRANCH  10  11
ENDBRANCH   8   9
ENDBRANCH   7   8
ENDBRANCH   1   7
BRANCH   3  15
HETATM   15  O3  UNL     1     -23.055   3.759 106.369  1.00  0.00    -0.368 OA
ATOM     16  H3  UNL     1     -22.731   4.351 105.699  1.00  0.00     0.212 HD
ENDBRANCH   3  15
BRANCH   5  17
HETATM   17  C12 UNL     1     -19.420   1.352 107.169  1.00  0.00     0.199 C
BRANCH  17  18
HETATM   18  O5  UNL     1     -18.107   1.169 107.533  1.00  0.00    -0.398 OA
ATOM     19  H5  UNL     1     -18.057   0.937 108.452  1.00  0.00     0.209 HD
ENDBRANCH  17  18
ENDBRANCH   5  17
BRANCH   4  20
HETATM   20  O4  UNL     1     -20.761   3.397 108.471  1.00  0.00    -0.388 OA
ATOM     21  H4  UNL     1     -20.352   4.197 108.778  1.00  0.00     0.210 HD
ENDBRANCH   4  20
TORSDOF 9
ENDMDL