MODEL 5
REMARK VINA RESULT: -8.158336714      1.759      2.206
REMARK  5 active torsions:
REMARK  status: ('A' for Active; 'I' for Inactive)
REMARK    1  A    between atoms: C2_2  and  C5_5
REMARK    2  A    between atoms: N1_7  and  C7_8
REMARK    3  A    between atoms: C10_12  and  C11_13
REMARK    4  A    between atoms: C11_13  and  O1_14
REMARK    5  A    between atoms: O1_14  and  C12_15
ROOT
HETATM    1  C5  UNL     1     -23.169  37.187   2.131  1.00  0.00     0.033 A
HETATM    2  C6  UNL     1     -22.608  36.354   1.181  1.00  0.00     0.112 A
HETATM    3  N1  UNL     1     -22.522  36.774  -0.099  1.00  0.00    -0.282 N
HETATM    4  C13 UNL     1     -22.969  37.985  -0.478  1.00  0.00     0.331 A
HETATM    5  O4  UNL     1     -22.876  38.360  -1.695  1.00  0.00    -0.246 OA
HETATM    6  N2  UNL     1     -23.513  38.791   0.451  1.00  0.00    -0.275 N
ATOM      7  H2  UNL     1     -23.853  39.709   0.166  1.00  0.00     0.173 HD
HETATM    8  C14 UNL     1     -23.627  38.430   1.741  1.00  0.00     0.257 A
HETATM    9  O5  UNL     1     -24.153  39.251   2.549  1.00  0.00    -0.267 OA
ENDROOT
BRANCH   3  10
HETATM   10  C7  UNL     1     -21.935  35.895  -1.073  1.00  0.00     0.233 C
HETATM   11  C8  UNL     1     -21.390  34.643  -0.415  1.00  0.00     0.073 C
HETATM   12  C9  UNL     1     -21.440  33.679  -1.577  1.00  0.00     0.093 C
HETATM   13 BR1  UNL     1     -21.741  31.866  -0.989  1.00  0.00    -0.088 Br
HETATM   14  C10 UNL     1     -22.555  34.211  -2.409  1.00  0.00     0.163 C
HETATM   15  O3  UNL     1     -22.935  35.456  -1.928  1.00  0.00    -0.358 OA
BRANCH  14  16
HETATM   16  C11 UNL     1     -22.134  34.337  -3.854  1.00  0.00     0.213 C
BRANCH  16  17
HETATM   17  O1  UNL     1     -23.041  33.861  -4.783  1.00  0.00    -0.306 OA
BRANCH  17  18
HETATM   18  C12 UNL     1     -23.064  32.557  -5.225  1.00  0.00     0.357 C
HETATM   19  O2  UNL     1     -22.229  31.749  -4.756  1.00  0.00    -0.246 OA
HETATM   20 CL1  UNL     1     -24.243  32.019  -6.432  1.00  0.00    -0.012 Cl
ENDBRANCH  17  18
ENDBRANCH  16  17
ENDBRANCH  14  16
ENDBRANCH   3  10
BRANCH   1  21
HETATM   21  C2  UNL     1     -23.311  36.829   3.552  1.00  0.00    -0.017 C
HETATM   22  C1  UNL     1     -24.696  37.129   4.084  1.00  0.00     0.019 C
HETATM   23  C3  UNL     1     -23.098  35.335   3.693  1.00  0.00     0.019 C
HETATM   24  C4  UNL     1     -22.281  37.521   4.417  1.00  0.00     0.019 C
ENDBRANCH   1  21
TORSDOF 5
ENDMDL