MODEL 4
REMARK VINA RESULT: -6.488040857      3.597      6.107
REMARK  4 active torsions:
REMARK  status: ('A' for Active; 'I' for Inactive)
REMARK    1  A    between atoms: N2_5  and  C4_6
REMARK    2  A    between atoms: C4_6  and  C5_7
REMARK    3  A    between atoms: C5_7  and  O1_8
REMARK    4  A    between atoms: C11_19  and  C12_20
ROOT
HETATM    1  C5  UNL     1     -21.835  35.114   0.808  1.00  0.00     0.084 C
HETATM    2  C6  UNL     1     -23.345  35.076   0.653  1.00  0.00     0.042 C
HETATM    3  C7  UNL     1     -23.910  35.422   2.012  1.00  0.00     0.040 C
HETATM    4  C8  UNL     1     -22.763  36.262   2.527  1.00  0.00     0.122 C
HETATM    5  S1  UNL     1     -22.760  37.711   1.372  1.00  0.00    -0.141 SA
HETATM    6  C9  UNL     1     -23.977  38.767   2.122  1.00  0.00     0.090 C
HETATM    7  C10 UNL     1     -24.475  38.166   3.373  1.00  0.00     0.152 C
HETATM    8  S2  UNL     1     -23.150  37.050   3.953  1.00  0.00     0.163 S
HETATM    9  O2  UNL     1     -22.185  38.002   4.547  1.00  0.00    -0.226 OA
HETATM   10  O3  UNL     1     -23.902  36.242   5.014  1.00  0.00    -0.226 OA
HETATM   11  C11 UNL     1     -21.517  35.533   2.207  1.00  0.00     0.110 C
ENDROOT
BRANCH   1  12
HETATM   12  C4  UNL     1     -21.303  33.859   0.264  1.00  0.00     0.155 C
BRANCH  12  13
HETATM   13  N2  UNL     1     -21.751  33.459  -1.021  1.00  0.00    -0.406 N
HETATM   14  C3  UNL     1     -21.499  34.129  -2.187  1.00  0.00     0.147 C
HETATM   15  C2  UNL     1     -20.459  33.427  -3.082  1.00  0.00     0.291 C
HETATM   16  N1  UNL     1     -21.022  32.155  -3.417  1.00  0.00     0.087 N
HETATM   17  C1  UNL     1     -22.167  32.280  -4.260  1.00  0.00     0.310 C
HETATM   18  C15 UNL     1     -21.252  31.372  -2.232  1.00  0.00     0.291 C
HETATM   19  C14 UNL     1     -22.050  32.082  -1.183  1.00  0.00     0.147 C
ENDBRANCH  12  13
ENDBRANCH   1  12
BRANCH   1  20
HETATM   20  O1  UNL     1     -21.360  36.158  -0.038  1.00  0.00    -0.388 OA
ATOM     21  H1  UNL     1     -21.775  36.959   0.260  1.00  0.00     0.210 HD
ENDBRANCH   1  20
BRANCH  11  22
HETATM   22  C12 UNL     1     -21.001  34.496   3.109  1.00  0.00     0.184 C
HETATM   23  C13 UNL     1     -22.018  33.382   3.406  1.00  0.00     0.070 C
HETATM   24  F1  UNL     1     -20.828  35.057   4.369  1.00  0.00    -0.225 F
HETATM   25 CL1  UNL     1     -19.574  33.611   2.555  1.00  0.00    -0.082 Cl
ENDBRANCH  11  22
TORSDOF 4
ENDMDL