MODEL 3
REMARK VINA RESULT: -7.953505469      3.514      6.767
REMARK  4 active torsions:
REMARK  status: ('A' for Active; 'I' for Inactive)
REMARK    1  A    between atoms: C2_2  and  O1_3
REMARK    2  A    between atoms: C2_2  and  C3_5
REMARK    3  A    between atoms: C3_5  and  N1_6
REMARK    4  A    between atoms: N2_13  and  C7_14
ROOT
HETATM    1  N1  UNL     1     -22.624  31.472   4.165  1.00  0.00    -0.262 N
HETATM    2  C4  UNL     1     -22.340  30.650   3.143  1.00  0.00     0.273 A
HETATM    3  O2  UNL     1     -22.318  29.396   3.271  1.00  0.00    -0.266 OA
HETATM    4  C5  UNL     1     -22.069  31.243   1.918  1.00  0.00     0.135 A
HETATM    5 BR1  UNL     1     -21.666  30.090   0.460  1.00  0.00    -0.040 Br
HETATM    6  C6  UNL     1     -22.089  32.620   1.751  1.00  0.00     0.219 A
HETATM    7  F1  UNL     1     -21.814  33.135   0.527  1.00  0.00    -0.184 F
HETATM    8  N2  UNL     1     -22.380  33.388   2.813  1.00  0.00    -0.246 N
HETATM    9  C16 UNL     1     -22.641  32.808   3.994  1.00  0.00     0.336 A
HETATM   10  O4  UNL     1     -22.914  33.528   4.991  1.00  0.00    -0.246 OA
ENDROOT
BRANCH   8  11
HETATM   11  C7  UNL     1     -22.416  34.814   2.705  1.00  0.00     0.235 C
HETATM   12  C8  UNL     1     -21.475  35.352   1.654  1.00  0.00     0.059 C
HETATM   13  C9  UNL     1     -21.891  36.718   1.215  1.00  0.00    -0.004 C
HETATM   14  C10 UNL     1     -22.655  36.698  -0.076  1.00  0.00     0.005 C
HETATM   15  C14 UNL     1     -22.662  37.398   2.323  1.00  0.00     0.014 C
HETATM   16  C11 UNL     1     -22.981  38.098  -0.488  1.00  0.00     0.000 C
HETATM   17  C12 UNL     1     -23.770  38.814   0.577  1.00  0.00     0.000 C
HETATM   18  C13 UNL     1     -23.105  38.766   1.931  1.00  0.00     0.007 C
HETATM   19  C15 UNL     1     -23.815  36.565   2.811  1.00  0.00     0.175 C
HETATM   20  O3  UNL     1     -23.704  35.263   2.345  1.00  0.00    -0.366 OA
ENDBRANCH   8  11
BRANCH   1  21
HETATM   21  C3  UNL     1     -22.910  30.935   5.477  1.00  0.00     0.168 C
BRANCH  21  22
HETATM   22  C2  UNL     1     -21.601  30.545   6.120  1.00  0.00     0.132 C
HETATM   23  C1  UNL     1     -21.526  31.217   7.477  1.00  0.00     0.041 C
BRANCH  22  24
HETATM   24  O1  UNL     1     -21.551  29.163   6.225  1.00  0.00    -0.394 OA
ATOM     25  H1  UNL     1     -22.302  28.750   5.813  1.00  0.00     0.210 HD
ENDBRANCH  22  24
ENDBRANCH  21  22
ENDBRANCH   1  21
TORSDOF 4
ENDMDL