MODEL 1
REMARK VINA RESULT: -8.021375966      0.000      0.000
REMARK  4 active torsions:
REMARK  status: ('A' for Active; 'I' for Inactive)
REMARK    1  A    between atoms: C2_2  and  N1_5
REMARK       I    between atoms: N1_5  and  C5_7
REMARK    2  A    between atoms: C5_7  and  C6_9
REMARK    3  A    between atoms: N2_12  and  S1_13
REMARK    4  A    between atoms: S1_13  and  C9_16
ROOT
HETATM    1  C6  UNL     1     -22.076  33.704   0.894  1.00  0.00     0.082 C
HETATM    2  C7  UNL     1     -23.071  34.376   1.812  1.00  0.00     0.035 C
HETATM    3  C8  UNL     1     -23.315  33.457   2.993  1.00  0.00     0.138 C
HETATM    4  N2  UNL     1     -22.227  32.542   3.116  1.00  0.00    -0.288 N
HETATM    5  C11 UNL     1     -20.965  33.199   3.061  1.00  0.00     0.193 C
HETATM    6 CL2  UNL     1     -20.948  34.690   4.048  1.00  0.00    -0.102 Cl
HETATM    7  C12 UNL     1     -20.744  33.667   1.616  1.00  0.00     0.056 C
ENDROOT
BRANCH   4   8
HETATM    8  S1  UNL     1     -22.407  31.299   4.236  1.00  0.00     0.273 S
HETATM    9  O2  UNL     1     -23.674  31.528   5.014  1.00  0.00    -0.200 OA
HETATM   10  O3  UNL     1     -21.266  31.332   5.222  1.00  0.00    -0.200 OA
BRANCH   8  11
HETATM   11  C9  UNL     1     -22.509  29.692   3.524  1.00  0.00     0.177 A
HETATM   12  S2  UNL     1     -22.956  28.189   4.217  1.00  0.00     0.019 SA
HETATM   13  N3  UNL     1     -22.780  27.222   2.854  1.00  0.00    -0.267 N
HETATM   14  N4  UNL     1     -22.397  28.061   1.940  1.00  0.00    -0.282 N
ATOM     15  H3  UNL     1     -22.938  26.218   2.766  1.00  0.00     0.195 HD
HETATM   16  C10 UNL     1     -22.247  29.315   2.233  1.00  0.00     0.150 A
ATOM     17  H4  UNL     1     -22.214  27.733   0.991  1.00  0.00     0.188 HD
HETATM   18 CL1  UNL     1     -21.726  30.505   1.016  1.00  0.00    -0.061 Cl
ENDBRANCH   8  11
ENDBRANCH   4   8
BRANCH   1  19
HETATM   19  C5  UNL     1     -21.932  34.408  -0.394  1.00  0.00     0.222 C
HETATM   20  N1  UNL     1     -22.098  33.687  -1.606  1.00  0.00    -0.353 N
ATOM     21  H1  UNL     1     -22.315  32.690  -1.583  1.00  0.00     0.163 HD
HETATM   22  O1  UNL     1     -21.667  35.621  -0.420  1.00  0.00    -0.273 OA
BRANCH  20  23
HETATM   23  C2  UNL     1     -21.958  34.371  -2.872  1.00  0.00     0.022 C
HETATM   24  C1  UNL     1     -20.505  34.730  -3.109  1.00  0.00     0.037 C
HETATM   25  C3  UNL     1     -22.438  33.443  -3.963  1.00  0.00     0.037 C
HETATM   26  C4  UNL     1     -22.811  35.621  -2.897  1.00  0.00     0.037 C
ENDBRANCH  20  23
ENDBRANCH   1  19
TORSDOF 4
ENDMDL