MODEL 3
REMARK VINA RESULT: -6.543375636      3.627      5.633
REMARK  4 active torsions:
REMARK  status: ('A' for Active; 'I' for Inactive)
REMARK    1  A    between atoms: C2_2  and  C3_3
REMARK    2  A    between atoms: C3_3  and  N1_4
REMARK    3  A    between atoms: C9_13  and  C11_15
REMARK    4  A    between atoms: N4_22  and  C14_23
ROOT
HETATM    1  N1  UNL     1     -21.306  32.117   0.851  1.00  0.00    -0.300 N
HETATM    2  C4  UNL     1     -21.354  32.756   2.038  1.00  0.00     0.071 A
HETATM    3  C5  UNL     1     -21.756  31.989   3.172  1.00  0.00     0.080 A
HETATM    4  C6  UNL     1     -22.087  30.651   3.076  1.00  0.00     0.262 A
HETATM    5  O1  UNL     1     -22.443  29.971   4.069  1.00  0.00    -0.267 OA
HETATM    6  N2  UNL     1     -22.015  30.093   1.855  1.00  0.00    -0.270 N
HETATM    7  C7  UNL     1     -22.376  28.675   1.780  1.00  0.00     0.164 C
HETATM    8  C8  UNL     1     -21.645  30.780   0.784  1.00  0.00     0.331 A
HETATM    9  O2  UNL     1     -21.604  30.166  -0.335  1.00  0.00    -0.246 OA
HETATM   10  C9  UNL     1     -21.705  32.933   4.311  1.00  0.00     0.256 C
HETATM   11  C10 UNL     1     -20.261  32.835   4.818  1.00  0.00     0.061 C
HETATM   12  N3  UNL     1     -21.961  34.187   3.659  1.00  0.00     0.127 N
HETATM   13  C12 UNL     1     -23.349  34.280   3.348  1.00  0.00     0.306 C
HETATM   14  C13 UNL     1     -23.774  35.327   2.352  1.00  0.00     0.302 C
HETATM   15  N4  UNL     1     -23.060  35.033   1.124  1.00  0.00     0.092 N
HETATM   16  C16 UNL     1     -21.715  35.205   1.480  1.00  0.00     0.320 C
HETATM   17  C17 UNL     1     -21.153  34.143   2.410  1.00  0.00     0.226 C
HETATM   18  C18 UNL     1     -19.767  34.651   2.665  1.00  0.00     0.058 C
ENDROOT
BRANCH  10  19
HETATM   19  C11 UNL     1     -22.579  32.666   5.473  1.00  0.00     0.295 C
HETATM   20  F1  UNL     1     -22.656  33.887   6.197  1.00  0.00    -0.204 F
HETATM   21 CL1  UNL     1     -24.097  31.862   5.258  1.00  0.00    -0.063 Cl
HETATM   22 CL2  UNL     1     -21.768  31.664   6.764  1.00  0.00    -0.063 Cl
ENDBRANCH  10  19
BRANCH   1  23
HETATM   23  C3  UNL     1     -20.857  32.646  -0.384  1.00  0.00     0.133 C
BRANCH  23  24
HETATM   24  C2  UNL     1     -21.893  32.944  -1.423  1.00  0.00     0.016 C
HETATM   25  C1  UNL     1     -21.499  33.593  -2.673  1.00  0.00     0.006 C
ENDBRANCH  23  24
ENDBRANCH   1  23
BRANCH  15  26
HETATM   26  C14 UNL     1     -23.409  35.941   0.058  1.00  0.00     0.268 C
HETATM   27  C15 UNL     1     -22.209  36.627  -0.552  1.00  0.00     0.037 C
ENDBRANCH  15  26
TORSDOF 4
ENDMDL