MODEL 4
REMARK VINA RESULT: -8.408939393      1.528      1.654
REMARK  4 active torsions:
REMARK  status: ('A' for Active; 'I' for Inactive)
REMARK    1  A    between atoms: C2_2  and  C13_25
REMARK    2  A    between atoms: N1_3  and  N2_5
REMARK       I    between atoms: N2_5  and  C3_7
REMARK    3  A    between atoms: C3_7  and  C4_9
REMARK    4  A    between atoms: C7_13  and  S1_14
ROOT
HETATM    1  C4  UNL     1     -22.707  34.832   1.729  1.00  0.00     0.059 C
HETATM    2  C5  UNL     1     -22.751  35.144   0.389  1.00  0.00     0.075 C
HETATM    3  C6  UNL     1     -22.376  34.530  -0.809  1.00  0.00     0.196 C
HETATM    4  O2  UNL     1     -22.567  35.242  -1.816  1.00  0.00    -0.287 OA
HETATM    5  C7  UNL     1     -21.837  33.312  -1.166  1.00  0.00     0.134 C
HETATM    6  C9  UNL     1     -21.509  32.156  -0.486  1.00  0.00     0.109 C
HETATM    7 CL1  UNL     1     -20.822  30.920  -1.522  1.00  0.00    -0.078 Cl
HETATM    8  C10 UNL     1     -21.615  31.785   0.843  1.00  0.00     0.196 C
HETATM    9  O5  UNL     1     -21.205  30.606   1.001  1.00  0.00    -0.287 OA
HETATM   10  C11 UNL     1     -22.043  32.347   2.031  1.00  0.00     0.081 C
HETATM   11  C12 UNL     1     -22.361  33.639   2.364  1.00  0.00     0.053 C
HETATM   12 CL2  UNL     1     -22.335  33.913   4.105  1.00  0.00    -0.083 Cl
ENDROOT
BRANCH   1  13
HETATM   13  C3  UNL     1     -23.074  35.894   2.627  1.00  0.00     0.271 C
HETATM   14  N2  UNL     1     -22.241  37.008   2.918  1.00  0.00    -0.266 N
ATOM     15  H2  UNL     1     -21.327  37.069   2.469  1.00  0.00     0.190 HD
HETATM   16  O1  UNL     1     -24.191  35.850   3.195  1.00  0.00    -0.266 OA
BRANCH  14  17
HETATM   17  N1  UNL     1     -22.625  38.010   3.787  1.00  0.00    -0.303 N
HETATM   18  C2  UNL     1     -23.078  39.154   3.422  1.00  0.00     0.038 C
HETATM   19  C1  UNL     1     -23.234  39.511   1.983  1.00  0.00     0.068 C
ATOM     20  H1  UNL     1     -22.543  37.829   4.787  1.00  0.00     0.186 HD
BRANCH  18  21
HETATM   21  C13 UNL     1     -23.456  40.138   4.440  1.00  0.00     0.135 C
HETATM   22  C14 UNL     1     -22.484  40.187   5.597  1.00  0.00     0.058 C
HETATM   23  C15 UNL     1     -24.857  39.767   4.929  1.00  0.00     0.058 C
HETATM   24  F1  UNL     1     -23.560  41.376   3.866  1.00  0.00    -0.237 F
ENDBRANCH  18  21
ENDBRANCH  14  17
ENDBRANCH   1  13
BRANCH   5  25
HETATM   25  S1  UNL     1     -21.500  33.241  -2.881  1.00  0.00     0.177 S
HETATM   26  C8  UNL     1     -22.247  34.611  -3.739  1.00  0.00     0.167 C
HETATM   27  O3  UNL     1     -20.011  33.325  -3.153  1.00  0.00    -0.223 OA
HETATM   28  O4  UNL     1     -22.042  31.972  -3.466  1.00  0.00    -0.223 OA
ENDBRANCH   5  25
TORSDOF 4
ENDMDL