MODEL 4
REMARK VINA RESULT: -7.315472976      3.821      4.333
REMARK  3 active torsions:
REMARK  status: ('A' for Active; 'I' for Inactive)
REMARK    1  A    between atoms: C1_2  and  C2_3
REMARK       I    between atoms: C1_2  and  N2_13
REMARK    2  A    between atoms: C3_4  and  S1_5
REMARK    3  A    between atoms: S1_5  and  C4_6
ROOT
HETATM    1  O1  UNL     1     -20.583  31.175  -1.080  1.00  0.00    -0.268 OA
HETATM    2  C1  UNL     1     -21.210  32.216  -0.785  1.00  0.00     0.247 C
HETATM    3  N2  UNL     1     -21.211  32.702   0.542  1.00  0.00    -0.302 N
ATOM      4  H2  UNL     1     -20.941  33.661   0.761  1.00  0.00     0.171 HD
HETATM    5  C7  UNL     1     -21.577  31.857   1.478  1.00  0.00     0.168 A
HETATM    6  N3  UNL     1     -21.659  32.076   2.794  1.00  0.00    -0.278 N
ATOM      7  H3  UNL     1     -21.423  32.989   3.184  1.00  0.00     0.189 HD
HETATM    8  N4  UNL     1     -22.036  31.131   3.549  1.00  0.00    -0.286 N
ATOM      9  H4  UNL     1     -22.105  31.281   4.556  1.00  0.00     0.188 HD
HETATM   10  C8  UNL     1     -22.340  29.949   3.036  1.00  0.00     0.139 A
HETATM   11 BR2  UNL     1     -22.932  28.370   3.975  1.00  0.00    -0.021 Br
HETATM   12  S2  UNL     1     -22.069  30.219   1.370  1.00  0.00    -0.026 SA
ENDROOT
BRANCH   2  13
HETATM   13  C2  UNL     1     -21.955  32.957  -1.791  1.00  0.00     0.081 C
HETATM   14  C3  UNL     1     -21.422  33.998  -2.400  1.00  0.00     0.057 C
BRANCH  14  15
HETATM   15  S1  UNL     1     -22.372  34.873  -3.623  1.00  0.00    -0.082 SA
BRANCH  15  16
HETATM   16  C4  UNL     1     -22.869  36.432  -2.909  1.00  0.00     0.098 A
HETATM   17  C5  UNL     1     -22.735  36.781  -1.591  1.00  0.00     0.086 A
HETATM   18  C6  UNL     1     -23.239  38.053  -1.473  1.00  0.00     0.147 A
HETATM   19 BR1  UNL     1     -23.360  39.142   0.084  1.00  0.00    -0.021 Br
HETATM   20  O2  UNL     1     -23.639  38.415  -2.648  1.00  0.00    -0.229 OA
HETATM   21  N1  UNL     1     -23.431  37.474  -3.518  1.00  0.00    -0.253 N
ATOM     22  H1  UNL     1     -23.662  37.525  -4.510  1.00  0.00     0.195 HD
ENDBRANCH  15  16
ENDBRANCH  14  15
ENDBRANCH   2  13
TORSDOF 3
ENDMDL