MODEL 3
REMARK VINA RESULT: -7.789261243      4.519      7.113
REMARK  5 active torsions:
REMARK  status: ('A' for Active; 'I' for Inactive)
REMARK    1  A    between atoms: C2_2  and  O1_3
REMARK    2  A    between atoms: O1_3  and  C3_4
REMARK    3  A    between atoms: C3_4  and  C4_6
REMARK    4  A    between atoms: C7_10  and  N1_11
REMARK       I    between atoms: N2_13  and  C8_15
REMARK    5  A    between atoms: C8_15  and  C9_17
REMARK       I    between atoms: C9_17  and  N3_19
ROOT
HETATM    1  N1  UNL     1     -23.859  32.183   4.253  1.00  0.00    -0.294 N
ATOM      2  H1  UNL     1     -24.817  31.956   4.522  1.00  0.00     0.187 HD
HETATM    3  N2  UNL     1     -23.591  32.531   3.068  1.00  0.00    -0.261 N
ATOM      4  H2  UNL     1     -24.340  32.584   2.377  1.00  0.00     0.190 HD
HETATM    5  C8  UNL     1     -22.240  32.853   2.681  1.00  0.00     0.328 C
HETATM    6  O3  UNL     1     -21.370  31.975   2.704  1.00  0.00    -0.261 OA
ENDROOT
BRANCH   1   7
HETATM    7  C7  UNL     1     -22.816  32.114   5.198  1.00  0.00     0.091 A
HETATM    8  C6  UNL     1     -22.410  33.283   5.825  1.00  0.00     0.060 A
HETATM    9  C5  UNL     1     -21.404  33.241   6.741  1.00  0.00     0.069 A
HETATM   10  C4  UNL     1     -20.795  32.007   7.036  1.00  0.00     0.133 A
HETATM   11 CL1  UNL     1     -20.860  34.718   7.560  1.00  0.00    -0.082 Cl
HETATM   12  N5  UNL     1     -21.213  30.898   6.411  1.00  0.00    -0.332 N
HETATM   13  C16 UNL     1     -22.220  30.910   5.488  1.00  0.00     0.147 A
HETATM   14  C17 UNL     1     -20.563  29.629   6.736  1.00  0.00     0.158 C
HETATM   15  N4  UNL     1     -22.607  29.696   4.869  1.00  0.00    -0.080 NA
BRANCH  10  16
HETATM   16  C3  UNL     1     -19.736  32.036   8.018  1.00  0.00     0.311 C
HETATM   17  O2  UNL     1     -18.553  32.212   7.704  1.00  0.00    -0.258 OA
BRANCH  16  18
HETATM   18  O1  UNL     1     -20.022  31.864   9.354  1.00  0.00    -0.317 OA
BRANCH  18  19
HETATM   19  C2  UNL     1     -21.316  31.523   9.830  1.00  0.00     0.175 C
HETATM   20  C1  UNL     1     -21.884  32.724  10.526  1.00  0.00     0.034 C
ENDBRANCH  18  19
ENDBRANCH  16  18
ENDBRANCH  10  16
ENDBRANCH   1   7
BRANCH   5  21
HETATM   21  C9  UNL     1     -21.955  34.205   2.280  1.00  0.00     0.313 C
HETATM   22  O4  UNL     1     -21.928  35.154   3.144  1.00  0.00    -0.262 OA
HETATM   23  N3  UNL     1     -21.697  34.561   0.940  1.00  0.00    -0.344 N
HETATM   24  C10 UNL     1     -21.711  33.551  -0.092  1.00  0.00     0.126 C
HETATM   25  C15 UNL     1     -21.431  35.978   0.735  1.00  0.00     0.126 C
HETATM   26  C11 UNL     1     -21.352  34.201  -1.414  1.00  0.00     0.020 C
HETATM   27  C12 UNL     1     -22.535  34.943  -1.941  1.00  0.00     0.002 C
HETATM   28  C13 UNL     1     -23.334  35.629  -0.867  1.00  0.00     0.002 C
HETATM   29  C14 UNL     1     -22.509  36.619  -0.079  1.00  0.00     0.020 C
ENDBRANCH   5  21
TORSDOF 5
ENDMDL