MODEL 2
REMARK VINA RESULT: -7.565782261      0.898      1.108
REMARK  6 active torsions:
REMARK  status: ('A' for Active; 'I' for Inactive)
REMARK    1  A    between atoms: C2_2  and  O2_4
REMARK    2  A    between atoms: O2_4  and  C3_5
REMARK    3  A    between atoms: C5_7  and  C6_8
REMARK    4  A    between atoms: C11_13  and  O3_14
REMARK    5  A    between atoms: O3_14  and  C12_15
REMARK    6  A    between atoms: C12_15  and  N2_19
ROOT
HETATM    1  C3  UNL     1     -22.117  32.156   2.098  1.00  0.00     0.198 C
HETATM    2  C4  UNL     1     -21.933  31.851   3.559  1.00  0.00     0.013 C
HETATM    3  C5  UNL     1     -21.386  32.872   4.194  1.00  0.00    -0.063 C
HETATM    4  C9  UNL     1     -21.145  33.933   3.238  1.00  0.00     0.048 C
HETATM    5  C10 UNL     1     -19.737  33.891   2.668  1.00  0.00     0.026 C
HETATM    6  C11 UNL     1     -21.412  35.337   3.703  1.00  0.00     0.150 C
HETATM    7  C13 UNL     1     -21.473  36.218   2.492  1.00  0.00     0.071 C
HETATM    8  C14 UNL     1     -22.085  35.620   1.278  1.00  0.00     0.068 C
HETATM    9  C15 UNL     1     -21.892  36.536   0.118  1.00  0.00     0.046 C
HETATM   10  C16 UNL     1     -23.577  35.413   1.584  1.00  0.00     0.119 C
HETATM   11  C17 UNL     1     -23.481  34.158   2.381  1.00  0.00     0.168 C
HETATM   12  O4  UNL     1     -24.371  33.712   3.068  1.00  0.00    -0.294 OA
HETATM   13  C18 UNL     1     -22.133  33.650   2.132  1.00  0.00     0.165 C
HETATM   14  O5  UNL     1     -21.678  34.306   1.019  1.00  0.00    -0.357 OA
ENDROOT
BRANCH   6  15
HETATM   15  O3  UNL     1     -22.530  35.390   4.529  1.00  0.00    -0.313 OA
BRANCH  15  16
HETATM   16  C12 UNL     1     -22.927  36.496   5.250  1.00  0.00     0.259 C
HETATM   17  N1  UNL     1     -21.999  37.160   5.853  1.00  0.00    -0.186 N
HETATM   18  F1  UNL     1     -22.247  38.261   6.592  1.00  0.00    -0.098 F
ATOM     19  H1  UNL     1     -21.035  36.837   5.767  1.00  0.00     0.203 HD
BRANCH  16  20
HETATM   20  N2  UNL     1     -24.297  36.827   5.283  1.00  0.00    -0.262 N
HETATM   21 CL1  UNL     1     -24.992  37.695   3.957  1.00  0.00     0.014 Cl
ATOM     22  H2  UNL     1     -24.873  36.558   6.081  1.00  0.00     0.184 HD
ENDBRANCH  16  20
ENDBRANCH  15  16
ENDBRANCH   6  15
BRANCH   3  23
HETATM   23  C6  UNL     1     -21.052  32.938   5.657  1.00  0.00     0.007 C
HETATM   24  C7  UNL     1     -19.992  31.924   6.031  1.00  0.00     0.014 C
HETATM   25  C8  UNL     1     -22.304  32.636   6.453  1.00  0.00     0.014 C
ENDBRANCH   3  23
BRANCH   1  26
HETATM   26  O2  UNL     1     -21.120  31.621   1.299  1.00  0.00    -0.309 OA
BRANCH  26  27
HETATM   27  C2  UNL     1     -21.299  30.562   0.440  1.00  0.00     0.255 C
HETATM   28  C1  UNL     1     -20.871  30.538  -0.971  1.00  0.00     0.126 C
HETATM   29  O1  UNL     1     -21.877  29.536   0.920  1.00  0.00    -0.266 OA
ENDBRANCH  26  27
ENDBRANCH   1  26
TORSDOF 6
ENDMDL