MODEL 2
REMARK VINA RESULT: -6.601119745      4.117      6.559
REMARK  5 active torsions:
REMARK  status: ('A' for Active; 'I' for Inactive)
REMARK    1  A    between atoms: C2_2  and  C3_3
REMARK    2  A    between atoms: C3_3  and  C5_5
REMARK    3  A    between atoms: C5_5  and  C6_6
REMARK    4  A    between atoms: C6_6  and  C7_7
REMARK       I    between atoms: C7_7  and  N1_9
REMARK    5  A    between atoms: N1_9  and  C8_11
ROOT
HETATM    1  C8  UNL     1      22.193  -7.493   4.339  1.00  0.00     0.131 A
HETATM    2  N2  UNL     1      22.316  -6.182   4.447  1.00  0.00    -0.284 N
ATOM      3  H2  UNL     1      23.086  -5.715   4.928  1.00  0.00     0.188 HD
HETATM    4  N3  UNL     1      21.318  -5.552   3.854  1.00  0.00    -0.295 N
ATOM      5  H3  UNL     1      21.206  -4.539   3.810  1.00  0.00     0.187 HD
HETATM    6  C9  UNL     1      20.465  -6.456   3.313  1.00  0.00     0.103 A
HETATM    7  C10 UNL     1      21.004  -7.687   3.610  1.00  0.00     0.019 A
HETATM    8  C11 UNL     1      20.110  -8.730   3.050  1.00  0.00     0.053 C
HETATM    9  C12 UNL     1      19.374  -8.000   1.952  1.00  0.00     0.090 C
HETATM   10  C13 UNL     1      19.239  -6.645   2.549  1.00  0.00     0.178 C
HETATM   11  O2  UNL     1      18.313  -5.807   2.460  1.00  0.00    -0.291 OA
ENDROOT
BRANCH   1  12
HETATM   12  N1  UNL     1      22.874  -8.490   4.711  1.00  0.00    -0.312 N
HETATM   13  C7  UNL     1      22.356  -9.650   5.346  1.00  0.00     0.223 C
HETATM   14  O1  UNL     1      22.317 -10.706   4.709  1.00  0.00    -0.273 OA
ATOM     15  H1  UNL     1      23.879  -8.460   4.540  1.00  0.00     0.170 HD
BRANCH  13  16
HETATM   16  C6  UNL     1      21.881  -9.572   6.738  1.00  0.00     0.108 C
BRANCH  16  17
HETATM   17  C5  UNL     1      20.434  -9.787   6.943  1.00  0.00     0.047 C
BRANCH  17  18
HETATM   18  C3  UNL     1      19.514  -8.679   6.766  1.00  0.00    -0.068 C
HETATM   19  C4  UNL     1      18.273  -8.905   6.363  1.00  0.00     0.019 C
BRANCH  18  20
HETATM   20  C2  UNL     1      19.870  -7.298   6.972  1.00  0.00    -0.004 C
HETATM   21  C1  UNL     1      19.006  -6.334   6.776  1.00  0.00     0.012 C
ENDBRANCH  18  20
ENDBRANCH  17  18
ENDBRANCH  16  17
ENDBRANCH  13  16
ENDBRANCH   1  12
TORSDOF 5
ENDMDL