MODEL 5
REMARK VINA RESULT: -5.038780554      2.066      3.005
REMARK  5 active torsions:
REMARK  status: ('A' for Active; 'I' for Inactive)
REMARK    1  A    between atoms: C2_2  and  C3_3
REMARK    2  A    between atoms: C3_3  and  C4_4
REMARK    3  A    between atoms: C4_4  and  N5_14
REMARK    4  A    between atoms: N1_5  and  C5_7
REMARK    5  A    between atoms: C5_7  and  N2_9
ROOT
HETATM    1  C4  UNL     1      21.645  -9.123   5.681  1.00  0.00     0.084 C
HETATM    2  N1  UNL     1      22.553  -9.982   5.861  1.00  0.00    -0.323 N
ATOM      3  H1  UNL     1      22.626 -10.369   6.801  1.00  0.00     0.169 HD
ENDROOT
BRANCH   1   4
HETATM    4  C3  UNL     1      20.764  -8.734   6.804  1.00  0.00     0.102 C
BRANCH   4   5
HETATM    5  C2  UNL     1      19.416  -9.318   6.702  1.00  0.00    -0.029 C
HETATM    6  C1  UNL     1      18.380  -8.529   6.564  1.00  0.00     0.007 C
ENDBRANCH   4   5
ENDBRANCH   1   4
BRANCH   1   7
HETATM    7  N5  UNL     1      21.447  -8.517   4.418  1.00  0.00    -0.370 N
HETATM    8  C7  UNL     1      20.786  -9.144   3.295  1.00  0.00     0.124 C
HETATM    9  C8  UNL     1      19.456  -8.451   3.097  1.00  0.00     0.020 C
HETATM   10  C9  UNL     1      19.583  -6.987   3.382  1.00  0.00     0.003 C
HETATM   11  C10 UNL     1      21.007  -6.483   3.177  1.00  0.00     0.020 C
HETATM   12  C11 UNL     1      21.932  -7.148   4.185  1.00  0.00     0.124 C
ENDBRANCH   1   7
BRANCH   2  13
HETATM   13  C5  UNL     1      23.472 -10.465   4.917  1.00  0.00     0.179 C
HETATM   14  S1  UNL     1      24.838  -9.696   4.466  1.00  0.00    -0.040 SA
BRANCH  13  15
HETATM   15  N2  UNL     1      23.209 -11.718   4.301  1.00  0.00    -0.310 N
HETATM   16  C6  UNL     1      23.169 -12.838   4.888  1.00  0.00     0.203 C
HETATM   17  N3  UNL     1      22.890 -13.999   4.116  1.00  0.00    -0.066 NA
HETATM   18  N4  UNL     1      23.386 -13.015   6.279  1.00  0.00    -0.066 NA
ATOM     19  H2  UNL     1      23.036 -11.714   3.296  1.00  0.00     0.170 HD
ENDBRANCH  13  15
ENDBRANCH   2  13
TORSDOF 5
ENDMDL