MODEL 2
REMARK VINA RESULT: -5.469921429      0.554      1.398
REMARK  4 active torsions:
REMARK  status: ('A' for Active; 'I' for Inactive)
REMARK    1  A    between atoms: C2_2  and  N1_3
REMARK    2  A    between atoms: N1_3  and  C3_4
REMARK       I    between atoms: N1_3  and  C5_6
REMARK       I    between atoms: N3_8  and  C6_10
REMARK    3  A    between atoms: C6_10  and  C7_12
REMARK       I    between atoms: C7_12  and  N4_14
REMARK    4  A    between atoms: N4_14  and  C8_16
ROOT
HETATM    1  N1  UNL     1      22.922 -14.736   6.968  1.00  0.00    -0.356 N
HETATM    2  C5  UNL     1      22.560 -13.458   7.455  1.00  0.00     0.193 C
HETATM    3  N2  UNL     1      21.563 -13.385   8.453  1.00  0.00    -0.063 NA
HETATM    4  N3  UNL     1      23.164 -12.406   6.961  1.00  0.00    -0.293 N
ATOM      5  H3  UNL     1      23.882 -12.479   6.241  1.00  0.00     0.172 HD
HETATM    6  C6  UNL     1      22.749 -11.151   7.499  1.00  0.00     0.315 C
HETATM    7  O1  UNL     1      23.085 -10.909   8.685  1.00  0.00    -0.262 OA
ENDROOT
BRANCH   6   8
HETATM    8  C7  UNL     1      21.980 -10.175   6.757  1.00  0.00     0.310 C
HETATM    9  O2  UNL     1      22.499  -9.609   5.765  1.00  0.00    -0.262 OA
HETATM   10  N4  UNL     1      20.660  -9.841   7.119  1.00  0.00    -0.345 N
ATOM     11  H4  UNL     1      20.239 -10.300   7.927  1.00  0.00     0.163 HD
BRANCH  10  12
HETATM   12  C8  UNL     1      19.883  -8.869   6.383  1.00  0.00     0.022 C
HETATM   13  C9  UNL     1      20.143  -9.051   4.905  1.00  0.00     0.037 C
HETATM   14  C10 UNL     1      18.396  -9.019   6.597  1.00  0.00     0.037 C
HETATM   15  C11 UNL     1      20.316  -7.495   6.788  1.00  0.00     0.037 C
ENDBRANCH  10  12
ENDBRANCH   6   8
BRANCH   1  16
HETATM   16  C2  UNL     1      24.282 -15.187   7.230  1.00  0.00     0.121 C
HETATM   17  C1  UNL     1      24.840 -15.825   5.978  1.00  0.00     0.026 C
ENDBRANCH   1  16
BRANCH   1  18
HETATM   18  C3  UNL     1      21.969 -15.542   6.261  1.00  0.00     0.121 C
HETATM   19  C4  UNL     1      21.357 -16.549   7.200  1.00  0.00     0.026 C
ENDBRANCH   1  18
TORSDOF 4
ENDMDL