MODEL 1
REMARK VINA RESULT: -5.874537644      0.000      0.000
REMARK  5 active torsions:
REMARK  status: ('A' for Active; 'I' for Inactive)
REMARK    1  A    between atoms: C4_4  and  C5_5
REMARK       I    between atoms: C5_5  and  N1_7
REMARK    2  A    between atoms: N1_7  and  C6_9
REMARK    3  A    between atoms: C6_9  and  C7_10
REMARK    4  A    between atoms: C8_11  and  C9_12
REMARK    5  A    between atoms: C9_12  and  N2_13
ROOT
HETATM    1  C5  UNL     1      22.642 -10.874   7.487  1.00  0.00     0.268 C
HETATM    2  O1  UNL     1      23.041 -10.952   8.666  1.00  0.00    -0.266 OA
HETATM    3  N1  UNL     1      23.117 -11.791   6.534  1.00  0.00    -0.345 N
ATOM      4  H1  UNL     1      22.783 -11.716   5.573  1.00  0.00     0.163 HD
ENDROOT
BRANCH   1   5
HETATM    5  C4  UNL     1      21.698  -9.848   7.112  1.00  0.00     0.101 A
HETATM    6  C3  UNL     1      20.309  -9.979   7.070  1.00  0.00     0.044 A
HETATM    7  C2  UNL     1      19.736  -8.791   6.667  1.00  0.00    -0.037 A
HETATM    8  C1  UNL     1      18.266  -8.516   6.494  1.00  0.00     0.050 C
HETATM    9  C13 UNL     1      20.784  -7.928   6.460  1.00  0.00     0.011 A
HETATM   10  N3  UNL     1      21.925  -8.569   6.727  1.00  0.00    -0.355 N
HETATM   11  C14 UNL     1      20.634  -6.519   6.012  1.00  0.00     0.068 C
ATOM     12  H3  UNL     1      22.851  -8.148   6.651  1.00  0.00     0.166 HD
ENDBRANCH   1   5
BRANCH   3  13
HETATM   13  C6  UNL     1      24.062 -12.838   6.861  1.00  0.00     0.217 C
BRANCH  13  14
HETATM   14  C7  UNL     1      23.382 -14.019   7.394  1.00  0.00    -0.085 C
HETATM   15  C8  UNL     1      22.815 -14.982   7.850  1.00  0.00    -0.077 C
BRANCH  15  16
HETATM   16  C9  UNL     1      22.127 -16.156   8.432  1.00  0.00     0.329 C
BRANCH  16  17
HETATM   17  N2  UNL     1      21.606 -16.986   7.352  1.00  0.00    -0.069 N
HETATM   18  C10 UNL     1      22.734 -17.677   6.746  1.00  0.00     0.272 C
HETATM   19  C11 UNL     1      20.783 -18.009   7.977  1.00  0.00     0.272 C
HETATM   20  C12 UNL     1      20.876 -16.199   6.402  1.00  0.00     0.272 C
ENDBRANCH  16  17
ENDBRANCH  15  16
ENDBRANCH  13  14
ENDBRANCH   3  13
TORSDOF 5
ENDMDL