MODEL 4
REMARK VINA RESULT: -5.262799357      0.630      1.963
REMARK  4 active torsions:
REMARK  status: ('A' for Active; 'I' for Inactive)
REMARK    1  A    between atoms: C2_2  and  C3_3
REMARK    2  A    between atoms: C3_3  and  N1_4
REMARK    3  A    between atoms: C7_8  and  N2_9
REMARK       I    between atoms: N2_9  and  C8_11
REMARK       I    between atoms: C8_11  and  N4_16
REMARK    4  A    between atoms: N3_12  and  C9_14
ROOT
HETATM    1  N1  UNL     1      20.908  -9.138   5.386  1.00  0.00    -0.341 N
HETATM    2  C4  UNL     1      21.828  -9.313   4.411  1.00  0.00     0.012 A
HETATM    3  C5  UNL     1      23.220  -9.565   4.779  1.00  0.00     0.068 C
HETATM    4  C6  UNL     1      21.464  -9.260   3.080  1.00  0.00     0.073 A
HETATM    5  C7  UNL     1      20.152  -9.023   2.762  1.00  0.00     0.124 A
HETATM    6  N5  UNL     1      19.255  -8.852   3.729  1.00  0.00    -0.332 N
ATOM      7  H5  UNL     1      18.278  -8.677   3.493  1.00  0.00     0.168 HD
HETATM    8  C12 UNL     1      19.633  -8.909   5.012  1.00  0.00     0.081 A
HETATM    9  C13 UNL     1      18.620  -8.721   6.078  1.00  0.00     0.089 C
ENDROOT
BRANCH   5  10
HETATM   10  N2  UNL     1      19.713  -8.954   1.538  1.00  0.00    -0.177 N
HETATM   11  C8  UNL     1      19.035  -7.752   1.182  1.00  0.00     0.675 C
HETATM   12  N3  UNL     1      17.754  -7.677   1.138  1.00  0.00    -0.227 N
HETATM   13  N4  UNL     1      19.832  -6.629   0.874  1.00  0.00    -0.231 N
ATOM     14  H3  UNL     1      17.176  -8.487   1.361  1.00  0.00     0.177 HD
HETATM   15  C11 UNL     1      20.969  -6.806   0.010  1.00  0.00     0.165 C
ATOM     16  H4  UNL     1      19.607  -5.710   1.256  1.00  0.00     0.177 HD
ATOM     17  H2  UNL     1      19.846  -9.716   0.873  1.00  0.00     0.185 HD
BRANCH  12  18
HETATM   18  C9  UNL     1      17.150  -6.420   0.767  1.00  0.00     0.133 C
HETATM   19  C10 UNL     1      15.890  -6.746  -0.019  1.00  0.00     0.027 C
ENDBRANCH  12  18
ENDBRANCH   5  10
BRANCH   1  20
HETATM   20  C3  UNL     1      21.320  -9.201   6.746  1.00  0.00     0.130 C
BRANCH  20  21
HETATM   21  C2  UNL     1      21.166 -10.540   7.408  1.00  0.00     0.016 C
HETATM   22  C1  UNL     1      22.542 -10.890   7.990  1.00  0.00     0.006 C
ENDBRANCH  20  21
ENDBRANCH   1  20
TORSDOF 4
ENDMDL