MODEL 5
REMARK VINA RESULT: -5.200071829      2.577      3.413
REMARK  3 active torsions:
REMARK  status: ('A' for Active; 'I' for Inactive)
REMARK    1  A    between atoms: C2_2  and  C3_3
REMARK    2  A    between atoms: C3_3  and  C4_4
REMARK    3  A    between atoms: C4_4  and  N1_5
REMARK       I    between atoms: N1_5  and  C5_7
REMARK       I    between atoms: C5_7  and  N2_9
ROOT
HETATM    1  N1  UNL     1      22.023  -9.473   6.453  1.00  0.00    -0.343 N
ATOM      2  H1  UNL     1      22.548  -9.156   5.638  1.00  0.00     0.164 HD
HETATM    3  C5  UNL     1      22.452 -10.609   7.193  1.00  0.00     0.318 C
HETATM    4  O1  UNL     1      21.775 -10.972   8.199  1.00  0.00    -0.247 OA
HETATM    5  N2  UNL     1      23.613 -11.292   6.786  1.00  0.00    -0.331 N
HETATM    6  C6  UNL     1      24.055 -12.446   7.539  1.00  0.00     0.155 C
HETATM    7  C7  UNL     1      25.566 -12.428   7.477  1.00  0.00     0.257 C
HETATM    8  N3  UNL     1      26.127 -12.565   6.181  1.00  0.00    -0.064 N
HETATM    9  C8  UNL     1      27.452 -11.917   6.222  1.00  0.00     0.237 C
HETATM   10  C9  UNL     1      28.283 -12.877   7.011  1.00  0.00     0.029 C
HETATM   11  C10 UNL     1      27.677 -14.235   6.749  1.00  0.00     0.029 C
HETATM   12  C11 UNL     1      26.487 -13.931   5.851  1.00  0.00     0.237 C
HETATM   13  C12 UNL     1      25.320 -11.970   5.176  1.00  0.00     0.257 C
HETATM   14  C13 UNL     1      24.374 -10.888   5.651  1.00  0.00     0.155 C
ENDROOT
BRANCH   1  15
HETATM   15  C4  UNL     1      20.831  -8.776   6.878  1.00  0.00     0.124 C
BRANCH  15  16
HETATM   16  C3  UNL     1      19.594  -9.305   6.179  1.00  0.00     0.019 C
BRANCH  16  17
HETATM   17  C2  UNL     1      18.392  -8.459   6.540  1.00  0.00    -0.003 C
HETATM   18  C1  UNL     1      18.816  -7.015   6.684  1.00  0.00     0.005 C
ENDBRANCH  16  17
ENDBRANCH  15  16
ENDBRANCH   1  15
TORSDOF 3
ENDMDL