MODEL 4
REMARK VINA RESULT: -5.964615554      2.811      4.771
REMARK  6 active torsions:
REMARK  status: ('A' for Active; 'I' for Inactive)
REMARK    1  A    between atoms: C3_3  and  C4_4
REMARK    2  A    between atoms: C5_5  and  C6_6
REMARK    3  A    between atoms: C8_12  and  N3_13
REMARK       I    between atoms: N3_13  and  C9_15
REMARK    4  A    between atoms: C9_15  and  C10_17
REMARK    5  A    between atoms: C10_17  and  C11_18
REMARK    6  A    between atoms: C11_18  and  C12_19
ROOT
HETATM    1  C1  UNL     1      17.790  -3.698   3.060  1.00  0.00     0.017 C
HETATM    2  C2  UNL     1      18.309  -3.158   4.007  1.00  0.00    -0.088 C
HETATM    3  C3  UNL     1      18.941  -2.505   5.113  1.00  0.00     0.081 C
ENDROOT
BRANCH   3   4
HETATM    4  C4  UNL     1      18.619  -2.686   6.374  1.00  0.00     0.045 A
HETATM    5  C5  UNL     1      17.623  -2.051   7.073  1.00  0.00     0.058 A
HETATM    6  N1  UNL     1      17.630  -2.528   8.331  1.00  0.00    -0.299 N
HETATM    7  N2  UNL     1      18.590  -3.441   8.460  1.00  0.00    -0.284 N
ATOM      8  H1  UNL     1      16.996  -2.234   9.074  1.00  0.00     0.187 HD
HETATM    9  C8  UNL     1      19.228  -3.575   7.282  1.00  0.00     0.135 A
ATOM     10  H2  UNL     1      18.806  -3.955   9.314  1.00  0.00     0.188 HD
BRANCH   5  11
HETATM   11  C6  UNL     1      16.809  -1.132   6.571  1.00  0.00     0.001 C
HETATM   12  C7  UNL     1      15.354  -1.144   6.868  1.00  0.00     0.038 C
ENDBRANCH   5  11
BRANCH   9  13
HETATM   13  N3  UNL     1      20.200  -4.320   6.938  1.00  0.00    -0.311 N
HETATM   14  C9  UNL     1      20.236  -5.506   6.231  1.00  0.00     0.223 C
HETATM   15  O1  UNL     1      21.405  -5.976   5.965  1.00  0.00    -0.273 OA
ATOM     16  H3  UNL     1      21.115  -3.982   7.237  1.00  0.00     0.170 HD
BRANCH  14  17
HETATM   17  C10 UNL     1      19.111  -6.312   5.736  1.00  0.00     0.103 C
BRANCH  17  18
HETATM   18  C11 UNL     1      18.688  -7.377   6.755  1.00  0.00     0.013 C
BRANCH  18  19
HETATM   19  C12 UNL     1      18.868  -8.762   6.168  1.00  0.00    -0.022 C
HETATM   20  C13 UNL     1      19.041  -8.710   4.676  1.00  0.00     0.009 C
HETATM   21  C14 UNL     1      20.025  -9.495   6.788  1.00  0.00     0.009 C
ENDBRANCH  18  19
ENDBRANCH  17  18
ENDBRANCH  14  17
ENDBRANCH   9  13
ENDBRANCH   3   4
TORSDOF 6
ENDMDL