MODEL 2
REMARK VINA RESULT: -9.048052703      2.937      7.196
REMARK  12 active torsions:
REMARK  status: ('A' for Active; 'I' for Inactive)
REMARK    1  A    between atoms: C2_2  and  C5_5
REMARK    2  A    between atoms: C8_9  and  C9_10
REMARK    3  A    between atoms: C9_10  and  N1_11
REMARK    4  A    between atoms: N2_16  and  C11_17
REMARK    5  A    between atoms: C11_17  and  C12_18
REMARK    6  A    between atoms: C12_18  and  C13_19
REMARK    7  A    between atoms: C13_19  and  C14_20
REMARK    8  A    between atoms: C14_20  and  C15_21
REMARK    9  A    between atoms: C15_21  and  C16_22
REMARK   10  A    between atoms: C16_22  and  C17_23
REMARK   11  A    between atoms: C17_23  and  C18_24
REMARK   12  A    between atoms: C18_24  and  N3_25
ROOT
HETATM    1  C12 UNL     1     -10.174  26.514  14.573  1.00  0.00     0.045 C
ENDROOT
BRANCH   1   2
HETATM    2  C11 UNL     1     -11.209  25.399  14.512  1.00  0.00     0.069 C
BRANCH   2   3
HETATM    3  N2  UNL     1     -10.761  24.082  14.366  1.00  0.00    -0.337 N
HETATM    4  C5  UNL     1     -11.527  22.991  14.401  1.00  0.00     0.040 A
HETATM    5  C6  UNL     1     -10.925  21.709  14.184  1.00  0.00     0.035 A
HETATM    6 BR1  UNL     1     -11.934  20.086  14.191  1.00  0.00    -0.049 Br
HETATM    7  C7  UNL     1      -9.586  21.593  13.946  1.00  0.00     0.031 A
HETATM    8  C8  UNL     1      -8.805  22.710  13.913  1.00  0.00    -0.016 A
HETATM    9  C10 UNL     1      -9.420  23.910  14.124  1.00  0.00     0.105 A
BRANCH   4  10
HETATM   10  C2  UNL     1     -12.935  22.910  14.684  1.00  0.00    -0.007 C
HETATM   11  C1  UNL     1     -13.284  24.122  15.589  1.00  0.00     0.021 C
HETATM   12  C3  UNL     1     -13.555  21.772  15.418  1.00  0.00     0.021 C
HETATM   13  C4  UNL     1     -13.782  23.156  13.394  1.00  0.00     0.021 C
ENDBRANCH   4  10
BRANCH   8  14
HETATM   14  C9  UNL     1      -7.332  22.639  13.658  1.00  0.00     0.269 C
BRANCH  14  15
HETATM   15  N1  UNL     1      -7.064  23.436  12.466  1.00  0.00    -0.075 N
ATOM     16  H13 UNL     1      -6.427  22.980  11.813  1.00  0.00     0.274 HD
ATOM     17  H12 UNL     1      -7.867  23.503  11.840  1.00  0.00     0.274 HD
ATOM     18  H11 UNL     1      -6.728  24.345  12.783  1.00  0.00     0.274 HD
ENDBRANCH  14  15
ENDBRANCH   8  14
ENDBRANCH   2   3
ENDBRANCH   1   2
BRANCH   1  19
HETATM   19  C13 UNL     1      -9.693  26.854  15.909  1.00  0.00     0.005 C
BRANCH  19  20
HETATM   20  C14 UNL     1      -9.101  28.190  16.072  1.00  0.00     0.000 C
BRANCH  20  21
HETATM   21  C15 UNL     1      -7.676  28.481  16.080  1.00  0.00     0.000 C
BRANCH  21  22
HETATM   22  C16 UNL     1      -6.716  27.444  15.673  1.00  0.00     0.002 C
BRANCH  22  23
HETATM   23  C17 UNL     1      -6.258  27.615  14.220  1.00  0.00     0.022 C
BRANCH  23  24
HETATM   24  C18 UNL     1      -4.744  27.593  14.246  1.00  0.00     0.149 C
BRANCH  24  25
HETATM   25  N3  UNL     1      -4.222  26.489  13.489  1.00  0.00    -0.289 N
HETATM   26  N4  UNL     1      -3.791  26.599  12.240  1.00  0.00    -0.263 N
HETATM   27  C19 UNL     1      -3.377  25.391  11.840  1.00  0.00     0.272 A
ATOM     28  H4  UNL     1      -3.778  27.453  11.683  1.00  0.00     0.190 HD
HETATM   29  O1  UNL     1      -2.906  25.094  10.728  1.00  0.00    -0.266 OA
HETATM   30  C20 UNL     1      -3.562  24.517  12.878  1.00  0.00     0.061 A
HETATM   31  C21 UNL     1      -3.333  23.173  13.066  1.00  0.00     0.019 A
HETATM   32  C25 UNL     1      -4.108  25.236  13.936  1.00  0.00     0.066 A
HETATM   33  C22 UNL     1      -3.622  22.536  14.248  1.00  0.00     0.001 A
HETATM   34  C23 UNL     1      -4.164  23.275  15.285  1.00  0.00     0.002 A
HETATM   35  C24 UNL     1      -4.415  24.632  15.146  1.00  0.00     0.032 A
ENDBRANCH  24  25
ENDBRANCH  23  24
ENDBRANCH  22  23
ENDBRANCH  21  22
ENDBRANCH  20  21
ENDBRANCH  19  20
ENDBRANCH   1  19
TORSDOF 12
ENDMDL