MODEL 3
REMARK VINA RESULT: -8.460678704      1.036      1.189
REMARK  12 active torsions:
REMARK  status: ('A' for Active; 'I' for Inactive)
REMARK    1  A    between atoms: C2_2  and  C3_3
REMARK    2  A    between atoms: C3_3  and  C4_4
REMARK    3  A    between atoms: C4_4  and  C5_5
REMARK    4  A    between atoms: C5_5  and  C6_6
REMARK    5  A    between atoms: C6_6  and  N1_7
REMARK    6  A    between atoms: N1_7  and  C7_8
REMARK    7  A    between atoms: N1_7  and  C11_12
REMARK    8  A    between atoms: C7_8  and  C8_9
REMARK    9  A    between atoms: C8_9  and  C9_10
REMARK   10  A    between atoms: C11_12  and  C12_13
REMARK   11  A    between atoms: C24_28  and  C25_29
REMARK   12  A    between atoms: C26_30  and  O1_32
ROOT
HETATM    1  C12 UNL     1      -1.758  24.101  12.643  1.00  0.00     0.110 C
HETATM    2  C13 UNL     1      -2.587  23.047  13.255  1.00  0.00     0.099 C
HETATM    3  C14 UNL     1      -4.028  23.508  13.319  1.00  0.00     0.019 A
HETATM    4  N2  UNL     1      -5.020  22.969  14.049  1.00  0.00    -0.358 N
ATOM      5  H2  UNL     1      -4.941  22.164  14.670  1.00  0.00     0.166 HD
HETATM    6  C15 UNL     1      -6.154  23.693  13.809  1.00  0.00     0.044 A
HETATM    7  C16 UNL     1      -7.401  23.516  14.326  1.00  0.00     0.049 A
HETATM    8  C17 UNL     1      -8.401  24.397  13.919  1.00  0.00     0.013 A
HETATM    9 BR1  UNL     1     -10.154  24.141  14.652  1.00  0.00    -0.051 Br
HETATM   10  C18 UNL     1      -8.117  25.398  13.030  1.00  0.00     0.020 A
HETATM   11  C19 UNL     1      -6.857  25.557  12.524  1.00  0.00     0.015 A
HETATM   12  C20 UNL     1      -5.835  24.706  12.900  1.00  0.00    -0.001 A
HETATM   13  C21 UNL     1      -4.506  24.582  12.601  1.00  0.00    -0.022 A
HETATM   14  C22 UNL     1      -3.619  25.399  11.682  1.00  0.00     0.054 C
HETATM   15  C23 UNL     1      -2.519  24.451  11.314  1.00  0.00     0.066 C
HETATM   16  C24 UNL     1      -1.503  24.844  10.386  1.00  0.00     0.028 C
HETATM   17  C27 UNL     1      -0.241  24.807  11.208  1.00  0.00     0.290 C
HETATM   18  O2  UNL     1       0.752  25.546  11.072  1.00  0.00    -0.260 OA
HETATM   19  O3  UNL     1      -0.508  23.751  12.114  1.00  0.00    -0.303 OA
ENDROOT
BRANCH   1  20
HETATM   20  C11 UNL     1      -1.608  25.363  13.460  1.00  0.00     0.312 C
BRANCH  20  21
HETATM   21  N1  UNL     1      -1.551  25.225  14.865  1.00  0.00     0.091 N
BRANCH  21  22
HETATM   22  C6  UNL     1      -2.193  26.124  15.720  1.00  0.00     0.272 C
BRANCH  22  23
HETATM   23  C5  UNL     1      -3.274  26.983  15.088  1.00  0.00     0.030 C
BRANCH  23  24
HETATM   24  C4  UNL     1      -4.594  26.467  15.687  1.00  0.00     0.002 C
BRANCH  24  25
HETATM   25  C3  UNL     1      -5.678  27.478  15.558  1.00  0.00    -0.000 C
BRANCH  25  26
HETATM   26  C2  UNL     1      -6.986  27.112  16.175  1.00  0.00    -0.005 C
HETATM   27  C1  UNL     1      -8.127  27.982  15.729  1.00  0.00     0.005 C
ENDBRANCH  25  26
ENDBRANCH  24  25
ENDBRANCH  23  24
ENDBRANCH  22  23
ENDBRANCH  21  22
BRANCH  21  28
HETATM   28  C7  UNL     1      -0.169  24.961  15.217  1.00  0.00     0.272 C
BRANCH  28  29
HETATM   29  C8  UNL     1       0.093  23.604  15.771  1.00  0.00     0.030 C
BRANCH  29  30
HETATM   30  C9  UNL     1       1.468  23.090  15.321  1.00  0.00    -0.003 C
HETATM   31  C10 UNL     1       2.089  24.074  14.364  1.00  0.00     0.005 C
ENDBRANCH  29  30
ENDBRANCH  28  29
ENDBRANCH  21  28
ENDBRANCH  20  21
ENDBRANCH   1  20
BRANCH  16  32
HETATM   32  C25 UNL     1      -1.422  25.089   9.089  1.00  0.00     0.066 C
HETATM   33  C26 UNL     1      -1.281  26.374   8.477  1.00  0.00     0.150 C
HETATM   34  N3  UNL     1      -1.239  27.632   9.081  1.00  0.00    -0.075 NA
BRANCH  33  35
HETATM   35  O1  UNL     1      -1.178  26.382   7.179  1.00  0.00    -0.348 OA
ATOM     36  H1  UNL     1      -1.106  27.236   6.771  1.00  0.00     0.219 HD
ENDBRANCH  33  35
ENDBRANCH  16  32
TORSDOF 12
ENDMDL