MODEL 5
REMARK VINA RESULT: -9.768425751      1.955      2.727
REMARK  11 active torsions:
REMARK  status: ('A' for Active; 'I' for Inactive)
REMARK    1  A    between atoms: C3_3  and  N2_32
REMARK    2  A    between atoms: C4_4  and  C5_5
REMARK    3  A    between atoms: C5_5  and  C6_6
REMARK    4  A    between atoms: C6_6  and  C7_7
REMARK    5  A    between atoms: C7_7  and  C8_8
REMARK    6  A    between atoms: C8_8  and  C9_9
REMARK    7  A    between atoms: C9_9  and  C10_10
REMARK    8  A    between atoms: C15_15  and  C16_16
REMARK    9  A    between atoms: C17_17  and  C18_18
REMARK   10  A    between atoms: C20_20  and  C21_21
REMARK   11  A    between atoms: N2_32  and  S1_34
ROOT
HETATM    1  C1  UNL     1      -2.752  27.959  16.374  1.00  0.00     0.019 C
HETATM    2  C2  UNL     1      -2.610  27.065  15.568  1.00  0.00    -0.059 C
HETATM    3  C3  UNL     1      -2.465  26.014  14.603  1.00  0.00     0.091 C
HETATM    4  C4  UNL     1      -3.185  26.035  13.501  1.00  0.00     0.013 C
ENDROOT
BRANCH   3   5
HETATM    5  N2  UNL     1      -1.535  24.985  14.889  1.00  0.00    -0.277 N
ATOM      6  H2  UNL     1      -1.804  24.242  15.535  1.00  0.00     0.179 HD
BRANCH   5   7
HETATM    7  S1  UNL     1       0.038  24.944  14.181  1.00  0.00     0.227 S
HETATM    8  C28 UNL     1       1.250  24.876  15.494  1.00  0.00     0.186 C
HETATM    9  O2  UNL     1       0.156  23.774  13.254  1.00  0.00    -0.206 OA
HETATM   10  O3  UNL     1       0.315  26.195  13.407  1.00  0.00    -0.206 OA
ENDBRANCH   5   7
ENDBRANCH   3   5
BRANCH   4  11
HETATM   11  C5  UNL     1      -3.103  24.986  12.438  1.00  0.00     0.030 C
BRANCH  11  12
HETATM   12  C6  UNL     1      -4.200  23.995  12.581  1.00  0.00     0.004 C
BRANCH  12  13
HETATM   13  C7  UNL     1      -3.860  22.821  13.384  1.00  0.00     0.000 C
BRANCH  13  14
HETATM   14  C8  UNL     1      -4.630  22.351  14.522  1.00  0.00     0.002 C
BRANCH  14  15
HETATM   15  C9  UNL     1      -4.590  23.052  15.837  1.00  0.00     0.025 C
BRANCH  15  16
HETATM   16  C10 UNL     1      -5.960  23.721  15.992  1.00  0.00     0.086 C
HETATM   17  C11 UNL     1      -6.904  23.312  14.893  1.00  0.00     0.044 C
HETATM   18  C12 UNL     1      -8.299  23.725  15.401  1.00  0.00     0.014 C
HETATM   19  C13 UNL     1      -8.548  22.976  16.665  1.00  0.00     0.025 C
HETATM   20  C14 UNL     1      -9.330  23.290  14.399  1.00  0.00    -0.067 C
HETATM   21  C26 UNL     1      -8.322  25.190  15.555  1.00  0.00     0.024 C
HETATM   22  C15 UNL     1      -9.530  21.998  14.188  1.00  0.00     0.004 C
HETATM   23  C22 UNL     1     -10.090  24.322  13.691  1.00  0.00     0.039 C
HETATM   24  C23 UNL     1     -10.624  25.360  14.709  1.00  0.00     0.039 C
HETATM   25  C24 UNL     1      -9.344  25.966  15.256  1.00  0.00    -0.071 C
HETATM   26  C25 UNL     1      -9.261  27.435  15.442  1.00  0.00     0.044 C
HETATM   27  C27 UNL     1      -7.115  25.873  16.099  1.00  0.00     0.249 C
HETATM   28  O1  UNL     1      -7.149  26.981  16.648  1.00  0.00    -0.268 OA
HETATM   29  N1  UNL     1      -5.876  25.155  15.947  1.00  0.00    -0.352 N
ATOM     30  H1  UNL     1      -4.987  25.638  15.815  1.00  0.00     0.163 HD
BRANCH  22  31
HETATM   31  C16 UNL     1     -10.478  21.473  13.264  1.00  0.00     0.001 C
HETATM   32  C17 UNL     1     -11.639  20.933  13.436  1.00  0.00     0.006 C
BRANCH  32  33
HETATM   33  C18 UNL     1     -12.436  20.643  14.595  1.00  0.00    -0.065 C
HETATM   34  C19 UNL     1     -12.386  19.312  15.292  1.00  0.00     0.048 C
HETATM   35  C20 UNL     1     -13.261  21.539  15.118  1.00  0.00    -0.005 C
BRANCH  35  36
HETATM   36  C21 UNL     1     -13.475  22.894  14.616  1.00  0.00     0.142 C
HETATM   37 CL1  UNL     1     -13.285  24.092  15.947  1.00  0.00    -0.126 Cl
ENDBRANCH  35  36
ENDBRANCH  32  33
ENDBRANCH  22  31
ENDBRANCH  15  16
ENDBRANCH  14  15
ENDBRANCH  13  14
ENDBRANCH  12  13
ENDBRANCH  11  12
ENDBRANCH   4  11
TORSDOF 11
ENDMDL