MODEL 4
REMARK VINA RESULT: -9.183756321      3.103      8.932
REMARK  12 active torsions:
REMARK  status: ('A' for Active; 'I' for Inactive)
REMARK    1  A    between atoms: C2_2  and  C3_3
REMARK    2  A    between atoms: C3_3  and  O1_4
REMARK    3  A    between atoms: C3_3  and  C4_6
REMARK    4  A    between atoms: C5_7  and  C6_8
REMARK    5  A    between atoms: C5_7  and  C26_33
REMARK    6  A    between atoms: C7_9  and  C8_10
REMARK    7  A    between atoms: C14_17  and  C15_18
REMARK       I    between atoms: C15_18  and  N1_20
REMARK    8  A    between atoms: N1_20  and  C16_22
REMARK    9  A    between atoms: C16_22  and  C17_23
REMARK   10  A    between atoms: C17_23  and  N2_24
REMARK   11  A    between atoms: C26_33  and  C27_34
REMARK   12  A    between atoms: C27_34  and  C28_35
ROOT
HETATM    1  C8  UNL     1      -6.090  26.449  14.119  1.00  0.00    -0.021 C
HETATM    2  C9  UNL     1      -5.887  27.721  13.257  1.00  0.00     0.020 C
HETATM    3  C10 UNL     1      -5.439  26.685  15.440  1.00  0.00     0.018 C
HETATM    4  C11 UNL     1      -6.549  27.147  16.417  1.00  0.00    -0.008 C
HETATM    5  C12 UNL     1      -7.075  26.010  17.205  1.00  0.00     0.026 C
HETATM    6  C13 UNL     1      -7.606  24.882  16.334  1.00  0.00     0.101 C
HETATM    7 CL1  UNL     1      -6.366  23.687  16.143  1.00  0.00    -0.124 Cl
HETATM    8  C14 UNL     1      -8.269  25.424  15.101  1.00  0.00     0.062 C
HETATM    9  C21 UNL     1      -9.610  26.017  15.632  1.00  0.00     0.021 C
HETATM   10  C22 UNL     1      -9.842  27.416  15.163  1.00  0.00     0.002 C
HETATM   11  C23 UNL     1      -8.772  28.244  15.859  1.00  0.00     0.005 C
HETATM   12  C24 UNL     1      -7.487  27.717  15.406  1.00  0.00    -0.004 C
HETATM   13  C25 UNL     1      -7.550  26.513  14.444  1.00  0.00     0.021 C
ENDROOT
BRANCH   1  14
HETATM   14  C7  UNL     1      -5.596  25.359  13.365  1.00  0.00    -0.017 C
HETATM   15  C6  UNL     1      -4.516  25.051  12.778  1.00  0.00     0.004 C
BRANCH  15  16
HETATM   16  C5  UNL     1      -3.191  25.376  12.422  1.00  0.00    -0.059 C
HETATM   17  C4  UNL     1      -2.972  25.805  11.113  1.00  0.00     0.011 C
BRANCH  17  18
HETATM   18  C3  UNL     1      -1.699  26.175  10.563  1.00  0.00     0.141 C
BRANCH  18  19
HETATM   19  C2  UNL     1      -1.156  25.085   9.606  1.00  0.00     0.031 C
HETATM   20  C1  UNL     1       0.353  25.054   9.677  1.00  0.00     0.008 C
ENDBRANCH  18  19
BRANCH  18  21
HETATM   21  O1  UNL     1      -1.752  27.342   9.804  1.00  0.00    -0.392 OA
ATOM     22  H1  UNL     1      -1.137  27.938  10.214  1.00  0.00     0.210 HD
ENDBRANCH  18  21
ENDBRANCH  17  18
BRANCH  16  23
HETATM   23  C26 UNL     1      -1.966  25.414  13.193  1.00  0.00     0.042 C
BRANCH  23  24
HETATM   24  C27 UNL     1      -1.340  24.094  13.566  1.00  0.00     0.032 C
BRANCH  24  25
HETATM   25  C28 UNL     1       0.121  24.145  13.373  1.00  0.00    -0.024 C
HETATM   26  C29 UNL     1       0.935  23.886  14.372  1.00  0.00    -0.091 C
HETATM   27  C30 UNL     1       0.380  23.534  15.722  1.00  0.00     0.042 C
HETATM   28  C31 UNL     1       2.422  23.921  14.241  1.00  0.00     0.042 C
ENDBRANCH  24  25
ENDBRANCH  23  24
ENDBRANCH  16  23
ENDBRANCH  15  16
ENDBRANCH   1  14
BRANCH   8  29
HETATM   29  C15 UNL     1      -8.759  24.350  14.214  1.00  0.00     0.228 C
HETATM   30  O2  UNL     1      -8.631  24.544  12.956  1.00  0.00    -0.273 OA
HETATM   31  N1  UNL     1      -9.354  23.143  14.609  1.00  0.00    -0.359 N
ATOM     32  H1  UNL     1      -9.461  22.973  15.609  1.00  0.00     0.162 HD
BRANCH  31  33
HETATM   33  C16 UNL     1      -9.826  22.121  13.701  1.00  0.00     0.150 C
BRANCH  33  34
HETATM   34  C17 UNL     1     -10.823  21.184  14.344  1.00  0.00     0.255 C
BRANCH  34  35
HETATM   35  N2  UNL     1     -12.139  21.317  13.785  1.00  0.00    -0.077 N
HETATM   36  C18 UNL     1     -13.048  20.513  14.620  1.00  0.00     0.271 C
HETATM   37  C19 UNL     1     -12.629  22.691  13.891  1.00  0.00     0.271 C
HETATM   38  C20 UNL     1     -12.281  20.806  12.450  1.00  0.00     0.271 C
ENDBRANCH  34  35
ENDBRANCH  33  34
ENDBRANCH  31  33
ENDBRANCH   8  29
TORSDOF 12
ENDMDL