MODEL 5
REMARK VINA RESULT: -8.556038841      2.634      4.166
REMARK  14 active torsions:
REMARK  status: ('A' for Active; 'I' for Inactive)
REMARK    1  A    between atoms: C3_3  and  C13_13
REMARK    2  A    between atoms: C4_4  and  C5_5
REMARK    3  A    between atoms: C5_5  and  C6_6
REMARK    4  A    between atoms: C6_6  and  C8_8
REMARK    5  A    between atoms: C8_8  and  C9_9
REMARK    6  A    between atoms: C9_9  and  C10_10
REMARK    7  A    between atoms: C10_10  and  C11_11
REMARK    8  A    between atoms: C13_13  and  C14_14
REMARK    9  A    between atoms: C14_14  and  C15_15
REMARK   10  A    between atoms: C15_15  and  C16_16
REMARK   11  A    between atoms: C15_15  and  C26_32
REMARK   12  A    between atoms: C16_16  and  C17_17
REMARK   13  A    between atoms: C17_17  and  C18_18
REMARK   14  A    between atoms: C18_18  and  C19_19
ROOT
HETATM    1  C1  UNL     1      -7.304  23.094  12.930  1.00  0.00     0.018 C
HETATM    2  C2  UNL     1      -7.052  23.438  14.057  1.00  0.00    -0.078 C
HETATM    3  C3  UNL     1      -6.754  23.874  15.424  1.00  0.00     0.017 C
HETATM    4  C4  UNL     1      -7.795  23.850  16.416  1.00  0.00     0.021 C
ENDROOT
BRANCH   3   5
HETATM    5  C13 UNL     1      -5.502  24.279  15.666  1.00  0.00     0.021 C
BRANCH   5   6
HETATM    6  C14 UNL     1      -5.160  25.657  15.622  1.00  0.00     0.015 C
BRANCH   6   7
HETATM    7  C15 UNL     1      -4.450  26.218  14.666  1.00  0.00     0.018 C
BRANCH   7   8
HETATM    8  C16 UNL     1      -4.938  26.310  13.303  1.00  0.00     0.046 C
BRANCH   8   9
HETATM    9  C17 UNL     1      -4.381  25.442  12.256  1.00  0.00     0.007 C
BRANCH   9  10
HETATM   10  C18 UNL     1      -3.844  24.096  12.563  1.00  0.00     0.031 C
BRANCH  10  11
HETATM   11  C19 UNL     1      -2.494  24.023  11.814  1.00  0.00     0.127 C
HETATM   12  N1  UNL     1      -2.320  25.153  10.965  1.00  0.00    -0.306 N
HETATM   13  S1  UNL     1      -0.581  25.085  10.725  1.00  0.00     0.260 S
ATOM     14  H1  UNL     1      -3.007  25.812  10.600  1.00  0.00     0.173 HD
HETATM   15  O1  UNL     1      -0.262  24.167   9.610  1.00  0.00    -0.200 OA
HETATM   16  O2  UNL     1      -0.023  26.455  10.568  1.00  0.00    -0.200 OA
HETATM   17  C20 UNL     1      -0.190  24.398  12.299  1.00  0.00     0.087 A
HETATM   18  C21 UNL     1       0.961  24.332  13.051  1.00  0.00     0.027 A
HETATM   19  C25 UNL     1      -1.381  23.868  12.738  1.00  0.00    -0.010 A
HETATM   20  C22 UNL     1       0.971  23.718  14.302  1.00  0.00     0.020 A
HETATM   21  C23 UNL     1      -0.211  23.180  14.763  1.00  0.00     0.011 A
HETATM   22 BR1  UNL     1      -0.255  22.320  16.489  1.00  0.00    -0.051 Br
HETATM   23  C24 UNL     1      -1.345  23.260  13.995  1.00  0.00     0.030 A
ENDBRANCH  10  11
ENDBRANCH   9  10
ENDBRANCH   8   9
ENDBRANCH   7   8
BRANCH   7  24
HETATM   24  C26 UNL     1      -3.190  26.817  15.081  1.00  0.00     0.205 C
HETATM   25  O3  UNL     1      -3.176  27.601  16.097  1.00  0.00    -0.644 OA
HETATM   26  O4  UNL     1      -1.976  26.630  14.471  1.00  0.00    -0.644 OA
ENDBRANCH   7  24
ENDBRANCH   6   7
ENDBRANCH   5   6
ENDBRANCH   3   5
BRANCH   4  27
HETATM   27  C5  UNL     1      -9.015  23.425  16.064  1.00  0.00     0.008 C
BRANCH  27  28
HETATM   28  C6  UNL     1     -10.032  24.396  15.722  1.00  0.00    -0.066 C
HETATM   29  C7  UNL     1     -11.416  23.940  15.364  1.00  0.00     0.048 C
BRANCH  28  30
HETATM   30  C8  UNL     1      -9.779  25.673  15.714  1.00  0.00    -0.020 C
BRANCH  30  31
HETATM   31  C9  UNL     1      -9.469  26.494  14.546  1.00  0.00     0.031 C
BRANCH  31  32
HETATM   32  C10 UNL     1      -8.221  27.335  14.799  1.00  0.00     0.030 C
BRANCH  32  33
HETATM   33  C11 UNL     1      -8.281  27.886  16.163  1.00  0.00    -0.037 C
HETATM   34  C12 UNL     1      -7.173  28.298  16.765  1.00  0.00     0.007 C
ENDBRANCH  32  33
ENDBRANCH  31  32
ENDBRANCH  30  31
ENDBRANCH  28  30
ENDBRANCH  27  28
ENDBRANCH   4  27
TORSDOF 14
ENDMDL