MODEL 4
REMARK VINA RESULT: -9.456461533      2.794      4.284
REMARK  12 active torsions:
REMARK  status: ('A' for Active; 'I' for Inactive)
REMARK       I    between atoms: C2_2  and  N1_4
REMARK    1  A    between atoms: N1_4  and  C3_6
REMARK    2  A    between atoms: C3_6  and  C4_7
REMARK    3  A    between atoms: C5_9  and  C6_10
REMARK    4  A    between atoms: C6_10  and  C7_11
REMARK    5  A    between atoms: C8_12  and  C10_14
REMARK    6  A    between atoms: C10_14  and  C11_15
REMARK    7  A    between atoms: C11_15  and  C12_16
REMARK    8  A    between atoms: C12_16  and  C13_17
REMARK    9  A    between atoms: C13_17  and  C14_18
REMARK   10  A    between atoms: C14_18  and  C15_19
REMARK   11  A    between atoms: C20_25  and  N2_26
REMARK       I    between atoms: N2_26  and  C21_28
REMARK   12  A    between atoms: C21_28  and  C22_30
ROOT
HETATM    1  C15 UNL     1      -7.699  25.401  14.214  1.00  0.00     0.122 C
HETATM    2  C16 UNL     1      -7.395  24.595  12.952  1.00  0.00     0.038 C
HETATM    3  C17 UNL     1      -6.770  23.298  13.317  1.00  0.00     0.016 C
HETATM    4  C18 UNL     1      -6.159  23.402  14.726  1.00  0.00     0.041 C
HETATM    5  C19 UNL     1      -7.615  23.299  15.211  1.00  0.00     0.145 C
HETATM    6  O2  UNL     1      -8.258  24.510  15.121  1.00  0.00    -0.379 OA
HETATM    7  C20 UNL     1      -7.806  22.396  14.021  1.00  0.00     0.117 C
ENDROOT
BRANCH   1   8
HETATM    8  C14 UNL     1      -8.721  26.444  13.822  1.00  0.00     0.032 C
BRANCH   8   9
HETATM    9  C13 UNL     1      -9.588  26.912  14.944  1.00  0.00     0.002 C
BRANCH   9  10
HETATM   10  C12 UNL     1      -8.798  27.515  16.084  1.00  0.00     0.000 C
BRANCH  10  11
HETATM   11  C11 UNL     1      -7.620  28.333  15.592  1.00  0.00     0.004 C
BRANCH  11  12
HETATM   12  C10 UNL     1      -6.380  27.738  16.235  1.00  0.00     0.033 C
BRANCH  12  13
HETATM   13  C8  UNL     1      -5.250  27.609  15.282  1.00  0.00    -0.087 C
HETATM   14  C7  UNL     1      -4.115  27.119  15.717  1.00  0.00    -0.020 C
HETATM   15  C9  UNL     1      -5.404  28.025  13.874  1.00  0.00     0.043 C
BRANCH  14  16
HETATM   16  C6  UNL     1      -2.963  26.984  14.759  1.00  0.00     0.055 C
BRANCH  16  17
HETATM   17  C5  UNL     1      -2.808  25.561  14.478  1.00  0.00    -0.007 C
HETATM   18  C4  UNL     1      -2.927  25.013  13.289  1.00  0.00     0.003 C
HETATM   19 BR1  UNL     1      -2.727  23.113  13.222  1.00  0.00    -0.054 Br
BRANCH  18  20
HETATM   20  C3  UNL     1      -3.236  25.797  12.097  1.00  0.00     0.168 C
BRANCH  20  21
HETATM   21  N1  UNL     1      -2.141  26.196  11.286  1.00  0.00    -0.357 N
HETATM   22  C2  UNL     1      -2.162  26.595   9.950  1.00  0.00     0.213 C
HETATM   23  C1  UNL     1      -0.857  26.962   9.264  1.00  0.00     0.117 C
HETATM   24  O1  UNL     1      -3.199  26.670   9.279  1.00  0.00    -0.274 OA
ATOM     25  H1  UNL     1      -1.226  26.190  11.736  1.00  0.00     0.162 HD
ENDBRANCH  20  21
ENDBRANCH  18  20
ENDBRANCH  16  17
ENDBRANCH  14  16
ENDBRANCH  12  13
ENDBRANCH  11  12
ENDBRANCH  10  11
ENDBRANCH   9  10
ENDBRANCH   8   9
ENDBRANCH   1   8
BRANCH   7  26
HETATM   26  N2  UNL     1      -9.077  22.358  13.391  1.00  0.00    -0.353 N
HETATM   27  C21 UNL     1     -10.175  21.771  14.073  1.00  0.00     0.225 C
HETATM   28  O3  UNL     1     -10.012  21.289  15.222  1.00  0.00    -0.273 OA
ATOM     29  H2  UNL     1      -9.201  22.749  12.457  1.00  0.00     0.163 HD
BRANCH  27  30
HETATM   30  C22 UNL     1     -11.550  21.687  13.495  1.00  0.00     0.100 C
HETATM   31  C23 UNL     1     -12.420  20.811  14.311  1.00  0.00    -0.017 C
HETATM   32  C24 UNL     1     -13.373  21.174  15.149  1.00  0.00    -0.030 C
HETATM   33  C25 UNL     1     -13.910  22.509  15.574  1.00  0.00     0.027 C
HETATM   34  C26 UNL     1     -14.460  23.262  14.379  1.00  0.00     0.004 C
HETATM   35  C27 UNL     1     -13.654  22.975  13.130  1.00  0.00     0.001 C
HETATM   36  C28 UNL     1     -12.184  23.030  13.362  1.00  0.00     0.018 C
ENDBRANCH  27  30
ENDBRANCH   7  26
TORSDOF 12
ENDMDL