MODEL 4
REMARK VINA RESULT: -10.346630881      1.324      1.895
REMARK  12 active torsions:
REMARK  status: ('A' for Active; 'I' for Inactive)
REMARK    1  A    between atoms: C2_2  and  C3_3
REMARK    2  A    between atoms: C2_2  and  C18_21
REMARK    3  A    between atoms: C3_3  and  C4_4
REMARK    4  A    between atoms: C4_4  and  C5_5
REMARK    5  A    between atoms: C10_11  and  C12_13
REMARK    6  A    between atoms: C18_21  and  C19_22
REMARK    7  A    between atoms: C19_22  and  C20_24
REMARK    8  A    between atoms: C20_24  and  C21_25
REMARK    9  A    between atoms: C21_25  and  C22_26
REMARK   10  A    between atoms: C23_27  and  C24_28
REMARK   11  A    between atoms: C26_30  and  C27_31
REMARK   12  A    between atoms: C29_35  and  C30_36
ROOT
HETATM    1  C1  UNL     1      -7.204  27.177  14.993  1.00  0.00     0.019 C
HETATM    2  C2  UNL     1      -7.602  26.461  13.953  1.00  0.00    -0.060 C
ENDROOT
BRANCH   2   3
HETATM    3  C3  UNL     1      -9.043  26.402  13.639  1.00  0.00     0.007 C
BRANCH   3   4
HETATM    4  C4  UNL     1      -9.999  25.704  14.443  1.00  0.00     0.012 C
BRANCH   4   5
HETATM    5  C5  UNL     1     -10.044  24.309  14.814  1.00  0.00    -0.004 C
HETATM    6  C6  UNL     1      -9.084  23.689  15.708  1.00  0.00     0.156 C
HETATM    7  O1  UNL     1      -8.310  24.148  16.492  1.00  0.00    -0.293 OA
HETATM    8  C7  UNL     1      -9.047  22.163  15.644  1.00  0.00     0.084 C
HETATM    9  C8  UNL     1     -10.117  21.715  14.663  1.00  0.00     0.014 C
HETATM   10  C9  UNL     1     -11.458  22.306  15.038  1.00  0.00     0.016 C
HETATM   11  C10 UNL     1     -12.628  21.642  14.414  1.00  0.00     0.039 C
HETATM   12  C16 UNL     1     -11.473  23.791  15.122  1.00  0.00    -0.009 C
HETATM   13  C11 UNL     1     -13.566  21.012  15.464  1.00  0.00     0.025 C
HETATM   14  C13 UNL     1     -13.513  22.484  13.542  1.00  0.00     0.019 C
HETATM   15  C14 UNL     1     -13.776  23.827  14.196  1.00  0.00     0.002 C
HETATM   16  C15 UNL     1     -12.385  24.473  14.172  1.00  0.00     0.014 C
HETATM   17  C17 UNL     1     -11.906  24.249  16.516  1.00  0.00     0.021 C
BRANCH  11  18
HETATM   18  C12 UNL     1     -12.214  20.485  13.563  1.00  0.00     0.239 C
HETATM   19  N1  UNL     1     -12.223  20.519  12.142  1.00  0.00    -0.061 NA
HETATM   20  O2  UNL     1     -11.821  19.384  14.061  1.00  0.00    -0.276 OA
ENDBRANCH  11  18
ENDBRANCH   4   5
ENDBRANCH   3   4
ENDBRANCH   2   3
BRANCH   2  21
HETATM   21  C18 UNL     1      -6.599  25.787  13.043  1.00  0.00     0.121 C
BRANCH  21  22
HETATM   22  C19 UNL     1      -6.551  24.368  13.262  1.00  0.00     0.161 C
HETATM   23  O3  UNL     1      -7.317  23.599  12.643  1.00  0.00    -0.292 OA
BRANCH  22  24
HETATM   24  C20 UNL     1      -5.598  23.737  14.227  1.00  0.00     0.106 C
BRANCH  24  25
HETATM   25  C21 UNL     1      -4.436  23.446  13.857  1.00  0.00    -0.125 C
BRANCH  25  26
HETATM   26  C22 UNL     1      -3.153  23.110  13.476  1.00  0.00     0.052 C
HETATM   27  C23 UNL     1      -2.105  23.624  14.171  1.00  0.00    -0.010 C
BRANCH  27  28
HETATM   28  C24 UNL     1      -0.716  23.299  13.804  1.00  0.00     0.039 C
HETATM   29  C25 UNL     1       0.073  23.113  15.098  1.00  0.00     0.032 C
HETATM   30  C26 UNL     1       0.523  24.525  15.404  1.00  0.00     0.110 C
HETATM   31  C28 UNL     1       0.717  25.095  14.035  1.00  0.00    -0.007 C
HETATM   32  C29 UNL     1       0.009  24.391  13.134  1.00  0.00    -0.061 C
BRANCH  30  33
HETATM   33  C27 UNL     1       1.823  24.508  16.147  1.00  0.00     0.180 C
HETATM   34  O4  UNL     1       2.372  23.430  16.426  1.00  0.00    -0.647 OA
HETATM   35  O5  UNL     1       2.398  25.720  16.514  1.00  0.00    -0.647 OA
ENDBRANCH  30  33
BRANCH  32  36
HETATM   36  C30 UNL     1       0.009  24.693  11.687  1.00  0.00     0.149 C
HETATM   37 CL1  UNL     1      -0.444  26.396  11.379  1.00  0.00    -0.126 Cl
ENDBRANCH  32  36
ENDBRANCH  27  28
ENDBRANCH  25  26
ENDBRANCH  24  25
ENDBRANCH  22  24
ENDBRANCH  21  22
ENDBRANCH   2  21
TORSDOF 12
ENDMDL