MODEL 5
REMARK VINA RESULT: -8.816272768      2.578      3.466
REMARK  13 active torsions:
REMARK  status: ('A' for Active; 'I' for Inactive)
REMARK    1  A    between atoms: C2_2  and  N1_3
REMARK    2  A    between atoms: N1_3  and  C4_5
REMARK    3  A    between atoms: N1_3  and  C6_7
REMARK    4  A    between atoms: C6_7  and  C7_8
REMARK    5  A    between atoms: C7_8  and  N2_9
REMARK    6  A    between atoms: N2_9  and  O1_10
REMARK    7  A    between atoms: N2_9  and  C8_12
REMARK    8  A    between atoms: C8_12  and  C9_13
REMARK    9  A    between atoms: C9_13  and  C10_14
REMARK   10  A    between atoms: C10_14  and  O2_15
REMARK   11  A    between atoms: O2_15  and  C11_16
REMARK   12  A    between atoms: C14_19  and  N3_20
REMARK   13  A    between atoms: N3_20  and  C15_22
ROOT
HETATM    1  C11 UNL     1      -5.185  25.067  14.777  1.00  0.00     0.091 A
HETATM    2  C12 UNL     1      -3.837  25.094  14.573  1.00  0.00     0.054 A
HETATM    3  C13 UNL     1      -3.329  25.391  13.342  1.00  0.00     0.021 A
HETATM    4  C14 UNL     1      -1.918  25.400  13.224  1.00  0.00     0.053 A
HETATM    5  C23 UNL     1      -1.437  25.703  11.968  1.00  0.00    -0.012 A
HETATM    6  C24 UNL     1       0.013  25.759  11.669  1.00  0.00     0.052 C
HETATM    7  C25 UNL     1      -2.312  25.972  10.932  1.00  0.00     0.014 A
HETATM    8  C26 UNL     1      -1.761  26.279   9.573  1.00  0.00     0.068 C
HETATM    9  N5  UNL     1      -3.640  25.955  11.087  1.00  0.00    -0.359 N
ATOM     10  H5  UNL     1      -4.252  26.160  10.298  1.00  0.00     0.166 HD
HETATM   11  C27 UNL     1      -4.158  25.664  12.290  1.00  0.00     0.046 A
HETATM   12  C28 UNL     1      -5.555  25.649  12.452  1.00  0.00     0.057 A
HETATM   13  C29 UNL     1      -6.029  25.347  13.707  1.00  0.00     0.069 A
HETATM   14 CL1  UNL     1      -7.778  25.321  13.924  1.00  0.00    -0.081 Cl
ENDROOT
BRANCH   1  15
HETATM   15  O2  UNL     1      -5.780  24.783  15.967  1.00  0.00    -0.349 OA
BRANCH  15  16
HETATM   16  C10 UNL     1      -5.984  23.504  16.538  1.00  0.00     0.181 C
BRANCH  16  17
HETATM   17  C9  UNL     1      -7.413  23.508  17.148  1.00  0.00     0.073 C
BRANCH  17  18
HETATM   18  C8  UNL     1      -8.107  22.354  16.545  1.00  0.00     0.092 C
BRANCH  18  19
HETATM   19  N2  UNL     1      -8.956  22.508  15.455  1.00  0.00    -0.274 N
BRANCH  19  20
HETATM   20  C7  UNL     1     -10.226  23.126  15.418  1.00  0.00     0.182 C
BRANCH  20  21
HETATM   21  C6  UNL     1     -10.967  22.948  14.154  1.00  0.00     0.259 C
BRANCH  21  22
HETATM   22  N1  UNL     1     -12.233  22.238  14.341  1.00  0.00    -0.070 N
HETATM   23  C3  UNL     1     -12.865  22.501  15.594  1.00  0.00     0.272 C
BRANCH  22  24
HETATM   24  C2  UNL     1     -13.149  22.628  13.285  1.00  0.00     0.232 C
HETATM   25  C1  UNL     1     -14.371  23.342  13.767  1.00  0.00     0.035 C
ENDBRANCH  22  24
BRANCH  22  26
HETATM   26  C4  UNL     1     -11.935  20.817  14.279  1.00  0.00     0.232 C
HETATM   27  C5  UNL     1     -11.309  20.423  12.950  1.00  0.00     0.035 C
ENDBRANCH  22  26
ENDBRANCH  21  22
ENDBRANCH  20  21
ENDBRANCH  19  20
BRANCH  19  28
HETATM   28  O1  UNL     1      -8.551  22.051  14.389  1.00  0.00    -0.288 OA
ATOM     29  H1  UNL     1      -8.213  21.163  14.421  1.00  0.00     0.244 HD
ENDBRANCH  19  28
ENDBRANCH  18  19
ENDBRANCH  17  18
ENDBRANCH  16  17
ENDBRANCH  15  16
ENDBRANCH   1  15
BRANCH   4  30
HETATM   30  N3  UNL     1      -1.252  25.152  14.222  1.00  0.00    -0.353 N
ATOM     31  H3  UNL     1      -1.210  25.996  14.793  1.00  0.00     0.166 HD
BRANCH  30  32
HETATM   32  C15 UNL     1      -0.550  24.181  14.854  1.00  0.00     0.060 A
HETATM   33  C16 UNL     1      -1.179  23.103  15.493  1.00  0.00     0.032 A
HETATM   34  C17 UNL     1      -0.513  22.115  16.149  1.00  0.00     0.003 A
HETATM   35  C18 UNL     1       0.846  22.133  16.215  1.00  0.00     0.014 A
HETATM   36  C19 UNL     1       1.522  23.174  15.600  1.00  0.00    -0.006 A
HETATM   37  C20 UNL     1       2.884  23.410  15.529  1.00  0.00     0.030 A
HETATM   38  C22 UNL     1       0.844  24.169  14.938  1.00  0.00     0.069 A
HETATM   39  C21 UNL     1       3.019  24.572  14.809  1.00  0.00     0.089 A
HETATM   40  N4  UNL     1       1.768  25.010  14.464  1.00  0.00    -0.363 N
ATOM     41  H4  UNL     1       1.572  25.853  13.925  1.00  0.00     0.165 HD
ENDBRANCH  30  32
ENDBRANCH   4  30
TORSDOF 13
ENDMDL