MODEL 1
REMARK VINA RESULT: -9.516810324      0.000      0.000
REMARK  12 active torsions:
REMARK  status: ('A' for Active; 'I' for Inactive)
REMARK    1  A    between atoms: S1_2  and  C2_3
REMARK    2  A    between atoms: N1_8  and  C6_9
REMARK    3  A    between atoms: C6_9  and  C7_10
REMARK    4  A    between atoms: C7_10  and  C8_11
REMARK    5  A    between atoms: C8_11  and  C9_12
REMARK    6  A    between atoms: C9_12  and  C10_13
REMARK    7  A    between atoms: C10_13  and  C11_14
REMARK    8  A    between atoms: C11_14  and  N2_15
REMARK    9  A    between atoms: C15_21  and  N4_22
REMARK   10  A    between atoms: N5_25  and  C16_26
REMARK   11  A    between atoms: C16_26  and  C17_27
REMARK   12  A    between atoms: C17_27  and  C18_28
ROOT
HETATM    1  N2  UNL     1      -5.024  26.274  14.937  1.00  0.00    -0.364 N
HETATM    2  C12 UNL     1      -5.865  25.207  14.922  1.00  0.00     0.092 A
HETATM    3  C13 UNL     1      -5.519  24.039  14.296  1.00  0.00     0.049 A
HETATM    4  C14 UNL     1      -4.303  23.947  13.677  1.00  0.00     0.079 A
HETATM    5  N3  UNL     1      -3.696  22.970  12.998  1.00  0.00    -0.190 N
ATOM      6  H3  UNL     1      -4.091  22.046  12.823  1.00  0.00     0.184 HD
HETATM    7  C15 UNL     1      -2.476  23.392  12.577  1.00  0.00     0.679 A
HETATM    8  N5  UNL     1      -2.332  24.648  13.004  1.00  0.00    -0.180 N
HETATM    9  C24 UNL     1      -3.457  25.023  13.694  1.00  0.00     0.094 A
HETATM   10  C25 UNL     1      -3.827  26.210  14.338  1.00  0.00     0.123 A
ENDROOT
BRANCH   1  11
HETATM   11  C11 UNL     1      -5.441  27.465  15.619  1.00  0.00     0.128 C
BRANCH  11  12
HETATM   12  C10 UNL     1      -6.758  27.383  16.310  1.00  0.00     0.020 C
BRANCH  12  13
HETATM   13  C9  UNL     1      -7.753  28.434  16.003  1.00  0.00     0.002 C
BRANCH  13  14
HETATM   14  C8  UNL     1      -9.126  27.911  15.694  1.00  0.00     0.002 C
BRANCH  14  15
HETATM   15  C7  UNL     1      -9.112  26.861  14.632  1.00  0.00     0.020 C
BRANCH  15  16
HETATM   16  C6  UNL     1     -10.354  26.003  14.619  1.00  0.00     0.128 C
BRANCH  16  17
HETATM   17  N1  UNL     1     -10.037  24.604  14.826  1.00  0.00    -0.364 N
HETATM   18  C5  UNL     1      -9.110  24.303  15.743  1.00  0.00     0.109 A
HETATM   19  C4  UNL     1      -8.743  22.998  15.999  1.00  0.00     0.027 A
HETATM   20  C3  UNL     1      -9.371  22.016  15.268  1.00  0.00     0.040 A
HETATM   21 BR1  UNL     1      -7.425  22.625  17.307  1.00  0.00    -0.050 Br
HETATM   22  C2  UNL     1     -10.322  22.339  14.327  1.00  0.00     0.017 A
HETATM   23  C26 UNL     1     -10.657  23.658  14.107  1.00  0.00     0.109 A
BRANCH  22  24
HETATM   24  S1  UNL     1     -11.075  21.007  13.428  1.00  0.00    -0.133 SA
HETATM   25  C1  UNL     1     -12.592  20.517  14.292  1.00  0.00     0.095 C
ENDBRANCH  22  24
ENDBRANCH  16  17
ENDBRANCH  15  16
ENDBRANCH  14  15
ENDBRANCH  13  14
ENDBRANCH  12  13
ENDBRANCH  11  12
ENDBRANCH   1  11
BRANCH   8  26
HETATM   26  C16 UNL     1      -1.225  25.591  12.873  1.00  0.00     0.148 C
BRANCH  26  27
HETATM   27  C17 UNL     1      -0.283  25.610  14.031  1.00  0.00     0.025 C
BRANCH  27  28
HETATM   28  C18 UNL     1       0.684  24.497  14.165  1.00  0.00    -0.013 C
HETATM   29  C19 UNL     1       0.224  23.492  15.235  1.00  0.00     0.005 C
HETATM   30  C20 UNL     1       1.349  22.985  16.071  1.00  0.00     0.000 C
HETATM   31  C21 UNL     1       2.621  22.701  15.305  1.00  0.00     0.000 C
HETATM   32  C22 UNL     1       3.085  23.908  14.546  1.00  0.00     0.000 C
HETATM   33  C23 UNL     1       2.069  25.006  14.605  1.00  0.00     0.005 C
ENDBRANCH  27  28
ENDBRANCH  26  27
ENDBRANCH   8  26
BRANCH   7  34
HETATM   34  N4  UNL     1      -1.642  22.696  11.876  1.00  0.00    -0.234 N
ATOM     35  H42 UNL     1      -1.713  21.711  11.623  1.00  0.00     0.174 HD
ATOM     36  H41 UNL     1      -0.767  23.041  11.484  1.00  0.00     0.174 HD
ENDBRANCH   7  34
TORSDOF 12
ENDMDL