MODEL 5
REMARK VINA RESULT: -7.941781513      1.441      1.972
REMARK  13 active torsions:
REMARK  status: ('A' for Active; 'I' for Inactive)
REMARK    1  A    between atoms: C3_3  and  C4_4
REMARK    2  A    between atoms: C4_4  and  N1_5
REMARK    3  A    between atoms: N1_5  and  C5_6
REMARK    4  A    between atoms: C12_13  and  O1_14
REMARK    5  A    between atoms: C12_13  and  C13_16
REMARK       I    between atoms: C13_16  and  N2_18
REMARK    6  A    between atoms: N2_18  and  C14_20
REMARK    7  A    between atoms: C14_20  and  C15_21
REMARK    8  A    between atoms: C15_21  and  C16_22
REMARK    9  A    between atoms: C17_23  and  C18_24
REMARK   10  A    between atoms: C18_24  and  C19_25
REMARK   11  A    between atoms: C19_25  and  C20_26
REMARK   12  A    between atoms: C20_26  and  C21_27
REMARK   13  A    between atoms: C21_27  and  N3_28
ROOT
HETATM    1  C1  UNL     1       0.503  24.839   8.147  1.00  0.00     0.112 C
HETATM    2  C2  UNL     1       0.307  24.942   9.593  1.00  0.00    -0.104 C
HETATM    3  C3  UNL     1       0.164  25.026  10.782  1.00  0.00    -0.048 C
ENDROOT
BRANCH   3   4
HETATM    4  C4  UNL     1      -0.011  25.115  12.244  1.00  0.00     0.247 C
BRANCH   4   5
HETATM    5  N1  UNL     1      -0.965  25.436  12.832  1.00  0.00    -0.409 NA
BRANCH   5   6
HETATM    6  C5  UNL     1      -2.082  25.817  13.501  1.00  0.00     0.113 A
HETATM    7  C6  UNL     1      -1.910  26.686  14.599  1.00  0.00     0.046 A
HETATM    8  C7  UNL     1      -3.002  27.088  15.289  1.00  0.00     0.015 A
HETATM    9  C8  UNL     1      -4.272  26.648  14.915  1.00  0.00    -0.025 A
HETATM   10  C9  UNL     1      -4.454  25.798  13.848  1.00  0.00     0.005 A
HETATM   11  C28 UNL     1      -5.321  27.253  15.739  1.00  0.00     0.026 C
HETATM   12  C10 UNL     1      -3.372  25.380  13.138  1.00  0.00    -0.011 A
HETATM   13  C12 UNL     1      -5.695  25.205  13.379  1.00  0.00     0.167 C
HETATM   14  C11 UNL     1      -3.425  24.511  11.952  1.00  0.00     0.052 C
HETATM   15  C25 UNL     1      -6.986  25.852  13.822  1.00  0.00     0.058 C
HETATM   16  C26 UNL     1      -7.028  27.327  13.952  1.00  0.00     0.050 C
HETATM   17  C27 UNL     1      -6.556  27.578  15.376  1.00  0.00    -0.011 C
HETATM   18 BR1  UNL     1      -7.719  28.349  16.623  1.00  0.00    -0.056 Br
BRANCH  13  19
HETATM   19  O1  UNL     1      -5.851  25.049  12.019  1.00  0.00    -0.375 OA
ATOM     20  H1  UNL     1      -5.563  25.761  11.459  1.00  0.00     0.211 HD
ENDBRANCH  13  19
BRANCH  13  21
HETATM   21  C13 UNL     1      -5.813  23.863  14.102  1.00  0.00     0.257 C
HETATM   22  O2  UNL     1      -6.002  22.894  13.337  1.00  0.00    -0.270 OA
HETATM   23  N2  UNL     1      -5.707  23.776  15.493  1.00  0.00    -0.358 N
ATOM     24  H2  UNL     1      -5.549  24.624  16.037  1.00  0.00     0.162 HD
BRANCH  23  25
HETATM   25  C14 UNL     1      -5.818  22.491  16.183  1.00  0.00     0.126 C
BRANCH  25  26
HETATM   26  C15 UNL     1      -6.998  22.402  17.094  1.00  0.00     0.046 C
BRANCH  26  27
HETATM   27  C16 UNL     1      -7.923  23.533  17.069  1.00  0.00    -0.029 C
HETATM   28  C17 UNL     1      -9.146  23.598  16.311  1.00  0.00    -0.031 C
BRANCH  28  29
HETATM   29  C18 UNL     1      -9.365  23.347  14.902  1.00  0.00     0.027 C
BRANCH  29  30
HETATM   30  C19 UNL     1      -9.425  21.962  14.384  1.00  0.00     0.005 C
BRANCH  30  31
HETATM   31  C20 UNL     1     -10.862  21.512  14.115  1.00  0.00     0.028 C
BRANCH  31  32
HETATM   32  C21 UNL     1     -11.688  22.742  13.892  1.00  0.00     0.236 C
BRANCH  32  33
HETATM   33  N3  UNL     1     -12.944  22.715  14.580  1.00  0.00    -0.079 N
HETATM   34  C22 UNL     1     -13.245  21.389  15.071  1.00  0.00     0.271 C
HETATM   35  C23 UNL     1     -13.980  23.065  13.621  1.00  0.00     0.271 C
HETATM   36  C24 UNL     1     -13.015  23.678  15.662  1.00  0.00     0.271 C
ENDBRANCH  32  33
ENDBRANCH  31  32
ENDBRANCH  30  31
ENDBRANCH  29  30
ENDBRANCH  28  29
ENDBRANCH  26  27
ENDBRANCH  25  26
ENDBRANCH  23  25
ENDBRANCH  13  21
ENDBRANCH   5   6
ENDBRANCH   4   5
ENDBRANCH   3   4
TORSDOF 13
ENDMDL