MODEL 4
REMARK VINA RESULT: -11.122073171      4.111     10.075
REMARK  8 active torsions:
REMARK  status: ('A' for Active; 'I' for Inactive)
REMARK    1  A    between atoms: C2_2  and  C3_3
REMARK    2  A    between atoms: C2_2  and  C20_25
REMARK    3  A    between atoms: C4_4  and  C5_5
REMARK    4  A    between atoms: C5_5  and  C6_6
REMARK    5  A    between atoms: C6_6  and  C8_8
REMARK    6  A    between atoms: N1_13  and  C13_14
REMARK    7  A    between atoms: C18_19  and  C19_20
REMARK    8  A    between atoms: C19_20  and  N2_21
ROOT
HETATM    1  C5  UNL     1      -4.101  24.815  15.031  1.00  0.00     0.033 C
ENDROOT
BRANCH   1   2
HETATM    2  C4  UNL     1      -5.274  25.239  14.194  1.00  0.00    -0.030 C
HETATM    3  C3  UNL     1      -5.783  26.443  14.306  1.00  0.00    -0.026 C
BRANCH   3   4
HETATM    4  C2  UNL     1      -6.944  26.879  13.486  1.00  0.00     0.008 C
HETATM    5  C1  UNL     1      -6.688  28.391  13.248  1.00  0.00     0.014 C
BRANCH   4   6
HETATM    6  C20 UNL     1      -8.187  26.745  14.316  1.00  0.00     0.001 C
HETATM    7  C21 UNL     1      -9.261  27.781  13.936  1.00  0.00     0.006 C
HETATM    8  C22 UNL     1     -10.507  27.154  14.658  1.00  0.00     0.006 C
HETATM    9  C23 UNL     1     -10.360  25.797  14.109  1.00  0.00    -0.002 C
HETATM   10  C24 UNL     1     -11.238  24.709  14.544  1.00  0.00    -0.005 C
HETATM   11  C32 UNL     1      -8.879  25.463  14.354  1.00  0.00    -0.036 C
HETATM   12  C25 UNL     1     -12.623  24.999  13.934  1.00  0.00     0.013 C
HETATM   13  C29 UNL     1     -10.748  23.335  14.198  1.00  0.00    -0.003 C
HETATM   14  C26 UNL     1     -13.604  23.887  14.334  1.00  0.00     0.079 C
HETATM   15  C27 UNL     1     -13.047  22.660  13.701  1.00  0.00     0.127 C
HETATM   16  O1  UNL     1     -13.702  21.639  13.675  1.00  0.00    -0.298 OA
HETATM   17  C28 UNL     1     -11.681  22.775  13.126  1.00  0.00     0.083 C
HETATM   18  C30 UNL     1      -9.368  23.183  13.729  1.00  0.00     0.006 C
HETATM   19  C31 UNL     1      -8.628  24.431  13.294  1.00  0.00     0.010 C
HETATM   20  C33 UNL     1      -8.660  24.859  15.738  1.00  0.00     0.016 C
ENDBRANCH   4   6
ENDBRANCH   3   4
ENDBRANCH   1   2
BRANCH   1  21
HETATM   21  C6  UNL     1      -3.018  24.321  14.103  1.00  0.00     0.007 C
HETATM   22  C7  UNL     1      -3.682  23.442  13.074  1.00  0.00     0.012 C
BRANCH  21  23
HETATM   23  C8  UNL     1      -2.227  25.466  13.464  1.00  0.00     0.083 C
HETATM   24  C9  UNL     1      -1.534  26.206  14.619  1.00  0.00     0.025 C
HETATM   25  C10 UNL     1      -0.630  25.249  15.337  1.00  0.00     0.004 C
HETATM   26  C11 UNL     1       0.322  24.660  14.366  1.00  0.00     0.019 C
HETATM   27  C12 UNL     1      -0.176  24.288  13.033  1.00  0.00     0.117 C
HETATM   28  N1  UNL     1      -1.284  25.007  12.509  1.00  0.00    -0.403 N
BRANCH  28  29
HETATM   29  C13 UNL     1      -1.055  25.773  11.337  1.00  0.00     0.085 C
HETATM   30  C14 UNL     1      -0.686  27.216  11.568  1.00  0.00     0.025 C
HETATM   31  C15 UNL     1      -0.340  27.816  10.204  1.00  0.00     0.002 C
HETATM   32  C16 UNL     1      -1.714  27.975   9.535  1.00  0.00     0.001 C
HETATM   33  C17 UNL     1      -2.207  26.617   9.236  1.00  0.00     0.008 C
HETATM   34  C18 UNL     1      -2.077  25.569  10.264  1.00  0.00     0.033 C
BRANCH  34  35
HETATM   35  C19 UNL     1      -1.797  24.270   9.481  1.00  0.00     0.236 C
BRANCH  35  36
HETATM   36  N2  UNL     1      -1.030  24.605   8.296  1.00  0.00    -0.079 N
ATOM     37  H23 UNL     1      -1.064  25.600   8.076  1.00  0.00     0.274 HD
ATOM     38  H22 UNL     1      -0.024  24.531   8.447  1.00  0.00     0.274 HD
ATOM     39  H21 UNL     1      -1.355  24.021   7.525  1.00  0.00     0.274 HD
ENDBRANCH  35  36
ENDBRANCH  34  35
ENDBRANCH  28  29
ENDBRANCH  21  23
ENDBRANCH   1  21
TORSDOF 8
ENDMDL