MODEL 4
REMARK VINA RESULT: -8.575574736      1.467      2.350
REMARK  10 active torsions:
REMARK  status: ('A' for Active; 'I' for Inactive)
REMARK    1  A    between atoms: C2_2  and  C3_3
REMARK    2  A    between atoms: C3_3  and  C4_4
REMARK    3  A    between atoms: C4_4  and  C5_5
REMARK    4  A    between atoms: C5_5  and  N1_6
REMARK    5  A    between atoms: N1_6  and  C6_8
REMARK    6  A    between atoms: C6_8  and  O1_9
REMARK    7  A    between atoms: C6_8  and  C7_11
REMARK    8  A    between atoms: C21_25  and  N2_26
REMARK    9  A    between atoms: C30_35  and  O2_36
REMARK   10  A    between atoms: O2_36  and  C31_37
ROOT
HETATM    1  C7  UNL     1      -7.017  24.151  14.023  1.00  0.00     0.095 C
HETATM    2  C8  UNL     1      -5.758  23.223  14.052  1.00  0.00     0.024 C
HETATM    3  C9  UNL     1      -5.210  24.072  13.019  1.00  0.00     0.027 C
HETATM    4  C10 UNL     1      -3.851  24.496  12.776  1.00  0.00     0.005 C
HETATM    5  C11 UNL     1      -3.071  23.364  12.211  1.00  0.00     0.007 C
HETATM    6  C12 UNL     1      -1.750  23.772  11.700  1.00  0.00     0.014 C
HETATM    7  C13 UNL     1      -1.166  25.056  12.124  1.00  0.00    -0.015 C
HETATM    8  C14 UNL     1       0.186  24.761  12.750  1.00  0.00     0.020 C
HETATM    9  C15 UNL     1      -2.000  25.923  13.049  1.00  0.00    -0.060 C
HETATM   10  C16 UNL     1      -1.617  27.160  13.160  1.00  0.00    -0.079 C
HETATM   11  C17 UNL     1      -2.302  28.118  13.991  1.00  0.00     0.043 C
HETATM   12  C18 UNL     1      -0.364  27.646  12.452  1.00  0.00     0.039 C
HETATM   13  C19 UNL     1      -0.390  27.200  11.044  1.00  0.00    -0.003 C
HETATM   14  C20 UNL     1      -1.314  28.047  10.190  1.00  0.00     0.041 C
HETATM   15  C21 UNL     1      -1.904  27.121   9.170  1.00  0.00     0.223 C
HETATM   16  C24 UNL     1      -1.802  25.711   9.733  1.00  0.00     0.041 C
HETATM   17  C25 UNL     1      -0.842  25.813  10.835  1.00  0.00     0.004 C
HETATM   18  C26 UNL     1      -3.092  25.323  13.790  1.00  0.00    -0.015 C
HETATM   19  C27 UNL     1      -2.264  24.355  14.718  1.00  0.00     0.020 C
HETATM   20  C28 UNL     1      -4.052  25.894  14.667  1.00  0.00     0.017 C
HETATM   21  C29 UNL     1      -5.463  26.172  14.262  1.00  0.00     0.040 C
HETATM   22  C30 UNL     1      -6.197  25.201  13.424  1.00  0.00     0.076 C
ENDROOT
BRANCH   1  23
HETATM   23  C6  UNL     1      -7.660  24.184  15.310  1.00  0.00     0.118 C
BRANCH  23  24
HETATM   24  N1  UNL     1      -8.914  24.636  15.706  1.00  0.00    -0.374 N
ATOM     25  H1  UNL     1      -9.011  25.027  16.643  1.00  0.00     0.161 HD
BRANCH  24  26
HETATM   26  C5  UNL     1     -10.081  24.584  14.871  1.00  0.00     0.121 C
BRANCH  26  27
HETATM   27  C4  UNL     1     -10.665  23.237  14.642  1.00  0.00     0.020 C
BRANCH  27  28
HETATM   28  C3  UNL     1     -10.707  23.007  13.124  1.00  0.00     0.001 C
BRANCH  28  29
HETATM   29  C2  UNL     1     -11.720  21.910  12.845  1.00  0.00    -0.004 C
HETATM   30  C1  UNL     1     -12.851  22.499  12.035  1.00  0.00     0.005 C
ENDBRANCH  28  29
ENDBRANCH  27  28
ENDBRANCH  26  27
ENDBRANCH  24  26
ENDBRANCH  23  24
BRANCH  23  31
HETATM   31  O1  UNL     1      -6.951  23.706  16.291  1.00  0.00    -0.349 OA
ATOM     32  H1  UNL     1      -6.947  24.264  17.060  1.00  0.00     0.219 HD
ENDBRANCH  23  31
ENDBRANCH   1  23
BRANCH  22  33
HETATM   33  O2  UNL     1      -6.556  25.815  12.242  1.00  0.00    -0.379 OA
BRANCH  33  34
HETATM   34  C31 UNL     1      -7.712  26.347  11.960  1.00  0.00     0.164 C
HETATM   35  C32 UNL     1      -8.186  27.422  12.902  1.00  0.00     0.033 C
ENDBRANCH  33  34
ENDBRANCH  22  33
BRANCH  15  36
HETATM   36  N2  UNL     1      -1.402  27.261   7.846  1.00  0.00     0.084 N
HETATM   37  C22 UNL     1      -0.869  26.089   7.237  1.00  0.00     0.309 C
HETATM   38  C23 UNL     1      -0.413  28.312   7.745  1.00  0.00     0.309 C
ENDBRANCH  15  36
TORSDOF 10
ENDMDL