MODEL 1
REMARK VINA RESULT: -10.699054651      0.000      0.000
REMARK  7 active torsions:
REMARK  status: ('A' for Active; 'I' for Inactive)
REMARK    1  A    between atoms: C2_2  and  C3_3
REMARK    2  A    between atoms: N1_8  and  C8_9
REMARK    3  A    between atoms: C8_9  and  C9_10
REMARK    4  A    between atoms: C9_10  and  C10_11
REMARK    5  A    between atoms: C10_11  and  O1_12
REMARK    6  A    between atoms: C10_11  and  C31_33
REMARK    7  A    between atoms: O1_12  and  C11_13
ROOT
HETATM    1  C11 UNL     1      -7.607  25.959  13.109  1.00  0.00     0.123 C
HETATM    2  C12 UNL     1      -7.455  25.243  14.450  1.00  0.00     0.037 C
HETATM    3  C13 UNL     1      -5.996  25.308  14.803  1.00  0.00    -0.008 C
HETATM    4  C14 UNL     1      -5.443  24.071  15.417  1.00  0.00     0.005 C
HETATM    5  C15 UNL     1      -3.952  24.256  15.592  1.00  0.00     0.006 C
HETATM    6  C16 UNL     1      -3.313  24.473  14.248  1.00  0.00    -0.001 C
HETATM    7  C17 UNL     1      -3.920  25.630  13.483  1.00  0.00    -0.005 C
HETATM    8  C18 UNL     1      -3.489  26.958  13.996  1.00  0.00     0.006 C
HETATM    9  C19 UNL     1      -2.263  26.965  14.817  1.00  0.00     0.010 C
HETATM   10  C20 UNL     1      -1.238  25.898  14.415  1.00  0.00    -0.036 C
HETATM   11  C21 UNL     1      -0.647  26.414  13.093  1.00  0.00     0.016 C
HETATM   12  C22 UNL     1      -0.160  26.003  15.440  1.00  0.00     0.014 C
HETATM   13  C23 UNL     1       0.767  24.864  15.563  1.00  0.00    -0.018 C
HETATM   14  C24 UNL     1       1.988  24.964  14.647  1.00  0.00     0.010 C
HETATM   15  C25 UNL     1       0.154  23.508  15.420  1.00  0.00     0.005 C
HETATM   16  C26 UNL     1      -1.329  23.631  15.357  1.00  0.00     0.010 C
HETATM   17  C27 UNL     1      -1.830  24.537  14.266  1.00  0.00    -0.033 C
HETATM   18  C28 UNL     1      -1.363  24.002  12.902  1.00  0.00     0.016 C
HETATM   19  C29 UNL     1      -5.374  25.405  13.403  1.00  0.00    -0.004 C
HETATM   20  C30 UNL     1      -6.199  26.514  12.822  1.00  0.00     0.037 C
ENDROOT
BRANCH   1  21
HETATM   21  O1  UNL     1      -8.565  26.920  13.146  1.00  0.00    -0.371 OA
BRANCH  21  22
HETATM   22  C10 UNL     1      -9.242  27.017  14.366  1.00  0.00     0.212 C
BRANCH  22  23
HETATM   23  C9  UNL     1     -10.690  27.150  14.027  1.00  0.00     0.071 C
BRANCH  23  24
HETATM   24  C8  UNL     1     -11.484  25.900  13.935  1.00  0.00     0.276 C
BRANCH  24  25
HETATM   25  N1  UNL     1     -11.107  24.850  14.819  1.00  0.00     0.097 N
HETATM   26  C6  UNL     1     -12.076  24.620  15.831  1.00  0.00     0.223 C
HETATM   27  C5  UNL     1     -13.348  23.992  15.342  1.00  0.00     0.062 C
HETATM   28  C7  UNL     1     -12.457  25.813  16.657  1.00  0.00     0.043 C
HETATM   29  C4  UNL     1     -13.112  23.109  14.189  1.00  0.00    -0.020 C
HETATM   30  C3  UNL     1     -11.928  22.903  13.628  1.00  0.00    -0.056 C
HETATM   31  C32 UNL     1     -10.753  23.611  14.204  1.00  0.00     0.306 C
BRANCH  30  32
HETATM   32  C2  UNL     1     -11.783  21.983  12.452  1.00  0.00     0.031 C
HETATM   33  C1  UNL     1     -12.947  22.128  11.508  1.00  0.00     0.010 C
ENDBRANCH  30  32
ENDBRANCH  24  25
ENDBRANCH  23  24
ENDBRANCH  22  23
BRANCH  22  34
HETATM   34  C31 UNL     1      -8.707  28.108  15.196  1.00  0.00     0.260 C
HETATM   35  N2  UNL     1      -9.083  28.349  16.536  1.00  0.00    -0.060 NA
HETATM   36  O2  UNL     1      -7.840  28.923  14.729  1.00  0.00    -0.274 OA
ENDBRANCH  22  34
ENDBRANCH  21  22
ENDBRANCH   1  21
TORSDOF 7
ENDMDL