MODEL 1
REMARK VINA RESULT: -10.897522366      0.000      0.000
REMARK  7 active torsions:
REMARK  status: ('A' for Active; 'I' for Inactive)
REMARK    1  A    between atoms: C2_2  and  C3_3
REMARK    2  A    between atoms: C3_3  and  C4_4
REMARK    3  A    between atoms: C4_4  and  C5_5
REMARK    4  A    between atoms: C5_5  and  C6_6
REMARK    5  A    between atoms: C6_6  and  C7_7
REMARK    6  A    between atoms: C7_7  and  N1_8
REMARK    7  A    between atoms: N1_8  and  C8_11
ROOT
HETATM    1  C8  UNL     1      -8.573  24.077  13.620  1.00  0.00     0.197 C
HETATM    2  C9  UNL     1      -7.328  23.837  12.860  1.00  0.00     0.039 C
HETATM    3  C10 UNL     1      -6.057  24.419  13.353  1.00  0.00    -0.007 C
HETATM    4  C11 UNL     1      -5.017  23.900  12.340  1.00  0.00     0.006 C
HETATM    5  C12 UNL     1      -3.644  23.873  12.867  1.00  0.00     0.010 C
HETATM    6  C13 UNL     1      -3.012  25.156  13.266  1.00  0.00    -0.036 C
HETATM    7  C14 UNL     1      -2.972  26.040  12.036  1.00  0.00     0.016 C
HETATM    8  C15 UNL     1      -3.598  25.915  14.369  1.00  0.00    -0.006 C
HETATM    9  C16 UNL     1      -3.457  25.279  15.746  1.00  0.00     0.006 C
HETATM   10  C17 UNL     1      -2.561  24.134  15.843  1.00  0.00     0.006 C
HETATM   11  C18 UNL     1      -1.468  23.973  14.827  1.00  0.00    -0.001 C
HETATM   12  C19 UNL     1      -0.129  23.968  15.483  1.00  0.00     0.019 C
HETATM   13  C20 UNL     1       0.660  22.686  15.268  1.00  0.00     0.017 C
HETATM   14  C21 UNL     1       2.073  22.944  14.791  1.00  0.00     0.079 C
HETATM   15  C22 UNL     1       2.771  23.900  15.686  1.00  0.00     0.130 C
HETATM   16  O1  UNL     1       3.913  23.676  16.019  1.00  0.00    -0.298 OA
HETATM   17  C23 UNL     1       1.998  25.108  16.130  1.00  0.00     0.112 C
HETATM   18  C24 UNL     1       0.758  25.083  15.245  1.00  0.00    -0.072 C
HETATM   19  C25 UNL     1       0.547  25.990  14.357  1.00  0.00    -0.023 C
HETATM   20  C26 UNL     1      -0.634  25.968  13.493  1.00  0.00     0.033 C
HETATM   21  C27 UNL     1      -1.556  24.821  13.603  1.00  0.00     0.002 C
HETATM   22  C28 UNL     1      -4.932  26.515  14.202  1.00  0.00     0.011 C
HETATM   23  C29 UNL     1      -5.941  25.890  13.319  1.00  0.00     0.006 C
HETATM   24  C30 UNL     1      -7.243  26.576  13.657  1.00  0.00     0.030 A
HETATM   25  C31 UNL     1      -7.797  27.689  12.905  1.00  0.00     0.025 A
HETATM   26  C32 UNL     1      -8.334  26.342  12.709  1.00  0.00     0.016 A
HETATM   27  C33 UNL     1      -8.952  25.510  13.806  1.00  0.00     0.092 C
HETATM   28  C34 UNL     1      -8.036  26.113  14.817  1.00  0.00     0.142 C
HETATM   29  O2  UNL     1      -8.006  26.166  16.014  1.00  0.00    -0.297 OA
ENDROOT
BRANCH   1  30
HETATM   30  N1  UNL     1      -9.589  23.256  13.015  1.00  0.00    -0.070 N
ATOM     31  H12 UNL     1      -9.260  22.297  12.906  1.00  0.00     0.277 HD
ATOM     32  H11 UNL     1      -9.716  23.504  12.034  1.00  0.00     0.277 HD
BRANCH  30  33
HETATM   33  C7  UNL     1     -10.860  23.287  13.722  1.00  0.00     0.232 C
BRANCH  33  34
HETATM   34  C6  UNL     1     -11.755  22.267  13.117  1.00  0.00     0.027 C
BRANCH  34  35
HETATM   35  C5  UNL     1     -13.180  22.587  13.035  1.00  0.00     0.002 C
BRANCH  35  36
HETATM   36  C4  UNL     1     -13.652  23.938  12.739  1.00  0.00     0.000 C
BRANCH  36  37
HETATM   37  C3  UNL     1     -14.454  24.705  13.709  1.00  0.00    -0.000 C
BRANCH  37  38
HETATM   38  C2  UNL     1     -14.292  24.261  15.158  1.00  0.00    -0.005 C
HETATM   39  C1  UNL     1     -13.247  25.172  15.768  1.00  0.00     0.005 C
ENDBRANCH  37  38
ENDBRANCH  36  37
ENDBRANCH  35  36
ENDBRANCH  34  35
ENDBRANCH  33  34
ENDBRANCH  30  33
ENDBRANCH   1  30
TORSDOF 7
ENDMDL