MODEL 5
REMARK VINA RESULT: -9.341687881      2.265      9.867
REMARK  9 active torsions:
REMARK  status: ('A' for Active; 'I' for Inactive)
REMARK    1  A    between atoms: C2_2  and  C3_3
REMARK    2  A    between atoms: C3_3  and  C5_5
REMARK    3  A    between atoms: C5_5  and  C6_6
REMARK    4  A    between atoms: C5_5  and  C12_12
REMARK    5  A    between atoms: C7_7  and  C8_8
REMARK    6  A    between atoms: C12_12  and  C13_13
REMARK    7  A    between atoms: C13_13  and  C14_14
REMARK    8  A    between atoms: C14_14  and  N1_15
REMARK    9  A    between atoms: C19_20  and  C20_21
ROOT
HETATM    1  N1  UNL     1      -6.182  24.472  14.503  1.00  0.00    -0.346 N
HETATM    2  C15 UNL     1      -4.766  24.666  14.516  1.00  0.00     0.183 C
HETATM    3  C16 UNL     1      -4.252  25.263  13.281  1.00  0.00     0.037 A
HETATM    4  C17 UNL     1      -5.008  25.887  12.327  1.00  0.00    -0.014 A
HETATM    5  C18 UNL     1      -4.192  26.307  11.327  1.00  0.00     0.041 A
HETATM    6  C19 UNL     1      -2.870  25.928  11.668  1.00  0.00     0.047 A
HETATM    7  N3  UNL     1      -2.941  25.310  12.843  1.00  0.00    -0.352 N
HETATM    8  C29 UNL     1      -1.840  24.825  13.654  1.00  0.00     0.156 C
HETATM    9  C30 UNL     1      -6.461  26.002  12.511  1.00  0.00     0.063 C
HETATM   10  C31 UNL     1      -7.213  26.027  11.199  1.00  0.00     0.030 C
HETATM   11  C32 UNL     1      -6.754  27.291  13.253  1.00  0.00     0.030 C
HETATM   12  C33 UNL     1      -6.927  24.886  13.366  1.00  0.00     0.232 C
HETATM   13  O1  UNL     1      -7.993  24.305  13.077  1.00  0.00    -0.272 OA
ENDROOT
BRANCH   1  14
HETATM   14  C14 UNL     1      -6.865  23.874  15.615  1.00  0.00     0.126 C
BRANCH  14  15
HETATM   15  C13 UNL     1      -7.534  24.882  16.531  1.00  0.00     0.021 C
BRANCH  15  16
HETATM   16  C12 UNL     1      -8.994  24.964  16.354  1.00  0.00     0.019 C
BRANCH  16  17
HETATM   17  C5  UNL     1      -9.571  25.612  15.169  1.00  0.00     0.069 C
BRANCH  17  18
HETATM   18  C3  UNL     1      -9.681  27.089  15.089  1.00  0.00    -0.003 C
HETATM   19  C4  UNL     1     -10.686  27.560  14.038  1.00  0.00     0.011 C
BRANCH  18  20
HETATM   20  C2  UNL     1      -9.732  27.903  16.318  1.00  0.00     0.001 C
HETATM   21  C1  UNL     1      -9.213  29.324  15.944  1.00  0.00     0.005 C
ENDBRANCH  18  20
ENDBRANCH  17  18
BRANCH  17  22
HETATM   22  C6  UNL     1     -10.927  25.022  14.876  1.00  0.00    -0.101 C
HETATM   23  C7  UNL     1     -12.003  24.542  14.622  1.00  0.00    -0.097 C
BRANCH  23  24
HETATM   24  C8  UNL     1     -13.298  23.943  14.298  1.00  0.00     0.013 C
HETATM   25  C9  UNL     1     -13.193  22.444  14.082  1.00  0.00     0.028 C
HETATM   26  C10 UNL     1     -13.880  24.528  13.011  1.00  0.00     0.028 C
HETATM   27  C11 UNL     1     -14.272  24.277  15.410  1.00  0.00     0.028 C
ENDBRANCH  23  24
ENDBRANCH  17  22
ENDBRANCH  16  17
ENDBRANCH  15  16
ENDBRANCH  14  15
ENDBRANCH   1  14
BRANCH   6  28
HETATM   28  C20 UNL     1      -1.790  26.354  10.781  1.00  0.00     0.015 A
HETATM   29  C21 UNL     1      -1.745  25.787   9.481  1.00  0.00     0.023 A
HETATM   30  C22 UNL     1      -0.740  26.042   8.595  1.00  0.00    -0.051 A
HETATM   31  C23 UNL     1       0.284  26.879   8.944  1.00  0.00    -0.050 A
HETATM   32  C28 UNL     1      -0.485  25.564   7.193  1.00  0.00     0.039 C
HETATM   33  C24 UNL     1       0.260  27.433  10.193  1.00  0.00     0.035 A
HETATM   34  C26 UNL     1       1.253  26.997   7.798  1.00  0.00     0.039 C
HETATM   35  C25 UNL     1      -0.767  27.184  11.129  1.00  0.00     0.059 A
HETATM   36  N2  UNL     1      -0.597  27.754  12.431  1.00  0.00    -0.102 NA
HETATM   37  C27 UNL     1       0.372  26.636   6.609  1.00  0.00     0.009 C
ENDBRANCH   6  28
TORSDOF 9
ENDMDL