MODEL 3
REMARK VINA RESULT: -9.242332976      1.448      2.288
REMARK  8 active torsions:
REMARK  status: ('A' for Active; 'I' for Inactive)
REMARK    1  A    between atoms: C2_2  and  C3_3
REMARK    2  A    between atoms: C2_2  and  C6_6
REMARK    3  A    between atoms: C16_16  and  N1_17
REMARK       I    between atoms: N1_17  and  C17_19
REMARK    4  A    between atoms: C17_19  and  C18_21
REMARK    5  A    between atoms: C18_21  and  C20_24
REMARK    6  A    between atoms: C20_24  and  C21_25
REMARK    7  A    between atoms: C21_25  and  C22_26
REMARK    8  A    between atoms: C22_26  and  N3_27
ROOT
HETATM    1  C3  UNL     1     -14.011  23.617  14.487  1.00  0.00    -0.072 C
HETATM    2  C4  UNL     1     -14.557  23.105  15.428  1.00  0.00    -0.106 C
HETATM    3  C5  UNL     1     -15.242  22.484  16.555  1.00  0.00     0.112 C
ENDROOT
BRANCH   1   4
HETATM    4  C2  UNL     1     -13.310  24.237  13.317  1.00  0.00    -0.009 C
HETATM    5  C1  UNL     1     -14.112  24.393  12.304  1.00  0.00     0.029 C
BRANCH   4   6
HETATM    6  C6  UNL     1     -11.895  24.547  13.488  1.00  0.00     0.034 C
HETATM    7  C7  UNL     1     -11.813  25.787  14.380  1.00  0.00     0.011 C
HETATM    8  C8  UNL     1     -10.432  26.341  14.112  1.00  0.00     0.011 C
HETATM    9  C9  UNL     1      -9.463  25.390  14.771  1.00  0.00    -0.035 C
HETATM   10  C10 UNL     1      -9.866  25.366  16.254  1.00  0.00     0.016 C
HETATM   11  C11 UNL     1      -9.520  24.067  14.124  1.00  0.00     0.002 C
HETATM   12  C30 UNL     1      -8.122  26.052  14.740  1.00  0.00     0.004 C
HETATM   13  C12 UNL     1      -8.530  23.948  12.988  1.00  0.00     0.007 C
HETATM   14  C31 UNL     1     -10.893  23.534  13.783  1.00  0.00    -0.035 C
HETATM   15  C13 UNL     1      -7.110  24.169  13.455  1.00  0.00     0.012 C
HETATM   16  C14 UNL     1      -6.956  25.126  14.574  1.00  0.00    -0.019 C
HETATM   17  C15 UNL     1      -6.538  24.461  15.888  1.00  0.00     0.018 C
HETATM   18  C16 UNL     1      -5.846  26.156  14.308  1.00  0.00     0.093 C
HETATM   19  C28 UNL     1      -6.445  27.140  13.366  1.00  0.00     0.026 C
HETATM   20  C29 UNL     1      -7.936  27.070  13.657  1.00  0.00     0.008 C
HETATM   21  C32 UNL     1     -10.697  22.684  12.534  1.00  0.00     0.016 C
HETATM   22  C33 UNL     1     -11.348  22.591  14.872  1.00  0.00     0.016 C
BRANCH  18  23
HETATM   23  N1  UNL     1      -4.630  25.534  13.850  1.00  0.00    -0.355 N
HETATM   24  C17 UNL     1      -3.419  26.251  13.960  1.00  0.00     0.235 C
HETATM   25  O1  UNL     1      -3.291  27.402  14.426  1.00  0.00    -0.272 OA
ATOM     26  H1  UNL     1      -4.644  24.595  13.454  1.00  0.00     0.162 HD
BRANCH  24  27
HETATM   27  C18 UNL     1      -2.141  25.577  13.469  1.00  0.00     0.184 C
HETATM   28  C19 UNL     1      -2.062  25.987  12.053  1.00  0.00     0.073 C
HETATM   29  N2  UNL     1      -2.024  26.333  10.941  1.00  0.00    -0.196 NA
BRANCH  27  30
HETATM   30  C20 UNL     1      -2.238  24.117  13.653  1.00  0.00     0.030 C
BRANCH  30  31
HETATM   31  C21 UNL     1      -1.460  23.440  14.704  1.00  0.00     0.032 C
BRANCH  31  32
HETATM   32  C22 UNL     1      -0.960  24.265  15.846  1.00  0.00     0.272 C
BRANCH  32  33
HETATM   33  N3  UNL     1       0.511  24.235  15.884  1.00  0.00     0.088 N
HETATM   34  C23 UNL     1       1.016  25.458  15.232  1.00  0.00     0.272 C
HETATM   35  C24 UNL     1       2.498  25.503  15.408  1.00  0.00     0.030 C
HETATM   36  C25 UNL     1       3.183  24.255  14.888  1.00  0.00     0.003 C
HETATM   37  C26 UNL     1       2.455  23.007  15.277  1.00  0.00     0.030 C
HETATM   38  C27 UNL     1       0.957  23.164  15.030  1.00  0.00     0.272 C
ENDBRANCH  32  33
ENDBRANCH  31  32
ENDBRANCH  30  31
ENDBRANCH  27  30
ENDBRANCH  24  27
ENDBRANCH  18  23
ENDBRANCH   4   6
ENDBRANCH   1   4
TORSDOF 8
ENDMDL