MODEL 4
REMARK VINA RESULT: -7.133762571      2.621      8.597
REMARK  8 active torsions:
REMARK  status: ('A' for Active; 'I' for Inactive)
REMARK    1  A    between atoms: C2_2  and  C3_3
REMARK    2  A    between atoms: C2_2  and  C6_8
REMARK    3  A    between atoms: C3_3  and  C4_4
REMARK    4  A    between atoms: C4_4  and  C5_5
REMARK    5  A    between atoms: C27_29  and  C28_30
REMARK    6  A    between atoms: C29_32  and  N2_33
REMARK    7  A    between atoms: N2_33  and  N3_35
REMARK    8  A    between atoms: N3_35  and  N4_36
ROOT
HETATM    1  C6  UNL     1      -2.007  25.666  14.027  1.00  0.00    -0.006 C
HETATM    2  C7  UNL     1      -2.414  26.875  14.793  1.00  0.00     0.006 C
HETATM    3  C8  UNL     1      -3.904  27.077  14.463  1.00  0.00     0.010 C
HETATM    4  C9  UNL     1      -4.018  26.507  13.089  1.00  0.00    -0.035 C
HETATM    5  C10 UNL     1      -3.245  27.507  12.189  1.00  0.00     0.016 C
HETATM    6  C11 UNL     1      -3.169  25.304  13.093  1.00  0.00    -0.002 C
HETATM    7  C12 UNL     1      -3.866  24.159  13.721  1.00  0.00     0.006 C
HETATM    8  C13 UNL     1      -5.174  23.888  13.141  1.00  0.00     0.011 C
HETATM    9  C14 UNL     1      -6.093  25.031  12.801  1.00  0.00    -0.026 C
HETATM   10  C15 UNL     1      -6.482  24.673  11.312  1.00  0.00     0.016 C
HETATM   11  C16 UNL     1      -5.411  26.334  12.558  1.00  0.00     0.007 C
HETATM   12  C17 UNL     1      -6.152  27.597  12.672  1.00  0.00     0.033 C
HETATM   13  C18 UNL     1      -7.356  27.418  13.488  1.00  0.00    -0.022 C
HETATM   14  C19 UNL     1      -7.925  26.312  13.899  1.00  0.00    -0.067 C
HETATM   15  C20 UNL     1      -9.146  26.109  14.728  1.00  0.00     0.033 C
HETATM   16  C21 UNL     1     -10.420  26.096  13.993  1.00  0.00     0.019 C
HETATM   17  C22 UNL     1     -11.537  25.356  14.674  1.00  0.00    -0.047 C
HETATM   18  C23 UNL     1     -12.631  26.311  15.186  1.00  0.00     0.015 C
HETATM   19  C24 UNL     1     -12.261  24.543  13.586  1.00  0.00     0.015 C
HETATM   20  C25 UNL     1     -11.194  24.461  15.774  1.00  0.00     0.010 C
HETATM   21  C26 UNL     1      -9.795  23.938  15.873  1.00  0.00     0.020 C
HETATM   22  C27 UNL     1      -8.745  24.933  15.540  1.00  0.00     0.044 C
HETATM   23  C29 UNL     1      -7.479  24.325  14.895  1.00  0.00     0.143 C
HETATM   24  C30 UNL     1      -7.339  24.981  13.566  1.00  0.00     0.011 C
HETATM   25  C31 UNL     1      -8.314  24.103  12.745  1.00  0.00     0.023 C
ENDROOT
BRANCH   1  26
HETATM   26  C2  UNL     1      -0.719  25.828  13.302  1.00  0.00    -0.014 C
HETATM   27  C1  UNL     1      -0.418  24.587  12.477  1.00  0.00     0.010 C
BRANCH  26  28
HETATM   28  C3  UNL     1       0.384  26.110  14.290  1.00  0.00     0.013 C
BRANCH  28  29
HETATM   29  C4  UNL     1       0.765  24.961  15.157  1.00  0.00     0.100 C
BRANCH  29  30
HETATM   30  C5  UNL     1       2.258  24.769  15.062  1.00  0.00     0.231 C
HETATM   31  N1  UNL     1       3.073  25.702  15.747  1.00  0.00    -0.062 NA
HETATM   32  O1  UNL     1       2.744  23.826  14.405  1.00  0.00    -0.277 OA
ENDBRANCH  29  30
ENDBRANCH  28  29
ENDBRANCH  26  28
ENDBRANCH   1  26
BRANCH  23  33
HETATM   33  N2  UNL     1      -6.453  24.441  15.848  1.00  0.00    -0.246 N
ATOM     34  H2  UNL     1      -5.965  25.334  15.919  1.00  0.00     0.197 HD
BRANCH  33  35
HETATM   35  N3  UNL     1      -6.114  23.554  16.587  1.00  0.00    -0.248 NA
BRANCH  35  36
HETATM   36  N4  UNL     1      -5.928  22.638  17.400  1.00  0.00    -0.261 N
ATOM     37  H42 UNL     1      -6.945  22.590  17.465  1.00  0.00     0.193 HD
ATOM     38  H41 UNL     1      -5.637  21.906  18.047  1.00  0.00     0.193 HD
ENDBRANCH  35  36
ENDBRANCH  33  35
ENDBRANCH  23  33
BRANCH  22  39
HETATM   39  C28 UNL     1      -8.321  25.472  16.910  1.00  0.00     0.243 C
HETATM   40  O2  UNL     1      -8.166  26.667  17.080  1.00  0.00    -0.306 OA
ENDBRANCH  22  39
TORSDOF 8
ENDMDL