MODEL 5
REMARK VINA RESULT: -6.011544538      3.333      8.107
REMARK  8 active torsions:
REMARK  status: ('A' for Active; 'I' for Inactive)
REMARK    1  A    between atoms: C2_2  and  N1_3
REMARK    2  A    between atoms: C14_16  and  C15_17
REMARK    3  A    between atoms: C15_17  and  C17_19
REMARK    4  A    between atoms: C17_19  and  C18_20
REMARK    5  A    between atoms: C18_20  and  O2_21
REMARK    6  A    between atoms: O2_21  and  C19_22
REMARK    7  A    between atoms: C19_22  and  C20_23
REMARK    8  A    between atoms: C20_23  and  O3_24
ROOT
HETATM    1  N1  UNL     1      -8.866  25.461  14.106  1.00  0.00    -0.322 N
HETATM    2  C3  UNL     1      -9.045  26.145  15.378  1.00  0.00     0.224 C
HETATM    3  O1  UNL     1     -10.183  26.350  15.812  1.00  0.00    -0.273 OA
HETATM    4  C4  UNL     1      -7.782  26.545  16.049  1.00  0.00     0.104 C
HETATM    5  C5  UNL     1      -7.051  27.393  14.994  1.00  0.00     0.020 C
HETATM    6  C6  UNL     1      -6.468  26.430  13.942  1.00  0.00     0.041 C
HETATM    7  C7  UNL     1      -7.679  25.712  13.399  1.00  0.00     0.015 C
HETATM    8  C8  UNL     1      -7.764  25.240  12.177  1.00  0.00    -0.001 C
HETATM    9  C9  UNL     1      -6.746  25.273  11.070  1.00  0.00     0.030 C
HETATM   10  C10 UNL     1      -5.405  25.216  11.743  1.00  0.00     0.018 C
HETATM   11  C11 UNL     1      -4.808  26.569  11.975  1.00  0.00    -0.011 C
HETATM   12  C12 UNL     1      -4.980  27.437  10.714  1.00  0.00     0.021 C
HETATM   13  C13 UNL     1      -3.473  26.627  12.526  1.00  0.00    -0.039 C
HETATM   14  C14 UNL     1      -2.235  26.338  12.131  1.00  0.00    -0.059 C
HETATM   15  C21 UNL     1      -1.375  26.279  13.422  1.00  0.00    -0.005 C
HETATM   16  C22 UNL     1      -0.042  26.922  13.269  1.00  0.00     0.021 C
HETATM   17  C23 UNL     1      -2.113  26.932  14.490  1.00  0.00     0.032 C
HETATM   18  C24 UNL     1      -2.315  25.914  15.564  1.00  0.00     0.011 C
HETATM   19  C25 UNL     1      -1.111  25.020  15.369  1.00  0.00     0.010 C
HETATM   20  C26 UNL     1      -1.136  24.862  13.832  1.00  0.00    -0.036 C
HETATM   21  C27 UNL     1      -2.249  23.899  13.572  1.00  0.00     0.016 C
HETATM   22  C28 UNL     1       0.138  24.230  13.367  1.00  0.00     0.016 C
HETATM   23  C29 UNL     1      -3.333  27.366  13.820  1.00  0.00    -0.049 C
HETATM   24  C30 UNL     1      -4.155  28.281  14.245  1.00  0.00    -0.018 C
HETATM   25  C31 UNL     1      -5.314  28.607  13.377  1.00  0.00     0.034 C
HETATM   26  C32 UNL     1      -5.847  27.255  12.891  1.00  0.00     0.011 C
ENDROOT
BRANCH  14  27
HETATM   27  C15 UNL     1      -1.633  25.832  10.925  1.00  0.00     0.014 C
HETATM   28  C16 UNL     1      -1.275  27.101  10.032  1.00  0.00     0.015 C
BRANCH  27  29
HETATM   29  C17 UNL     1      -2.277  24.866  10.004  1.00  0.00     0.035 C
BRANCH  29  30
HETATM   30  C18 UNL     1      -1.378  24.402   8.881  1.00  0.00     0.168 C
BRANCH  30  31
HETATM   31  O2  UNL     1      -1.393  24.997   7.688  1.00  0.00    -0.389 OA
BRANCH  31  32
HETATM   32  C19 UNL     1      -0.165  25.183   7.050  1.00  0.00     0.193 C
BRANCH  32  33
HETATM   33  C20 UNL     1       0.930  25.104   8.066  1.00  0.00     0.190 C
BRANCH  33  34
HETATM   34  O3  UNL     1       1.790  24.024   7.842  1.00  0.00    -0.399 OA
ATOM     35  H3  UNL     1       1.996  23.552   8.641  1.00  0.00     0.209 HD
ENDBRANCH  33  34
ENDBRANCH  32  33
ENDBRANCH  31  32
ENDBRANCH  30  31
ENDBRANCH  29  30
ENDBRANCH  27  29
ENDBRANCH  14  27
BRANCH   1  36
HETATM   36  C2  UNL     1      -9.937  24.565  13.680  1.00  0.00     0.127 C
HETATM   37  C1  UNL     1      -9.940  23.270  14.433  1.00  0.00     0.027 C
ENDBRANCH   1  36
TORSDOF 8
ENDMDL