MODEL 4
REMARK VINA RESULT: -9.674106839      1.253      1.847
REMARK  8 active torsions:
REMARK  status: ('A' for Active; 'I' for Inactive)
REMARK    1  A    between atoms: C2_2  and  C3_3
REMARK    2  A    between atoms: C3_3  and  N1_4
REMARK    3  A    between atoms: C17_19  and  O1_20
REMARK    4  A    between atoms: O1_20  and  C18_21
REMARK    5  A    between atoms: C18_21  and  C19_22
REMARK    6  A    between atoms: C19_22  and  C20_23
REMARK    7  A    between atoms: C23_26  and  C24_27
REMARK    8  A    between atoms: C24_27  and  O2_30
ROOT
HETATM    1  N1  UNL     1      -1.645  26.386  12.831  1.00  0.00    -0.366 N
HETATM    2  C4  UNL     1      -1.442  25.003  12.656  1.00  0.00     0.076 C
HETATM    3  S1  UNL     1       0.036  24.348  12.900  1.00  0.00    -0.066 SA
HETATM    4  C5  UNL     1      -2.546  24.140  12.254  1.00  0.00     0.070 C
HETATM    5  C6  UNL     1      -3.668  24.836  11.568  1.00  0.00     0.018 C
HETATM    6  C7  UNL     1      -3.992  26.198  12.057  1.00  0.00    -0.019 C
HETATM    7  C8  UNL     1      -4.174  27.082  10.808  1.00  0.00     0.018 C
HETATM    8  C9  UNL     1      -5.357  26.252  12.738  1.00  0.00     0.004 C
HETATM    9  C10 UNL     1      -6.480  25.969  11.800  1.00  0.00     0.007 C
HETATM   10  C11 UNL     1      -7.732  25.467  12.438  1.00  0.00     0.017 C
HETATM   11  C12 UNL     1      -7.885  25.912  13.850  1.00  0.00     0.006 C
HETATM   12  C13 UNL     1      -8.043  27.397  13.980  1.00  0.00     0.023 C
HETATM   13  C14 UNL     1      -6.675  25.421  14.605  1.00  0.00    -0.068 C
HETATM   14  C15 UNL     1      -7.060  25.101  15.825  1.00  0.00    -0.020 C
HETATM   15  C16 UNL     1      -8.520  25.335  16.013  1.00  0.00     0.060 C
HETATM   16  C17 UNL     1      -9.020  25.220  14.558  1.00  0.00     0.137 C
HETATM   17  C27 UNL     1      -5.344  25.365  13.953  1.00  0.00     0.020 C
HETATM   18  C28 UNL     1      -4.230  25.754  14.873  1.00  0.00     0.011 C
HETATM   19  C29 UNL     1      -3.403  26.890  14.411  1.00  0.00     0.027 C
HETATM   20  C30 UNL     1      -3.017  26.860  12.949  1.00  0.00     0.093 C
ENDROOT
BRANCH  16  21
HETATM   21  O1  UNL     1     -10.239  25.830  14.424  1.00  0.00    -0.384 OA
BRANCH  21  22
HETATM   22  C18 UNL     1     -11.032  25.873  15.536  1.00  0.00     0.170 C
BRANCH  22  23
HETATM   23  C19 UNL     1     -12.497  26.008  15.300  1.00  0.00     0.058 C
BRANCH  23  24
HETATM   24  C20 UNL     1     -13.151  24.696  14.926  1.00  0.00     0.124 C
HETATM   25  C21 UNL     1     -14.395  24.868  14.129  1.00  0.00     0.034 C
HETATM   26  C22 UNL     1     -14.017  24.323  12.768  1.00  0.00     0.037 C
HETATM   27  C23 UNL     1     -12.672  23.690  12.978  1.00  0.00     0.155 C
HETATM   28  O3  UNL     1     -12.309  23.827  14.289  1.00  0.00    -0.378 OA
BRANCH  27  29
HETATM   29  C24 UNL     1     -12.700  22.240  12.520  1.00  0.00     0.076 C
HETATM   30  C25 UNL     1     -11.290  21.700  12.609  1.00  0.00     0.048 C
HETATM   31  C26 UNL     1     -13.320  22.065  11.174  1.00  0.00     0.048 C
BRANCH  29  32
HETATM   32  O2  UNL     1     -13.459  21.531  13.455  1.00  0.00    -0.388 OA
ATOM     33  H2  UNL     1     -12.854  21.195  14.106  1.00  0.00     0.210 HD
ENDBRANCH  29  32
ENDBRANCH  27  29
ENDBRANCH  23  24
ENDBRANCH  22  23
ENDBRANCH  21  22
ENDBRANCH  16  21
BRANCH   1  34
HETATM   34  C3  UNL     1      -0.519  27.278  12.891  1.00  0.00     0.150 C
BRANCH  34  35
HETATM   35  C2  UNL     1      -0.255  27.973  11.642  1.00  0.00    -0.017 C
HETATM   36  C1  UNL     1      -0.419  27.512  10.418  1.00  0.00     0.008 C
ENDBRANCH  34  35
ENDBRANCH   1  34
TORSDOF 8
ENDMDL