MODEL 5
REMARK VINA RESULT: -8.748974735      2.345      4.520
REMARK  10 active torsions:
REMARK  status: ('A' for Active; 'I' for Inactive)
REMARK    1  A    between atoms: C2_2  and  C4_4
REMARK    2  A    between atoms: C4_4  and  C5_5
REMARK    3  A    between atoms: C4_4  and  C7_7
REMARK    4  A    between atoms: C7_7  and  C8_8
REMARK    5  A    between atoms: C7_7  and  C28_31
REMARK    6  A    between atoms: C8_8  and  C9_9
REMARK    7  A    between atoms: C13_13  and  C14_14
REMARK    8  A    between atoms: C21_22  and  C23_24
REMARK    9  A    between atoms: C24_26  and  C26_28
REMARK   10  A    between atoms: C28_31  and  C30_33
ROOT
HETATM    1  C9  UNL     1      -5.974  27.065  13.689  1.00  0.00    -0.053 C
HETATM    2  C10 UNL     1      -6.645  26.576  12.495  1.00  0.00     0.012 C
HETATM    3  C11 UNL     1      -7.152  25.191  12.364  1.00  0.00     0.015 C
HETATM    4  C12 UNL     1      -5.392  26.582  11.508  1.00  0.00     0.016 C
HETATM    5  C13 UNL     1      -4.431  25.766  12.321  1.00  0.00     0.022 C
HETATM    6  C26 UNL     1      -4.621  26.301  13.740  1.00  0.00     0.110 C
HETATM    7  C27 UNL     1      -4.938  25.244  14.713  1.00  0.00     0.077 C
HETATM    8  N1  UNL     1      -5.181  24.407  15.516  1.00  0.00    -0.196 NA
ENDROOT
BRANCH   6   9
HETATM    9  C24 UNL     1      -3.451  27.047  14.214  1.00  0.00     0.110 A
HETATM   10  C23 UNL     1      -2.141  26.483  13.891  1.00  0.00     0.171 A
HETATM   11  O2  UNL     1      -2.621  26.222  15.144  1.00  0.00    -0.366 OA
HETATM   12  C25 UNL     1      -3.417  28.451  14.708  1.00  0.00     0.051 C
BRANCH  10  13
HETATM   13  C21 UNL     1      -2.058  25.353  12.934  1.00  0.00     0.008 C
HETATM   14  C14 UNL     1      -2.489  25.794  11.576  1.00  0.00     0.022 C
HETATM   15  C15 UNL     1      -1.400  26.361  10.707  1.00  0.00     0.022 C
HETATM   16  C16 UNL     1      -0.777  27.624  11.194  1.00  0.00     0.024 C
HETATM   17  C17 UNL     1      -1.740  26.366   9.234  1.00  0.00     0.024 C
HETATM   18  C18 UNL     1      -0.225  25.410  10.791  1.00  0.00     0.157 C
HETATM   19  O1  UNL     1       0.341  25.069   9.725  1.00  0.00    -0.292 OA
HETATM   20  C19 UNL     1       0.230  24.911  12.064  1.00  0.00     0.048 C
HETATM   21  C20 UNL     1      -0.621  24.895  13.023  1.00  0.00    -0.011 C
HETATM   22  C22 UNL     1      -2.799  24.091  13.375  1.00  0.00     0.023 C
ENDBRANCH  10  13
ENDBRANCH   6   9
BRANCH   1  23
HETATM   23  C8  UNL     1      -6.568  27.253  14.999  1.00  0.00    -0.016 C
BRANCH  23  24
HETATM   24  C7  UNL     1      -8.028  27.605  15.196  1.00  0.00     0.020 C
BRANCH  24  25
HETATM   25  C4  UNL     1      -8.966  26.447  15.173  1.00  0.00     0.021 C
BRANCH  25  26
HETATM   26  C2  UNL     1     -10.396  26.675  15.020  1.00  0.00    -0.088 C
HETATM   27  C1  UNL     1     -11.352  26.114  15.653  1.00  0.00     0.014 C
HETATM   28  C3  UNL     1     -10.877  27.682  13.977  1.00  0.00     0.043 C
ENDBRANCH  25  26
BRANCH  25  29
HETATM   29  C5  UNL     1      -8.701  25.544  16.388  1.00  0.00     0.005 C
HETATM   30  C6  UNL     1      -8.497  24.117  16.190  1.00  0.00     0.006 C
ENDBRANCH  25  29
ENDBRANCH  24  25
BRANCH  24  31
HETATM   31  C28 UNL     1      -8.137  28.625  16.280  1.00  0.00    -0.011 C
HETATM   32  C29 UNL     1      -6.871  29.498  16.371  1.00  0.00     0.010 C
BRANCH  31  33
HETATM   33  C30 UNL     1      -9.262  29.605  16.235  1.00  0.00     0.000 C
HETATM   34  C31 UNL     1     -10.084  29.537  17.541  1.00  0.00     0.005 C
ENDBRANCH  31  33
ENDBRANCH  24  31
ENDBRANCH  23  24
ENDBRANCH   1  23
TORSDOF 10
ENDMDL