MODEL 1
REMARK VINA RESULT: -9.066770295      0.000      0.000
REMARK  7 active torsions:
REMARK  status: ('A' for Active; 'I' for Inactive)
REMARK    1  A    between atoms: S1_2  and  C2_4
REMARK    2  A    between atoms: S1_2  and  O2_7
REMARK    3  A    between atoms: C2_4  and  C3_5
REMARK    4  A    between atoms: O2_7  and  C5_8
REMARK    5  A    between atoms: C12_15  and  C13_16
REMARK    6  A    between atoms: C13_16  and  O3_17
REMARK    7  A    between atoms: C15_19  and  C16_20
ROOT
HETATM    1  C5  UNL     1      -7.149  25.805  14.391  1.00  0.00     0.148 C
HETATM    2  C6  UNL     1      -5.896  25.545  15.218  1.00  0.00     0.040 C
HETATM    3  C7  UNL     1      -4.893  26.601  14.802  1.00  0.00     0.005 C
HETATM    4  C8  UNL     1      -3.610  26.003  14.350  1.00  0.00    -0.035 C
HETATM    5  C9  UNL     1      -3.373  24.792  15.272  1.00  0.00     0.016 C
HETATM    6  C10 UNL     1      -2.412  26.878  14.471  1.00  0.00     0.011 C
HETATM    7  C11 UNL     1      -1.587  27.011  13.248  1.00  0.00     0.017 C
HETATM    8  C12 UNL     1      -1.302  25.757  12.486  1.00  0.00     0.009 C
HETATM    9  C15 UNL     1      -1.125  26.090  11.057  1.00  0.00    -0.069 C
HETATM   10  C19 UNL     1      -1.800  25.208  10.295  1.00  0.00    -0.022 C
HETATM   11  C20 UNL     1      -2.501  24.198  11.156  1.00  0.00     0.033 C
HETATM   12  C21 UNL     1      -2.490  24.797  12.509  1.00  0.00     0.009 C
HETATM   13  C22 UNL     1      -3.778  25.424  12.965  1.00  0.00    -0.001 C
HETATM   14  C23 UNL     1      -4.449  26.278  11.974  1.00  0.00     0.006 C
HETATM   15  C24 UNL     1      -5.296  27.397  12.445  1.00  0.00     0.011 C
HETATM   16  C25 UNL     1      -5.570  27.539  13.881  1.00  0.00    -0.030 C
HETATM   17  C26 UNL     1      -5.330  28.993  14.325  1.00  0.00     0.016 C
HETATM   18  C27 UNL     1      -7.051  27.303  14.228  1.00  0.00    -0.013 C
HETATM   19  C28 UNL     1      -7.984  27.862  13.216  1.00  0.00     0.018 C
HETATM   20  C29 UNL     1      -7.343  27.931  15.571  1.00  0.00     0.018 C
ENDROOT
BRANCH   1  21
HETATM   21  O2  UNL     1      -8.242  25.460  15.141  1.00  0.00    -0.300 OA
BRANCH  21  22
HETATM   22  S1  UNL     1      -8.932  24.015  14.740  1.00  0.00     0.053 S
HETATM   23  C1  UNL     1     -10.407  24.258  14.188  1.00  0.00     0.144 C
HETATM   24  O1  UNL     1      -8.283  23.364  13.520  1.00  0.00    -0.244 OA
BRANCH  22  25
HETATM   25  C2  UNL     1      -8.964  22.864  16.080  1.00  0.00     0.123 C
BRANCH  25  26
HETATM   26  C3  UNL     1     -10.373  22.456  16.436  1.00  0.00     0.009 C
HETATM   27  C4  UNL     1     -10.727  22.788  17.865  1.00  0.00     0.006 C
ENDBRANCH  25  26
ENDBRANCH  22  25
ENDBRANCH  21  22
ENDBRANCH   1  21
BRANCH   8  28
HETATM   28  C13 UNL     1      -0.129  25.080  13.135  1.00  0.00     0.181 C
BRANCH  28  29
HETATM   29  O3  UNL     1      -0.381  23.964  13.864  1.00  0.00    -0.395 OA
HETATM   30  C14 UNL     1       0.281  23.916  15.077  1.00  0.00     0.201 C
ENDBRANCH  28  29
ENDBRANCH   8  28
BRANCH   9  31
HETATM   31  C16 UNL     1      -0.439  27.236  10.405  1.00  0.00     0.007 C
HETATM   32  C17 UNL     1      -1.396  28.310   9.919  1.00  0.00     0.014 C
HETATM   33  C18 UNL     1       0.466  26.893   9.270  1.00  0.00     0.014 C
ENDBRANCH   9  31
TORSDOF 7
ENDMDL