MODEL 3
REMARK VINA RESULT: -10.141725921      2.246      8.761
REMARK  6 active torsions:
REMARK  status: ('A' for Active; 'I' for Inactive)
REMARK    1  A    between atoms: C2_2  and  C4_4
REMARK    2  A    between atoms: C4_4  and  C5_5
REMARK    3  A    between atoms: C6_6  and  C7_7
REMARK    4  A    between atoms: C20_20  and  C21_21
REMARK    5  A    between atoms: C21_21  and  C22_22
REMARK    6  A    between atoms: C22_22  and  N1_23
ROOT
HETATM    1  C7  UNL     1      -2.516  26.468  12.222  1.00  0.00     0.035 C
HETATM    2  C8  UNL     1      -2.979  27.307  10.976  1.00  0.00     0.027 C
HETATM    3  C9  UNL     1      -2.695  27.269  13.426  1.00  0.00     0.022 C
HETATM    4  C10 UNL     1      -3.413  26.568  14.560  1.00  0.00     0.014 C
HETATM    5  C11 UNL     1      -4.782  26.105  14.300  1.00  0.00    -0.002 C
HETATM    6  C12 UNL     1      -5.001  24.935  15.286  1.00  0.00     0.019 C
HETATM    7  C13 UNL     1      -4.859  25.499  12.917  1.00  0.00     0.068 C
HETATM    8  C14 UNL     1      -5.881  26.287  12.140  1.00  0.00     0.020 C
HETATM    9  C15 UNL     1      -6.248  27.436  13.033  1.00  0.00     0.022 C
HETATM   10  C16 UNL     1      -7.608  28.001  12.820  1.00  0.00     0.015 C
HETATM   11  C17 UNL     1      -8.644  27.405  13.703  1.00  0.00     0.028 A
HETATM   12  C18 UNL     1      -8.868  27.886  15.066  1.00  0.00     0.024 A
HETATM   13  C19 UNL     1     -10.287  27.816  15.587  1.00  0.00     0.013 C
HETATM   14  C20 UNL     1      -8.182  26.521  14.758  1.00  0.00     0.071 A
HETATM   15  O1  UNL     1      -6.916  26.464  15.144  1.00  0.00    -0.367 OA
HETATM   16  C29 UNL     1      -5.911  27.071  14.443  1.00  0.00     0.070 C
HETATM   17  C30 UNL     1      -5.571  28.335  15.176  1.00  0.00     0.047 C
HETATM   18  C31 UNL     1      -3.557  25.355  12.264  1.00  0.00     0.143 C
HETATM   19  O2  UNL     1      -3.216  24.329  11.705  1.00  0.00    -0.296 OA
ENDROOT
BRANCH  14  20
HETATM   20  C21 UNL     1      -9.035  25.307  15.164  1.00  0.00     0.058 C
BRANCH  20  21
HETATM   21  C22 UNL     1      -9.420  24.489  13.954  1.00  0.00     0.119 C
BRANCH  21  22
HETATM   22  N1  UNL     1     -10.708  23.927  14.161  1.00  0.00    -0.412 N
HETATM   23  C23 UNL     1     -11.672  24.731  14.822  1.00  0.00     0.117 C
HETATM   24  C24 UNL     1     -12.933  24.755  13.945  1.00  0.00     0.019 C
HETATM   25  C25 UNL     1     -13.360  23.289  13.815  1.00  0.00     0.002 C
HETATM   26  C26 UNL     1     -12.640  22.586  12.715  1.00  0.00     0.002 C
HETATM   27  C27 UNL     1     -11.394  21.871  13.171  1.00  0.00     0.019 C
HETATM   28  C28 UNL     1     -10.770  22.528  14.382  1.00  0.00     0.117 C
ENDBRANCH  21  22
ENDBRANCH  20  21
ENDBRANCH  14  20
BRANCH   1  29
HETATM   29  C6  UNL     1      -1.202  25.959  11.807  1.00  0.00    -0.010 C
HETATM   30  C5  UNL     1      -0.517  24.858  12.446  1.00  0.00    -0.007 C
BRANCH  30  31
HETATM   31  C4  UNL     1       0.069  24.856  13.777  1.00  0.00    -0.023 C
BRANCH  31  32
HETATM   32  C2  UNL     1      -0.270  23.839  14.775  1.00  0.00    -0.000 C
HETATM   33  C1  UNL     1       0.925  23.172  15.429  1.00  0.00     0.013 C
HETATM   34  C3  UNL     1      -1.282  24.109  15.826  1.00  0.00     0.013 C
ENDBRANCH  31  32
ENDBRANCH  30  31
ENDBRANCH   1  29
TORSDOF 6
ENDMDL