MODEL 3
REMARK VINA RESULT: -9.358034334      2.051      4.408
REMARK  7 active torsions:
REMARK  status: ('A' for Active; 'I' for Inactive)
REMARK    1  A    between atoms: C2_2  and  C4_4
REMARK    2  A    between atoms: C4_4  and  C5_5
REMARK    3  A    between atoms: C5_5  and  C6_6
REMARK    4  A    between atoms: C6_6  and  C7_7
REMARK    5  A    between atoms: C7_7  and  C9_9
REMARK    6  A    between atoms: C25_27  and  C26_28
REMARK    7  A    between atoms: C26_28  and  N1_29
ROOT
HETATM    1  C9  UNL     1      -4.835  25.953  14.114  1.00  0.00     0.023 C
HETATM    2  C10 UNL     1      -4.201  24.854  14.949  1.00  0.00     0.009 C
HETATM    3  C11 UNL     1      -3.066  24.137  14.350  1.00  0.00     0.011 C
HETATM    4  C12 UNL     1      -1.702  24.656  14.750  1.00  0.00    -0.025 C
HETATM    5  C13 UNL     1      -1.624  24.620  16.239  1.00  0.00     0.016 C
HETATM    6  C14 UNL     1      -0.569  23.886  14.144  1.00  0.00     0.027 C
HETATM    7  C15 UNL     1       0.396  23.177  15.019  1.00  0.00     0.045 C
HETATM    8  C16 UNL     1       1.595  24.096  15.121  1.00  0.00     0.054 C
HETATM    9  C17 UNL     1       2.514  23.879  13.942  1.00  0.00     0.045 C
HETATM   10  C18 UNL     1       2.407  23.891  16.368  1.00  0.00     0.045 C
HETATM   11  O1  UNL     1       0.982  25.368  15.067  1.00  0.00    -0.374 OA
HETATM   12  C19 UNL     1       0.144  25.247  13.993  1.00  0.00     0.139 C
HETATM   13  C20 UNL     1      -1.218  25.820  14.004  1.00  0.00     0.022 C
HETATM   14  C21 UNL     1      -1.483  27.013  14.929  1.00  0.00     0.018 C
HETATM   15  C22 UNL     1      -2.922  27.367  14.915  1.00  0.00     0.039 C
HETATM   16  C23 UNL     1      -3.738  26.962  13.724  1.00  0.00     0.062 C
HETATM   17  C24 UNL     1      -4.304  28.245  13.171  1.00  0.00     0.046 C
HETATM   18  O2  UNL     1      -3.090  26.355  12.698  1.00  0.00    -0.372 OA
HETATM   19  C25 UNL     1      -1.751  26.223  12.716  1.00  0.00     0.152 C
ENDROOT
BRANCH   1  20
HETATM   20  C7  UNL     1      -5.576  25.376  12.967  1.00  0.00    -0.012 C
HETATM   21  C8  UNL     1      -6.273  24.051  13.308  1.00  0.00     0.010 C
BRANCH  20  22
HETATM   22  C6  UNL     1      -6.540  26.159  12.192  1.00  0.00     0.005 C
BRANCH  22  23
HETATM   23  C5  UNL     1      -7.901  26.321  12.839  1.00  0.00     0.001 C
BRANCH  23  24
HETATM   24  C4  UNL     1      -8.023  27.745  13.274  1.00  0.00     0.004 C
BRANCH  24  25
HETATM   25  C2  UNL     1      -8.208  27.913  14.758  1.00  0.00    -0.023 C
HETATM   26  C1  UNL     1      -7.198  28.956  15.213  1.00  0.00     0.009 C
HETATM   27  C3  UNL     1      -9.578  28.474  15.094  1.00  0.00     0.009 C
ENDBRANCH  24  25
ENDBRANCH  23  24
ENDBRANCH  22  23
ENDBRANCH  20  22
ENDBRANCH   1  20
BRANCH  19  28
HETATM   28  C26 UNL     1      -1.336  25.500  11.467  1.00  0.00     0.154 C
BRANCH  28  29
HETATM   29  N1  UNL     1      -0.464  26.329  10.680  1.00  0.00    -0.391 N
HETATM   30  C27 UNL     1       0.031  25.804   9.496  1.00  0.00     0.122 C
HETATM   31  C28 UNL     1       0.536  26.934   8.596  1.00  0.00     0.020 C
HETATM   32  C29 UNL     1      -0.625  27.862   8.303  1.00  0.00     0.007 C
HETATM   33  C30 UNL     1      -1.330  28.284   9.573  1.00  0.00     0.044 C
HETATM   34  C31 UNL     1      -0.641  27.719  10.811  1.00  0.00     0.058 C
ENDBRANCH  28  29
ENDBRANCH  19  28
TORSDOF 7
ENDMDL