MODEL 3
REMARK VINA RESULT: -9.316323295      0.903      1.103
REMARK  7 active torsions:
REMARK  status: ('A' for Active; 'I' for Inactive)
REMARK    1  A    between atoms: C2_2  and  O1_3
REMARK    2  A    between atoms: O1_3  and  C3_4
REMARK    3  A    between atoms: C3_4  and  C4_6
REMARK    4  A    between atoms: C11_13  and  C12_14
REMARK    5  A    between atoms: C12_14  and  C13_15
REMARK    6  A    between atoms: C13_15  and  C14_16
REMARK    7  A    between atoms: C14_16  and  C15_17
ROOT
HETATM    1  C4  UNL     1      -8.949  27.278  15.081  1.00  0.00     0.072 C
HETATM    2  C5  UNL     1      -8.644  28.212  16.185  1.00  0.00     0.024 C
HETATM    3  C6  UNL     1      -7.953  29.525  15.751  1.00  0.00     0.002 C
HETATM    4  C7  UNL     1      -6.617  29.276  14.987  1.00  0.00     0.005 C
HETATM    5  C8  UNL     1      -6.732  27.881  14.662  1.00  0.00    -0.009 C
HETATM    6  C9  UNL     1      -5.893  26.881  14.056  1.00  0.00     0.043 C
HETATM    7  C10 UNL     1      -5.944  25.663  15.000  1.00  0.00    -0.054 C
HETATM    8  C11 UNL     1      -4.874  24.730  14.810  1.00  0.00    -0.019 C
HETATM    9  C20 UNL     1      -7.272  25.396  15.588  1.00  0.00    -0.042 C
HETATM   10  C21 UNL     1      -7.388  23.946  16.020  1.00  0.00     0.038 C
HETATM   11  C22 UNL     1      -8.302  23.776  17.248  1.00  0.00     0.016 C
HETATM   12  C23 UNL     1      -9.293  22.675  17.099  1.00  0.00     0.045 C
HETATM   13  C24 UNL     1     -10.187  22.905  15.897  1.00  0.00     0.063 C
HETATM   14  N1  UNL     1      -9.362  23.149  14.796  1.00  0.00    -0.373 N
HETATM   15  C25 UNL     1      -9.769  24.004  13.762  1.00  0.00     0.067 C
HETATM   16  C26 UNL     1      -8.980  25.291  13.712  1.00  0.00     0.081 C
HETATM   17  C27 UNL     1      -8.564  25.850  15.053  1.00  0.00    -0.050 C
HETATM   18  C28 UNL     1      -7.949  23.030  14.983  1.00  0.00     0.136 C
HETATM   19  C29 UNL     1      -8.062  27.818  13.949  1.00  0.00     0.029 C
ENDROOT
BRANCH   8  20
HETATM   20  C12 UNL     1      -4.524  23.948  13.604  1.00  0.00     0.028 C
BRANCH  20  21
HETATM   21  C13 UNL     1      -3.215  24.183  12.933  1.00  0.00     0.005 C
BRANCH  21  22
HETATM   22  C14 UNL     1      -2.747  25.571  12.777  1.00  0.00     0.020 C
BRANCH  22  23
HETATM   23  C15 UNL     1      -1.473  26.052  13.310  1.00  0.00     0.004 C
HETATM   24  C16 UNL     1      -0.842  27.258  12.709  1.00  0.00     0.027 C
HETATM   25  C17 UNL     1      -1.569  26.282  14.827  1.00  0.00     0.021 C
HETATM   26  C18 UNL     1      -0.185  26.224  15.382  1.00  0.00     0.012 C
HETATM   27  C19 UNL     1       0.368  24.849  15.024  1.00  0.00     0.075 C
HETATM   28  S1  UNL     1      -0.190  24.727  13.304  1.00  0.00    -0.159 SA
ENDBRANCH  22  23
ENDBRANCH  21  22
ENDBRANCH  20  21
ENDBRANCH   8  20
BRANCH   1  29
HETATM   29  C3  UNL     1     -10.380  27.452  14.754  1.00  0.00     0.272 C
HETATM   30  O2  UNL     1     -10.712  28.339  13.944  1.00  0.00    -0.264 OA
BRANCH  29  31
HETATM   31  O1  UNL     1     -11.377  26.665  15.309  1.00  0.00    -0.321 OA
BRANCH  31  32
HETATM   32  C2  UNL     1     -12.465  26.151  14.600  1.00  0.00     0.174 C
HETATM   33  C1  UNL     1     -13.004  24.956  15.389  1.00  0.00     0.034 C
ENDBRANCH  31  32
ENDBRANCH  29  31
ENDBRANCH   1  29
TORSDOF 7
ENDMDL