MODEL 4
REMARK VINA RESULT: -10.156313303      0.748      1.295
REMARK  10 active torsions:
REMARK  status: ('A' for Active; 'I' for Inactive)
REMARK    1  A    between atoms: C2_2  and  C3_3
REMARK    2  A    between atoms: C4_4  and  C5_5
REMARK    3  A    between atoms: C14_14  and  C15_15
REMARK    4  A    between atoms: C15_15  and  C16_17
REMARK    5  A    between atoms: C16_17  and  C18_19
REMARK    6  A    between atoms: C18_19  and  C19_20
REMARK    7  A    between atoms: C18_19  and  N1_26
REMARK    8  A    between atoms: C20_21  and  C22_23
REMARK    9  A    between atoms: N1_26  and  S1_27
REMARK   10  A    between atoms: S1_27  and  C25_30
ROOT
HETATM    1  C16 UNL     1      -4.222  25.156  14.117  1.00  0.00     0.121 C
HETATM    2  C17 UNL     1      -5.015  26.425  13.789  1.00  0.00     0.026 C
ENDROOT
BRANCH   1   3
HETATM    3  C15 UNL     1      -5.088  23.971  13.774  1.00  0.00     0.160 C
HETATM    4  O1  UNL     1      -4.532  22.878  13.641  1.00  0.00    -0.292 OA
BRANCH   3   5
HETATM    5  C14 UNL     1      -6.510  24.139  13.614  1.00  0.00     0.057 C
HETATM    6  C2  UNL     1      -7.478  23.940  14.461  1.00  0.00    -0.059 C
HETATM    7  C1  UNL     1      -7.331  23.479  15.826  1.00  0.00     0.048 C
BRANCH   6   8
HETATM    8  C3  UNL     1      -8.873  24.210  13.986  1.00  0.00     0.007 C
HETATM    9  C4  UNL     1      -9.870  23.807  14.730  1.00  0.00     0.009 C
BRANCH   9  10
HETATM   10  C5  UNL     1     -11.293  24.002  14.394  1.00  0.00    -0.048 C
HETATM   11  C6  UNL     1     -11.857  23.045  13.651  1.00  0.00    -0.077 C
HETATM   12  C7  UNL     1     -11.015  21.855  13.218  1.00  0.00     0.044 C
HETATM   13  C8  UNL     1     -13.263  23.125  13.251  1.00  0.00     0.034 C
HETATM   14  C9  UNL     1     -13.821  24.513  13.230  1.00  0.00     0.005 C
HETATM   15  C10 UNL     1     -13.483  25.251  14.499  1.00  0.00     0.014 C
HETATM   16  C11 UNL     1     -12.021  25.170  14.849  1.00  0.00    -0.020 C
HETATM   17  C12 UNL     1     -11.330  26.450  14.352  1.00  0.00     0.020 C
HETATM   18  C13 UNL     1     -11.986  25.221  16.385  1.00  0.00     0.020 C
ENDBRANCH   9  10
ENDBRANCH   6   8
ENDBRANCH   3   5
ENDBRANCH   1   3
BRANCH   1  19
HETATM   19  C18 UNL     1      -3.042  25.142  13.184  1.00  0.00     0.110 C
BRANCH  19  20
HETATM   20  C19 UNL     1      -1.865  24.418  13.710  1.00  0.00     0.044 C
HETATM   21  C20 UNL     1      -0.994  24.907  14.548  1.00  0.00    -0.077 C
HETATM   22  C21 UNL     1      -1.058  26.288  15.107  1.00  0.00     0.044 C
BRANCH  21  23
HETATM   23  C22 UNL     1       0.157  24.083  15.014  1.00  0.00     0.006 C
HETATM   24  C23 UNL     1       1.209  24.909  15.680  1.00  0.00     0.014 C
HETATM   25  C24 UNL     1      -0.385  22.975  15.870  1.00  0.00     0.014 C
ENDBRANCH  21  23
ENDBRANCH  19  20
BRANCH  19  26
HETATM   26  N1  UNL     1      -3.046  25.668  12.113  1.00  0.00    -0.326 NA
BRANCH  26  27
HETATM   27  S1  UNL     1      -2.590  26.123  10.634  1.00  0.00     0.299 S
HETATM   28  O2  UNL     1      -3.617  27.015   9.928  1.00  0.00    -0.191 OA
HETATM   29  O3  UNL     1      -2.406  24.906   9.718  1.00  0.00    -0.191 OA
BRANCH  27  30
HETATM   30  C25 UNL     1      -1.050  27.027  10.467  1.00  0.00     0.084 C
HETATM   31  C26 UNL     1      -0.681  27.673  11.766  1.00  0.00     0.034 C
HETATM   32  C27 UNL     1      -1.264  28.163   9.454  1.00  0.00     0.034 C
HETATM   33  C28 UNL     1       0.030  26.145   9.902  1.00  0.00     0.034 C
ENDBRANCH  27  30
ENDBRANCH  26  27
ENDBRANCH  19  26
ENDBRANCH   1  19
TORSDOF 10
ENDMDL