MODEL 3
REMARK VINA RESULT: -9.932068683      1.597      2.920
REMARK  7 active torsions:
REMARK  status: ('A' for Active; 'I' for Inactive)
REMARK    1  A    between atoms: N1_14  and  C14_15
REMARK    2  A    between atoms: C20_21  and  C22_23
REMARK    3  A    between atoms: C22_23  and  C23_24
REMARK    4  A    between atoms: C23_24  and  C24_25
REMARK    5  A    between atoms: C24_25  and  O1_26
REMARK    6  A    between atoms: O1_26  and  C25_27
REMARK    7  A    between atoms: C25_27  and  O2_28
ROOT
HETATM    1  C1  UNL     1      -7.612  25.874  12.022  1.00  0.00     0.015 C
HETATM    2  C2  UNL     1      -6.721  26.469  12.773  1.00  0.00    -0.080 C
HETATM    3  C3  UNL     1      -5.423  26.976  12.134  1.00  0.00     0.040 C
HETATM    4  C4  UNL     1      -4.494  27.259  13.272  1.00  0.00     0.007 C
HETATM    5  C5  UNL     1      -5.084  26.431  14.374  1.00  0.00     0.007 C
HETATM    6  C6  UNL     1      -4.899  24.974  14.154  1.00  0.00     0.033 C
HETATM    7  C7  UNL     1      -3.662  24.589  13.444  1.00  0.00    -0.022 C
HETATM    8  C8  UNL     1      -2.808  25.436  12.925  1.00  0.00    -0.064 C
HETATM    9  C9  UNL     1      -3.062  26.878  13.037  1.00  0.00    -0.016 C
HETATM   10  C10 UNL     1      -2.268  27.509  14.179  1.00  0.00     0.020 C
HETATM   11  C11 UNL     1      -2.540  27.533  11.773  1.00  0.00     0.016 C
HETATM   12  C12 UNL     1      -1.035  27.295  11.779  1.00  0.00     0.038 C
HETATM   13  C13 UNL     1      -0.805  25.858  11.476  1.00  0.00     0.235 C
HETATM   14  N1  UNL     1      -1.040  25.657  10.062  1.00  0.00     0.093 N
HETATM   15  C16 UNL     1      -1.929  24.557   9.903  1.00  0.00     0.274 C
HETATM   16  C17 UNL     1      -1.965  23.840  11.215  1.00  0.00     0.046 C
HETATM   17  C18 UNL     1      -1.604  24.873  12.239  1.00  0.00     0.013 C
HETATM   18  C19 UNL     1      -0.759  24.173  13.307  1.00  0.00     0.022 C
HETATM   19  C20 UNL     1      -6.617  26.825  14.186  1.00  0.00    -0.017 C
HETATM   20  C21 UNL     1      -6.631  28.317  14.338  1.00  0.00     0.020 C
ENDROOT
BRANCH  19  21
HETATM   21  C22 UNL     1      -7.305  26.033  15.197  1.00  0.00     0.016 C
BRANCH  21  22
HETATM   22  C23 UNL     1      -8.477  26.518  15.951  1.00  0.00     0.027 C
BRANCH  22  23
HETATM   23  C24 UNL     1      -9.820  26.371  15.296  1.00  0.00     0.171 C
BRANCH  23  24
HETATM   24  O1  UNL     1     -10.577  25.320  15.575  1.00  0.00    -0.355 OA
BRANCH  24  25
HETATM   25  C25 UNL     1     -11.295  24.544  14.805  1.00  0.00     0.163 C
HETATM   26  C27 UNL     1     -10.592  23.626  13.828  1.00  0.00     0.068 C
HETATM   27  C28 UNL     1     -11.553  22.612  13.349  1.00  0.00     0.005 C
HETATM   28  C29 UNL     1     -12.998  22.839  13.506  1.00  0.00     0.000 C
HETATM   29  C30 UNL     1     -13.473  24.240  13.664  1.00  0.00     0.005 C
HETATM   30  C31 UNL     1     -12.354  25.223  13.943  1.00  0.00     0.068 C
BRANCH  25  31
HETATM   31  O2  UNL     1     -12.073  23.710  15.699  1.00  0.00    -0.360 OA
HETATM   32  C26 UNL     1     -11.393  23.532  16.899  1.00  0.00     0.205 C
ENDBRANCH  25  31
ENDBRANCH  24  25
ENDBRANCH  23  24
ENDBRANCH  22  23
ENDBRANCH  21  22
ENDBRANCH  19  21
BRANCH  14  33
HETATM   33  C14 UNL     1       0.172  25.565   9.302  1.00  0.00     0.268 C
HETATM   34  C15 UNL     1       0.512  26.800   8.525  1.00  0.00     0.037 C
ENDBRANCH  14  33
TORSDOF 7
ENDMDL