MODEL 5
REMARK VINA RESULT: -9.043500442      1.967      4.490
REMARK  7 active torsions:
REMARK  status: ('A' for Active; 'I' for Inactive)
REMARK    1  A    between atoms: O1_2  and  C2_3
REMARK    2  A    between atoms: C2_3  and  C3_4
REMARK    3  A    between atoms: C3_4  and  O2_5
REMARK    4  A    between atoms: O2_5  and  C4_6
REMARK    5  A    between atoms: C24_26  and  C25_27
REMARK    6  A    between atoms: C25_27  and  C26_28
REMARK    7  A    between atoms: C26_28  and  C27_29
ROOT
HETATM    1  C4  UNL     1      -7.453  27.487  15.512  1.00  0.00     0.126 C
HETATM    2  C5  UNL     1      -7.089  28.536  14.492  1.00  0.00     0.033 C
HETATM    3  C6  UNL     1      -5.824  28.380  13.785  1.00  0.00     0.012 C
HETATM    4  C7  UNL     1      -5.422  26.933  13.427  1.00  0.00    -0.035 C
HETATM    5  C8  UNL     1      -6.495  26.496  12.448  1.00  0.00     0.016 C
HETATM    6  C9  UNL     1      -5.632  26.203  14.733  1.00  0.00     0.001 C
HETATM    7  C10 UNL     1      -4.787  25.014  14.859  1.00  0.00     0.007 C
HETATM    8  C11 UNL     1      -3.348  25.438  14.790  1.00  0.00     0.011 C
HETATM    9  C12 UNL     1      -2.969  26.390  13.721  1.00  0.00    -0.032 C
HETATM   10  C13 UNL     1      -2.309  27.602  14.417  1.00  0.00     0.016 C
HETATM   11  C14 UNL     1      -4.055  26.892  12.852  1.00  0.00     0.003 C
HETATM   12  C15 UNL     1      -4.016  26.338  11.420  1.00  0.00     0.011 C
HETATM   13  C16 UNL     1      -2.688  26.014  10.881  1.00  0.00    -0.006 C
HETATM   14  C17 UNL     1      -2.525  24.485  10.975  1.00  0.00     0.006 C
HETATM   15  C18 UNL     1      -2.228  24.341  12.448  1.00  0.00     0.011 C
HETATM   16  C19 UNL     1      -1.814  25.730  12.958  1.00  0.00    -0.029 C
HETATM   17  C20 UNL     1      -0.659  25.501  13.881  1.00  0.00     0.016 C
HETATM   18  C21 UNL     1      -1.486  26.400  11.680  1.00  0.00    -0.036 C
HETATM   19  C22 UNL     1      -1.047  27.775  11.637  1.00  0.00     0.016 C
HETATM   20  C23 UNL     1      -0.323  25.597  11.063  1.00  0.00     0.016 C
HETATM   21  C24 UNL     1      -7.104  26.080  14.984  1.00  0.00     0.019 C
ENDROOT
BRANCH  21  22
HETATM   22  C25 UNL     1      -7.570  25.121  16.019  1.00  0.00     0.010 C
BRANCH  22  23
HETATM   23  C26 UNL     1      -8.078  23.799  15.606  1.00  0.00     0.036 C
BRANCH  23  24
HETATM   24  C27 UNL     1      -9.415  23.853  14.904  1.00  0.00     0.222 C
HETATM   25  C28 UNL     1      -9.463  22.947  13.676  1.00  0.00     0.037 C
HETATM   26  C29 UNL     1     -10.875  22.436  13.587  1.00  0.00     0.032 C
HETATM   27  C30 UNL     1     -11.580  23.116  14.720  1.00  0.00     0.272 C
HETATM   28  N1  UNL     1     -10.527  23.403  15.724  1.00  0.00     0.088 N
HETATM   29  C31 UNL     1     -10.261  22.136  16.367  1.00  0.00     0.310 C
ENDBRANCH  23  24
ENDBRANCH  22  23
ENDBRANCH  21  22
BRANCH   1  30
HETATM   30  O2  UNL     1      -8.784  27.642  15.805  1.00  0.00    -0.383 OA
BRANCH  30  31
HETATM   31  C3  UNL     1      -9.487  28.020  14.676  1.00  0.00     0.194 C
BRANCH  31  32
HETATM   32  C2  UNL     1     -10.728  27.200  14.473  1.00  0.00     0.193 C
BRANCH  32  33
HETATM   33  O1  UNL     1     -11.226  26.655  15.629  1.00  0.00    -0.394 OA
HETATM   34  C1  UNL     1     -12.540  26.271  15.584  1.00  0.00     0.201 C
ENDBRANCH  32  33
ENDBRANCH  31  32
ENDBRANCH  30  31
ENDBRANCH   1  30
TORSDOF 7
ENDMDL