MODEL 4
REMARK VINA RESULT: -8.657023796      3.306      7.652
REMARK  9 active torsions:
REMARK  status: ('A' for Active; 'I' for Inactive)
REMARK    1  A    between atoms: C10_10  and  C11_11
REMARK    2  A    between atoms: C11_11  and  C12_12
REMARK    3  A    between atoms: C12_12  and  C13_13
REMARK    4  A    between atoms: C14_14  and  C15_15
REMARK    5  A    between atoms: C20_20  and  O1_21
REMARK    6  A    between atoms: O1_21  and  S1_22
REMARK    7  A    between atoms: S1_22  and  O4_25
REMARK    8  A    between atoms: O4_25  and  C21_26
REMARK    9  A    between atoms: C21_26  and  C22_27
ROOT
HETATM    1  C1  UNL     1      -4.556  24.531  16.070  1.00  0.00     0.015 C
HETATM    2  C2  UNL     1      -5.618  24.612  15.257  1.00  0.00    -0.079 C
HETATM    3  C3  UNL     1      -6.778  23.972  15.895  1.00  0.00     0.034 C
HETATM    4  C4  UNL     1      -7.919  23.537  15.089  1.00  0.00     0.005 C
HETATM    5  C5  UNL     1      -7.774  23.784  13.605  1.00  0.00     0.010 C
HETATM    6  C6  UNL     1      -7.144  25.132  13.553  1.00  0.00    -0.032 C
HETATM    7  C7  UNL     1      -8.119  26.014  14.235  1.00  0.00     0.016 C
HETATM    8  C8  UNL     1      -7.070  25.749  12.174  1.00  0.00     0.011 C
HETATM    9  C9  UNL     1      -6.111  26.882  12.412  1.00  0.00     0.012 C
HETATM   10  C10 UNL     1      -5.220  26.592  13.619  1.00  0.00    -0.018 C
HETATM   11  C17 UNL     1      -3.827  26.784  13.101  1.00  0.00    -0.011 C
HETATM   12  C18 UNL     1      -2.802  27.382  14.043  1.00  0.00     0.018 C
HETATM   13  C19 UNL     1      -3.737  27.783  11.920  1.00  0.00     0.018 C
HETATM   14  C20 UNL     1      -3.159  25.563  12.549  1.00  0.00     0.153 C
HETATM   15  C26 UNL     1      -4.135  24.569  11.965  1.00  0.00     0.035 C
HETATM   16  C27 UNL     1      -4.904  24.130  13.128  1.00  0.00     0.018 C
HETATM   17  C28 UNL     1      -5.680  25.179  13.920  1.00  0.00    -0.002 C
ENDROOT
BRANCH  14  18
HETATM   18  O1  UNL     1      -2.230  25.796  11.545  1.00  0.00    -0.248 OA
BRANCH  18  19
HETATM   19  S1  UNL     1      -1.193  24.541  11.254  1.00  0.00     0.402 S
HETATM   20  O2  UNL     1      -1.727  23.464  10.379  1.00  0.00    -0.169 OA
HETATM   21  O3  UNL     1       0.059  25.164  10.639  1.00  0.00    -0.169 OA
BRANCH  19  22
HETATM   22  O4  UNL     1      -0.715  23.900  12.740  1.00  0.00    -0.253 OA
BRANCH  22  23
HETATM   23  C21 UNL     1       0.205  24.717  13.373  1.00  0.00     0.200 C
BRANCH  23  24
HETATM   24  C22 UNL     1       0.147  24.500  14.859  1.00  0.00    -0.028 C
HETATM   25  C23 UNL     1      -1.175  23.959  15.317  1.00  0.00     0.016 C
HETATM   26  C24 UNL     1       1.256  23.554  15.270  1.00  0.00     0.016 C
HETATM   27  C25 UNL     1       0.407  25.821  15.588  1.00  0.00     0.016 C
ENDBRANCH  23  24
ENDBRANCH  22  23
ENDBRANCH  19  22
ENDBRANCH  18  19
ENDBRANCH  14  18
BRANCH  10  28
HETATM   28  C11 UNL     1      -5.461  27.387  14.836  1.00  0.00     0.023 C
BRANCH  28  29
HETATM   29  C12 UNL     1      -5.780  28.778  14.985  1.00  0.00     0.095 C
BRANCH  29  30
HETATM   30  C13 UNL     1      -7.107  29.216  15.386  1.00  0.00    -0.107 C
HETATM   31  C14 UNL     1      -8.213  29.551  15.742  1.00  0.00    -0.107 C
BRANCH  31  32
HETATM   32  C15 UNL     1      -9.545  29.946  16.144  1.00  0.00     0.089 C
HETATM   33  C16 UNL     1      -9.950  29.399  17.487  1.00  0.00     0.018 C
ENDBRANCH  31  32
ENDBRANCH  29  30
ENDBRANCH  28  29
ENDBRANCH  10  28
TORSDOF 9
ENDMDL