MODEL 3
REMARK VINA RESULT: -9.723539826      0.979      1.382
REMARK  11 active torsions:
REMARK  status: ('A' for Active; 'I' for Inactive)
REMARK       I    between atoms: C1_2  and  N1_3
REMARK    1  A    between atoms: C1_2  and  O7_33
REMARK    2  A    between atoms: N1_3  and  C2_5
REMARK    3  A    between atoms: C2_5  and  C3_6
REMARK    4  A    between atoms: C3_6  and  C4_9
REMARK    5  A    between atoms: C4_9  and  C5_11
REMARK    6  A    between atoms: C5_11  and  N2_12
REMARK    7  A    between atoms: C5_11  and  C19_30
REMARK       I    between atoms: N2_12  and  C6_14
REMARK    8  A    between atoms: C6_14  and  C7_16
REMARK       I    between atoms: N3_20  and  C11_21
REMARK    9  A    between atoms: C11_21  and  C12_23
REMARK   10  A    between atoms: O7_33  and  C20_34
REMARK   11  A    between atoms: C20_34  and  C21_35
ROOT
HETATM    1  C5  UNL     1       0.182   2.317   6.867  1.00  0.00     0.262 C
ENDROOT
BRANCH   1   2
HETATM    2  C4  UNL     1       1.572   2.632   7.219  1.00  0.00     0.232 C
HETATM    3  O2  UNL     1       1.926   3.790   6.836  1.00  0.00    -0.288 OA
BRANCH   2   4
HETATM    4  C3  UNL     1       2.592   1.883   7.908  1.00  0.00     0.321 C
HETATM    5  F1  UNL     1       3.421   2.784   8.663  1.00  0.00    -0.196 F
HETATM    6  F2  UNL     1       3.492   1.334   6.966  1.00  0.00    -0.196 F
BRANCH   4   7
HETATM    7  C2  UNL     1       2.232   0.829   8.870  1.00  0.00     0.212 C
BRANCH   7   8
HETATM    8  N1  UNL     1       1.610   1.168  10.095  1.00  0.00    -0.331 N
HETATM    9  C1  UNL     1       0.276   1.094  10.495  1.00  0.00     0.360 C
HETATM   10  O1  UNL     1      -0.606   0.669   9.727  1.00  0.00    -0.239 OA
ATOM     11  H1  UNL     1       2.246   1.527  10.807  1.00  0.00     0.164 HD
BRANCH   9  12
HETATM   12  O7  UNL     1      -0.110   1.491  11.765  1.00  0.00    -0.299 OA
BRANCH  12  13
HETATM   13  C20 UNL     1      -1.220   0.801  12.344  1.00  0.00     0.219 C
BRANCH  13  14
HETATM   14  C21 UNL     1      -2.275   1.832  12.662  1.00  0.00    -0.034 A
HETATM   15  C22 UNL     1      -3.163   2.299  11.738  1.00  0.00     0.009 A
HETATM   16  C23 UNL     1      -4.108   3.241  12.111  1.00  0.00     0.001 A
HETATM   17  C24 UNL     1      -4.158   3.706  13.400  1.00  0.00     0.000 A
HETATM   18  C25 UNL     1      -3.248   3.226  14.339  1.00  0.00     0.001 A
HETATM   19  C26 UNL     1      -2.303   2.286  13.977  1.00  0.00     0.009 A
ENDBRANCH  13  14
ENDBRANCH  12  13
ENDBRANCH   9  12
ENDBRANCH   7   8
ENDBRANCH   4   7
ENDBRANCH   2   4
ENDBRANCH   1   2
BRANCH   1  20
HETATM   20  N2  UNL     1      -0.521   3.500   6.357  1.00  0.00    -0.339 N
HETATM   21  C6  UNL     1      -1.461   4.188   7.144  1.00  0.00     0.241 C
HETATM   22  O3  UNL     1      -1.661   3.741   8.325  1.00  0.00    -0.271 OA
ATOM     23  H2  UNL     1      -0.323   3.830   5.413  1.00  0.00     0.163 HD
BRANCH  21  24
HETATM   24  C7  UNL     1      -2.213   5.385   6.670  1.00  0.00     0.179 C
HETATM   25  C8  UNL     1      -1.301   6.217   5.826  1.00  0.00     0.037 C
HETATM   26  C9  UNL     1      -0.846   7.327   6.738  1.00  0.00     0.022 C
HETATM   27  C10 UNL     1      -1.374   6.969   8.115  1.00  0.00     0.127 C
HETATM   28  N3  UNL     1      -2.570   6.256   7.761  1.00  0.00    -0.338 N
HETATM   29  C11 UNL     1      -3.826   6.383   8.404  1.00  0.00     0.229 C
HETATM   30  O4  UNL     1      -4.742   5.608   7.979  1.00  0.00    -0.273 OA
BRANCH  29  31
HETATM   31  C12 UNL     1      -4.162   7.300   9.484  1.00  0.00     0.110 C
HETATM   32  C13 UNL     1      -5.129   8.400   9.154  1.00  0.00    -0.016 C
HETATM   33  C14 UNL     1      -6.554   8.276   9.061  1.00  0.00    -0.029 C
HETATM   34  C15 UNL     1      -7.508   8.368  10.237  1.00  0.00     0.038 C
HETATM   35  C16 UNL     1      -7.176   7.304  11.345  1.00  0.00     0.083 C
HETATM   36  C17 UNL     1      -5.857   6.903  11.087  1.00  0.00    -0.182 C
HETATM   37  C18 UNL     1      -4.545   6.515  10.786  1.00  0.00     0.097 C
ENDBRANCH  29  31
ENDBRANCH  21  24
ENDBRANCH   1  20
BRANCH   1  38
HETATM   38  C19 UNL     1       0.123   1.321   5.779  1.00  0.00     0.204 C
HETATM   39  O5  UNL     1       0.911   1.431   4.805  1.00  0.00    -0.646 OA
HETATM   40  O6  UNL     1      -0.766   0.277   5.788  1.00  0.00    -0.646 OA
ENDBRANCH   1  38
TORSDOF 11
ENDMDL