MODEL 3
REMARK VINA RESULT: -10.082177721      3.236      7.096
REMARK  8 active torsions:
REMARK  status: ('A' for Active; 'I' for Inactive)
REMARK    1  A    between atoms: C2_2  and  C3_3
REMARK    2  A    between atoms: C5_5  and  N1_6
REMARK    3  A    between atoms: C5_5  and  C23_30
REMARK       I    between atoms: N1_6  and  C6_8
REMARK    4  A    between atoms: C6_8  and  C7_10
REMARK    5  A    between atoms: C14_17  and  C15_18
REMARK    6  A    between atoms: C21_26  and  C22_27
REMARK       I    between atoms: C23_30  and  N2_32
REMARK    7  A    between atoms: N2_32  and  S1_34
REMARK    8  A    between atoms: S1_34  and  C24_37
ROOT
HETATM    1  C7  UNL     1      -0.337   0.490   9.254  1.00  0.00     0.002 C
HETATM    2  C8  UNL     1      -0.179   1.329   8.000  1.00  0.00     0.041 C
HETATM    3  C9  UNL     1       1.122   1.355   7.320  1.00  0.00     0.010 C
HETATM    4  C10 UNL     1       2.291   0.930   8.110  1.00  0.00     0.001 C
HETATM    5  C11 UNL     1       2.753  -0.408   7.699  1.00  0.00     0.005 C
HETATM    6  C12 UNL     1       2.697  -1.252   8.949  1.00  0.00     0.002 C
HETATM    7  C13 UNL     1       1.371  -1.180   9.604  1.00  0.00     0.020 C
HETATM    8  C14 UNL     1       0.893   0.263  10.017  1.00  0.00     0.029 C
HETATM    9  C21 UNL     1       2.051   1.101   9.627  1.00  0.00     0.108 C
ENDROOT
BRANCH   1  10
HETATM   10  C6  UNL     1      -1.645   0.774   9.857  1.00  0.00     0.245 C
HETATM   11  N1  UNL     1      -1.910   2.062  10.362  1.00  0.00    -0.339 N
ATOM     12  H1  UNL     1      -1.145   2.734  10.306  1.00  0.00     0.164 HD
HETATM   13  O1  UNL     1      -2.598  -0.016   9.970  1.00  0.00    -0.268 OA
BRANCH  11  14
HETATM   14  C5  UNL     1      -3.173   2.556  10.967  1.00  0.00     0.122 A
HETATM   15  C3  UNL     1      -3.164   2.650  12.466  1.00  0.00     0.048 A
HETATM   16  C4  UNL     1      -4.063   1.667  11.692  1.00  0.00     0.053 A
BRANCH  15  17
HETATM   17  C2  UNL     1      -3.944   3.328  13.478  1.00  0.00    -0.029 C
HETATM   18  C1  UNL     1      -3.740   3.765  14.674  1.00  0.00     0.007 C
ENDBRANCH  15  17
BRANCH  14  19
HETATM   19  C23 UNL     1      -3.648   3.828  10.345  1.00  0.00     0.260 C
HETATM   20  O4  UNL     1      -4.696   4.365  10.707  1.00  0.00    -0.270 OA
HETATM   21  N2  UNL     1      -2.895   4.449   9.335  1.00  0.00    -0.252 N
ATOM     22  H2  UNL     1      -2.025   4.007   9.038  1.00  0.00     0.181 HD
BRANCH  21  23
HETATM   23  S1  UNL     1      -3.363   5.906   8.581  1.00  0.00     0.237 S
HETATM   24  O5  UNL     1      -3.389   7.016   9.618  1.00  0.00    -0.205 OA
HETATM   25  O6  UNL     1      -4.706   5.742   7.949  1.00  0.00    -0.205 OA
BRANCH  23  26
HETATM   26  C24 UNL     1      -2.164   6.329   7.332  1.00  0.00     0.130 A
HETATM   27  C25 UNL     1      -1.994   5.178   6.327  1.00  0.00     0.023 A
HETATM   28  C26 UNL     1      -0.897   5.612   7.235  1.00  0.00     0.023 A
ENDBRANCH  23  26
ENDBRANCH  21  23
ENDBRANCH  14  19
ENDBRANCH  11  14
ENDBRANCH   1  10
BRANCH   8  29
HETATM   29  C15 UNL     1       0.673   0.040  11.468  1.00  0.00    -0.041 A
HETATM   30  C16 UNL     1       0.722  -1.165  12.084  1.00  0.00     0.011 A
HETATM   31  C17 UNL     1       0.447  -1.364  13.453  1.00  0.00     0.046 A
HETATM   32  C18 UNL     1       0.106  -0.276  14.209  1.00  0.00     0.154 A
HETATM   33  F1  UNL     1      -0.163  -0.489  15.533  1.00  0.00    -0.203 F
HETATM   34  C19 UNL     1       0.033   0.979  13.648  1.00  0.00     0.155 A
HETATM   35  F2  UNL     1      -0.313   2.008  14.451  1.00  0.00    -0.203 F
HETATM   36  C20 UNL     1       0.314   1.132  12.301  1.00  0.00     0.053 A
ENDBRANCH   8  29
BRANCH   9  37
HETATM   37  C22 UNL     1       2.059   2.545   9.731  1.00  0.00     0.178 C
HETATM   38  O2  UNL     1       1.382   3.378  10.324  1.00  0.00    -0.648 OA
HETATM   39  O3  UNL     1       3.091   3.202   8.966  1.00  0.00    -0.648 OA
ENDBRANCH   9  37
TORSDOF 8
ENDMDL