MODEL 4
REMARK VINA RESULT: -8.790692132      3.072      5.978
REMARK  11 active torsions:
REMARK  status: ('A' for Active; 'I' for Inactive)
REMARK    1  A    between atoms: C2_2  and  C3_3
REMARK    2  A    between atoms: C3_3  and  C4_4
REMARK    3  A    between atoms: C4_4  and  C5_5
REMARK       I    between atoms: N3_11  and  C7_13
REMARK    4  A    between atoms: C7_13  and  C8_15
REMARK    5  A    between atoms: C8_15  and  C9_16
REMARK    6  A    between atoms: C8_15  and  N4_19
REMARK    7  A    between atoms: C9_16  and  C10_17
REMARK       I    between atoms: N4_19  and  C12_21
REMARK    8  A    between atoms: C12_21  and  C13_23
REMARK    9  A    between atoms: C14_24  and  C15_25
REMARK   10  A    between atoms: C15_25  and  C16_26
REMARK   11  A    between atoms: C16_26  and  C17_29
ROOT
HETATM    1  N4  UNL     1       1.544   0.835   8.371  1.00  0.00    -0.347 N
ATOM      2  H4  UNL     1       0.967   0.381   7.663  1.00  0.00     0.163 HD
HETATM    3  C12 UNL     1       1.649   2.242   8.318  1.00  0.00     0.224 C
HETATM    4  O2  UNL     1       2.357   2.818   9.176  1.00  0.00    -0.273 OA
ENDROOT
BRANCH   1   5
HETATM    5  C8  UNL     1       2.181  -0.002   9.333  1.00  0.00     0.177 C
BRANCH   5   6
HETATM    6  C7  UNL     1       1.368  -0.287  10.542  1.00  0.00     0.247 C
HETATM    7  N3  UNL     1       0.830   0.821  11.216  1.00  0.00    -0.289 N
HETATM    8  C6  UNL     1      -0.234   0.881  11.915  1.00  0.00     0.247 A
ATOM      9  H3  UNL     1       1.359   1.690  11.136  1.00  0.00     0.172 HD
HETATM   10  N2  UNL     1      -1.082  -0.115  12.161  1.00  0.00    -0.263 N
HETATM   11  O5  UNL     1      -0.708   1.963  12.542  1.00  0.00    -0.264 OA
HETATM   12  N1  UNL     1      -2.061   0.374  12.936  1.00  0.00    -0.280 N
ATOM     13  H2  UNL     1      -1.002  -1.074  11.823  1.00  0.00     0.190 HD
HETATM   14  C5  UNL     1      -1.815   1.664  13.163  1.00  0.00     0.142 A
ATOM     15  H1  UNL     1      -2.860  -0.151  13.291  1.00  0.00     0.189 HD
HETATM   16  O1  UNL     1       1.160  -1.447  10.960  1.00  0.00    -0.271 OA
BRANCH  14  17
HETATM   17  C4  UNL     1      -2.674   2.562  13.984  1.00  0.00     0.086 C
BRANCH  17  18
HETATM   18  C3  UNL     1      -3.851   3.058  13.176  1.00  0.00     0.008 C
BRANCH  18  19
HETATM   19  C2  UNL     1      -4.544   4.150  13.993  1.00  0.00    -0.004 C
HETATM   20  C1  UNL     1      -5.304   5.065  13.071  1.00  0.00     0.005 C
ENDBRANCH  18  19
ENDBRANCH  17  18
ENDBRANCH  14  17
ENDBRANCH   5   6
BRANCH   5  21
HETATM   21  C9  UNL     1       2.615  -1.332   8.733  1.00  0.00     0.034 C
BRANCH  21  22
HETATM   22  C10 UNL     1       3.668  -1.144   7.665  1.00  0.00    -0.002 C
HETATM   23  C11 UNL     1       4.720  -2.221   7.829  1.00  0.00     0.005 C
ENDBRANCH  21  22
ENDBRANCH   5  21
ENDBRANCH   1   5
BRANCH   3  24
HETATM   24  C13 UNL     1       0.944   3.056   7.280  1.00  0.00     0.105 C
HETATM   25  C14 UNL     1      -0.482   2.604   7.095  1.00  0.00     0.020 C
HETATM   26  C21 UNL     1      -0.564   1.819   5.832  1.00  0.00     0.146 C
HETATM   27  S1  UNL     1       0.605   2.675   4.755  1.00  0.00     0.153 S
HETATM   28  O3  UNL     1       1.241   1.756   3.790  1.00  0.00    -0.227 OA
HETATM   29  O4  UNL     1      -0.048   3.783   4.016  1.00  0.00    -0.227 OA
HETATM   30  C22 UNL     1       1.694   3.186   6.028  1.00  0.00     0.069 C
HETATM   31  C23 UNL     1       2.295   4.546   5.776  1.00  0.00     0.032 C
HETATM   32  C24 UNL     1       2.870   2.192   5.998  1.00  0.00     0.032 C
BRANCH  25  33
HETATM   33  C15 UNL     1      -1.392   3.748   7.278  1.00  0.00     0.086 C
BRANCH  33  34
HETATM   34  C16 UNL     1      -1.561   4.443   8.543  1.00  0.00     0.250 C
HETATM   35  F1  UNL     1      -0.488   5.179   9.008  1.00  0.00    -0.206 F
HETATM   36  F2  UNL     1      -1.620   3.412   9.521  1.00  0.00    -0.206 F
BRANCH  34  37
HETATM   37  C17 UNL     1      -2.839   5.199   8.757  1.00  0.00     0.015 C
HETATM   38  C18 UNL     1      -3.743   5.162   7.536  1.00  0.00     0.020 C
HETATM   39  C19 UNL     1      -2.691   6.629   9.122  1.00  0.00     0.020 C
HETATM   40  C20 UNL     1      -3.637   4.461   9.842  1.00  0.00     0.020 C
ENDBRANCH  34  37
ENDBRANCH  33  34
ENDBRANCH  25  33
ENDBRANCH   3  24
TORSDOF 11
ENDMDL