MODEL 3
REMARK VINA RESULT: -9.496266276      3.687      7.525
REMARK  11 active torsions:
REMARK  status: ('A' for Active; 'I' for Inactive)
REMARK       I    between atoms: C1_2  and  N1_3
REMARK    1  A    between atoms: C1_2  and  C18_25
REMARK    2  A    between atoms: N1_3  and  C2_5
REMARK    3  A    between atoms: C2_5  and  C3_6
REMARK    4  A    between atoms: C2_5  and  C11_18
REMARK    5  A    between atoms: C4_7  and  S1_8
REMARK    6  A    between atoms: S1_8  and  C5_11
REMARK    7  A    between atoms: C11_18  and  C12_19
REMARK    8  A    between atoms: C21_29  and  C22_30
REMARK    9  A    between atoms: C22_30  and  O5_31
REMARK   10  A    between atoms: C22_30  and  C23_33
REMARK   11  A    between atoms: C24_34  and  O6_35
ROOT
HETATM    1  C2  UNL     1       1.642   0.399   9.150  1.00  0.00     0.112 C
ENDROOT
BRANCH   1   2
HETATM    2  N1  UNL     1       2.708  -0.569   9.001  1.00  0.00    -0.351 N
HETATM    3  C1  UNL     1       2.905  -1.362   7.847  1.00  0.00     0.249 C
HETATM    4  O1  UNL     1       2.092  -1.205   6.893  1.00  0.00    -0.271 OA
ATOM      5  H1  UNL     1       3.358  -0.686   9.778  1.00  0.00     0.163 HD
BRANCH   3   6
HETATM    6  C18 UNL     1       4.010  -2.350   7.718  1.00  0.00     0.237 C
HETATM    7  C19 UNL     1       5.350  -1.719   7.899  1.00  0.00     0.209 C
HETATM    8  O4  UNL     1       6.255  -2.570   8.476  1.00  0.00    -0.386 OA
HETATM    9  C20 UNL     1       6.062  -3.896   8.156  1.00  0.00     0.202 C
HETATM   10  C21 UNL     1       4.701  -4.366   8.637  1.00  0.00     0.175 C
HETATM   11  O7  UNL     1       3.763  -3.370   8.606  1.00  0.00    -0.364 OA
BRANCH  10  12
HETATM   12  C22 UNL     1       4.389  -5.623   7.894  1.00  0.00     0.157 C
BRANCH  12  13
HETATM   13  O5  UNL     1       4.360  -6.722   8.779  1.00  0.00    -0.392 OA
ATOM     14  H5  UNL     1       4.517  -6.433   9.670  1.00  0.00     0.210 HD
ENDBRANCH  12  13
BRANCH  12  15
HETATM   15  C23 UNL     1       5.227  -5.932   6.720  1.00  0.00     0.068 A
HETATM   16  C24 UNL     1       4.897  -6.976   5.699  1.00  0.00     0.145 A
HETATM   17  C25 UNL     1       4.956  -5.453   5.349  1.00  0.00     0.120 A
HETATM   18 CL1  UNL     1       3.412  -4.701   4.943  1.00  0.00    -0.122 Cl
BRANCH  16  19
HETATM   19  O6  UNL     1       3.616  -7.496   5.680  1.00  0.00    -0.394 OA
ATOM     20  H6  UNL     1       3.141  -7.560   6.501  1.00  0.00     0.210 HD
ENDBRANCH  16  19
ENDBRANCH  12  15
ENDBRANCH  10  12
ENDBRANCH   3   6
ENDBRANCH   1   2
BRANCH   1  21
HETATM   21  C3  UNL     1       0.915   0.136  10.400  1.00  0.00     0.010 C
HETATM   22  C4  UNL     1       0.224   1.071  11.035  1.00  0.00     0.112 C
BRANCH  22  23
HETATM   23  S1  UNL     1      -0.635   0.716  12.537  1.00  0.00     0.196 S
HETATM   24  O2  UNL     1      -1.056  -0.712  12.526  1.00  0.00    -0.218 OA
HETATM   25  O3  UNL     1       0.350   0.914  13.683  1.00  0.00    -0.218 OA
BRANCH  23  26
HETATM   26  C5  UNL     1      -1.963   1.798  12.783  1.00  0.00     0.063 A
HETATM   27  C6  UNL     1      -2.718   2.190  11.699  1.00  0.00     0.027 A
HETATM   28  C7  UNL     1      -3.801   3.058  11.859  1.00  0.00     0.044 A
HETATM   29  C8  UNL     1      -4.154   3.550  13.102  1.00  0.00     0.116 A
HETATM   30  F1  UNL     1      -5.208   4.390  13.230  1.00  0.00    -0.206 F
HETATM   31  C9  UNL     1      -3.391   3.151  14.184  1.00  0.00     0.044 A
HETATM   32  C10 UNL     1      -2.324   2.296  14.026  1.00  0.00     0.027 A
ENDBRANCH  23  26
ENDBRANCH  22  23
ENDBRANCH   1  21
BRANCH   1  33
HETATM   33  C11 UNL     1       2.299   1.761   9.126  1.00  0.00     0.067 C
BRANCH  33  34
HETATM   34  C12 UNL     1       2.489   2.307   7.781  1.00  0.00    -0.056 A
HETATM   35  C13 UNL     1       3.653   2.896   7.330  1.00  0.00     0.007 A
HETATM   36  C14 UNL     1       3.744   3.390   6.044  1.00  0.00     0.001 A
HETATM   37  C15 UNL     1       2.672   3.314   5.154  1.00  0.00     0.000 A
HETATM   38  C16 UNL     1       1.511   2.730   5.596  1.00  0.00     0.001 A
HETATM   39  C17 UNL     1       1.448   2.247   6.878  1.00  0.00     0.007 A
ENDBRANCH  33  34
ENDBRANCH   1  33
TORSDOF 11
ENDMDL