MODEL 3
REMARK VINA RESULT: -8.453106338      3.028      5.182
REMARK  12 active torsions:
REMARK  status: ('A' for Active; 'I' for Inactive)
REMARK    1  A    between atoms: N1_2  and  C2_3
REMARK    2  A    between atoms: N1_2  and  C3_5
REMARK    3  A    between atoms: C3_5  and  C4_6
REMARK    4  A    between atoms: C3_5  and  C21_33
REMARK       I    between atoms: C4_6  and  N2_8
REMARK    5  A    between atoms: N2_8  and  C5_10
REMARK    6  A    between atoms: C5_10  and  C6_11
REMARK    7  A    between atoms: C5_10  and  C13_18
REMARK    8  A    between atoms: C6_11  and  C7_12
REMARK    9  A    between atoms: C13_18  and  O3_19
REMARK   10  A    between atoms: C13_18  and  C14_21
REMARK       I    between atoms: C14_21  and  N3_23
REMARK   11  A    between atoms: C19_29  and  C20_30
REMARK   12  A    between atoms: C21_33  and  C24_36
ROOT
HETATM    1  C5  UNL     1      -0.650   3.210   7.718  1.00  0.00     0.126 C
ENDROOT
BRANCH   1   2
HETATM    2  N2  UNL     1      -0.674   3.198   9.197  1.00  0.00    -0.351 N
HETATM    3  C4  UNL     1      -1.193   2.078   9.862  1.00  0.00     0.242 C
HETATM    4  O2  UNL     1      -1.601   1.143   9.072  1.00  0.00    -0.271 OA
ATOM      5  H2  UNL     1      -0.317   3.994   9.726  1.00  0.00     0.163 HD
BRANCH   3   6
HETATM    6  C3  UNL     1      -1.301   1.891  11.331  1.00  0.00     0.194 C
BRANCH   6   7
HETATM    7  N1  UNL     1      -0.505   0.805  11.780  1.00  0.00    -0.349 N
HETATM    8  C1  UNL     1       0.984   0.985  11.814  1.00  0.00     0.153 C
BRANCH   7   9
HETATM    9  C2  UNL     1      -0.939  -0.430  12.226  1.00  0.00     0.351 C
HETATM   10  O1  UNL     1      -0.940  -1.554  11.692  1.00  0.00    -0.284 OA
ENDBRANCH   7   9
ENDBRANCH   6   7
BRANCH   6  11
HETATM   11  C21 UNL     1      -2.684   1.993  11.803  1.00  0.00     0.079 C
HETATM   12  C22 UNL     1      -3.429   3.119  11.070  1.00  0.00     0.027 C
HETATM   13  C23 UNL     1      -3.550   0.780  11.592  1.00  0.00     0.027 C
BRANCH  11  14
HETATM   14  C24 UNL     1      -2.840   2.338  13.270  1.00  0.00     0.397 C
HETATM   15  F1  UNL     1      -3.616   1.394  13.929  1.00  0.00    -0.170 F
HETATM   16  F2  UNL     1      -3.526   3.536  13.393  1.00  0.00    -0.170 F
HETATM   17  F3  UNL     1      -1.671   2.466  13.936  1.00  0.00    -0.170 F
ENDBRANCH  11  14
ENDBRANCH   6  11
ENDBRANCH   3   6
ENDBRANCH   1   2
BRANCH   1  18
HETATM   18  C6  UNL     1      -0.922   4.655   7.375  1.00  0.00     0.066 C
BRANCH  18  19
HETATM   19  C7  UNL     1      -2.111   5.264   7.934  1.00  0.00    -0.056 A
HETATM   20  C8  UNL     1      -3.376   4.806   7.673  1.00  0.00     0.007 A
HETATM   21  C9  UNL     1      -4.506   5.399   8.213  1.00  0.00     0.001 A
HETATM   22  C10 UNL     1      -4.355   6.499   9.052  1.00  0.00     0.000 A
HETATM   23  C11 UNL     1      -3.081   6.961   9.317  1.00  0.00     0.001 A
HETATM   24  C12 UNL     1      -1.991   6.359   8.772  1.00  0.00     0.007 A
ENDBRANCH  18  19
ENDBRANCH   1  18
BRANCH   1  25
HETATM   25  C13 UNL     1       0.707   2.753   7.239  1.00  0.00     0.233 C
BRANCH  25  26
HETATM   26  O3  UNL     1       1.001   1.539   7.831  1.00  0.00    -0.384 OA
ATOM     27  H3  UNL     1       1.931   1.372   7.740  1.00  0.00     0.210 HD
ENDBRANCH  25  26
BRANCH  25  28
HETATM   28  C14 UNL     1       1.731   3.777   7.313  1.00  0.00     0.252 C
HETATM   29  O4  UNL     1       2.219   4.078   8.437  1.00  0.00    -0.270 OA
HETATM   30  N3  UNL     1       2.209   4.463   6.140  1.00  0.00    -0.325 N
HETATM   31  C15 UNL     1       1.677   4.239   4.837  1.00  0.00     0.202 C
HETATM   32  C19 UNL     1       3.300   5.414   6.215  1.00  0.00     0.207 C
HETATM   33  S1  UNL     1       2.394   5.617   3.852  1.00  0.00    -0.137 SA
HETATM   34  C16 UNL     1       3.043   6.557   5.296  1.00  0.00     0.033 C
HETATM   35  C17 UNL     1       2.001   7.471   5.861  1.00  0.00     0.029 C
HETATM   36  C18 UNL     1       4.259   7.286   4.818  1.00  0.00     0.029 C
BRANCH  32  37
HETATM   37  C20 UNL     1       4.613   4.748   6.013  1.00  0.00     0.198 C
HETATM   38  O5  UNL     1       5.541   4.820   6.888  1.00  0.00    -0.646 OA
HETATM   39  O6  UNL     1       4.922   4.013   4.881  1.00  0.00    -0.646 OA
ENDBRANCH  32  37
ENDBRANCH  25  28
ENDBRANCH   1  25
TORSDOF 12
ENDMDL