MODEL 4
REMARK VINA RESULT: -7.988128593      2.090      2.941
REMARK  9 active torsions:
REMARK  status: ('A' for Active; 'I' for Inactive)
REMARK    1  A    between atoms: C1_2  and  C2_3
REMARK    2  A    between atoms: C2_3  and  C3_4
REMARK    3  A    between atoms: C2_3  and  C18_30
REMARK       I    between atoms: C3_4  and  N1_6
REMARK    4  A    between atoms: N1_6  and  C4_8
REMARK    5  A    between atoms: C4_8  and  C5_9
REMARK    6  A    between atoms: C4_8  and  C6_12
REMARK       I    between atoms: C6_12  and  N2_14
REMARK    7  A    between atoms: N2_14  and  C7_16
REMARK    8  A    between atoms: C10_19  and  O6_20
REMARK    9  A    between atoms: O6_20  and  C11_21
ROOT
HETATM    1  C6  UNL     1      -0.267  -1.156  11.753  1.00  0.00     0.255 C
HETATM    2  O5  UNL     1      -0.803  -2.235  11.414  1.00  0.00    -0.270 OA
HETATM    3  N2  UNL     1       0.978  -0.776  11.266  1.00  0.00    -0.325 N
ATOM      4  H2  UNL     1       1.325   0.118  11.612  1.00  0.00     0.169 HD
ENDROOT
BRANCH   1   5
HETATM    5  C4  UNL     1      -1.061  -0.318  12.710  1.00  0.00     0.279 C
BRANCH   5   6
HETATM    6  N1  UNL     1      -1.555   0.872  12.062  1.00  0.00    -0.338 N
HETATM    7  C3  UNL     1      -2.889   0.957  11.620  1.00  0.00     0.231 C
HETATM    8  O2  UNL     1      -3.644  -0.043  11.809  1.00  0.00    -0.273 OA
ATOM      9  H1  UNL     1      -0.929   1.664  11.922  1.00  0.00     0.163 HD
BRANCH   7  10
HETATM   10  C2  UNL     1      -3.428   2.184  10.942  1.00  0.00     0.163 C
BRANCH  10  11
HETATM   11  C1  UNL     1      -2.347   3.026  10.410  1.00  0.00     0.247 C
HETATM   12  O1  UNL     1      -1.452   2.567   9.762  1.00  0.00    -0.306 OA
ENDBRANCH  10  11
BRANCH  10  13
HETATM   13  C18 UNL     1      -4.308   2.966  11.928  1.00  0.00     0.149 C
HETATM   14 BR1  UNL     1      -4.742   4.689  11.221  1.00  0.00    -0.078 Br
HETATM   15 BR2  UNL     1      -3.397   3.053  13.618  1.00  0.00    -0.078 Br
ENDBRANCH  10  13
ENDBRANCH   7  10
ENDBRANCH   5   6
BRANCH   5  16
HETATM   16  C5  UNL     1      -0.181   0.049  13.856  1.00  0.00     0.206 C
HETATM   17  O3  UNL     1      -0.106   1.231  14.274  1.00  0.00    -0.646 OA
HETATM   18  O4  UNL     1       0.570  -0.919  14.479  1.00  0.00    -0.646 OA
ENDBRANCH   5  16
ENDBRANCH   1   5
BRANCH   3  19
HETATM   19  C7  UNL     1       1.829  -1.443  10.368  1.00  0.00     0.035 A
HETATM   20  C8  UNL     1       2.186  -0.841   9.166  1.00  0.00     0.032 A
HETATM   21  C9  UNL     1       3.001  -1.484   8.273  1.00  0.00     0.039 A
HETATM   22  C10 UNL     1       3.510  -2.745   8.501  1.00  0.00     0.076 A
HETATM   23  C16 UNL     1       3.163  -3.349   9.684  1.00  0.00     0.039 A
HETATM   24  C17 UNL     1       2.327  -2.698  10.608  1.00  0.00     0.032 A
BRANCH  22  25
HETATM   25  O6  UNL     1       4.321  -3.346   7.577  1.00  0.00    -0.309 OA
BRANCH  25  26
HETATM   26  C11 UNL     1       4.178  -4.592   7.041  1.00  0.00     0.091 A
HETATM   27  C12 UNL     1       3.190  -4.880   6.126  1.00  0.00     0.040 A
HETATM   28  C13 UNL     1       3.067  -6.157   5.596  1.00  0.00     0.020 A
HETATM   29  C14 UNL     1       3.967  -7.138   6.014  1.00  0.00     0.088 A
HETATM   30  N3  UNL     1       4.921  -6.850   6.901  1.00  0.00    -0.373 N
HETATM   31  C15 UNL     1       5.040  -5.593   7.421  1.00  0.00     0.124 A
ATOM     32  H3  UNL     1       5.570  -7.579   7.195  1.00  0.00     0.164 HD
ENDBRANCH  25  26
ENDBRANCH  22  25
ENDBRANCH   3  19
TORSDOF 9
ENDMDL