MODEL 1
REMARK VINA RESULT: -8.842902723      0.000      0.000
REMARK  11 active torsions:
REMARK  status: ('A' for Active; 'I' for Inactive)
REMARK    1  A    between atoms: C2_2  and  C4_4
REMARK    2  A    between atoms: C4_4  and  C5_5
REMARK    3  A    between atoms: C5_5  and  N1_6
REMARK    4  A    between atoms: C5_5  and  C24_33
REMARK       I    between atoms: N1_6  and  C6_8
REMARK    5  A    between atoms: C6_8  and  C7_10
REMARK    6  A    between atoms: C7_10  and  C8_11
REMARK    7  A    between atoms: C7_10  and  C12_15
REMARK    8  A    between atoms: C8_11  and  C9_12
REMARK       I    between atoms: C12_15  and  N2_17
REMARK    9  A    between atoms: C24_33  and  C25_35
REMARK   10  A    between atoms: C25_35  and  N3_36
REMARK   11  A    between atoms: C25_35  and  O5_40
ROOT
HETATM    1  C7  UNL     1       0.738   1.628   9.654  1.00  0.00     0.078 C
ENDROOT
BRANCH   1   2
HETATM    2  C6  UNL     1       0.587   1.488  11.117  1.00  0.00     0.254 C
HETATM    3  N1  UNL     1      -0.626   1.117  11.719  1.00  0.00    -0.342 N
ATOM      4  H1  UNL     1      -1.438   0.939  11.128  1.00  0.00     0.163 HD
HETATM    5  O1  UNL     1       1.553   1.699  11.871  1.00  0.00    -0.268 OA
BRANCH   3   6
HETATM    6  C5  UNL     1      -0.764   0.973  13.214  1.00  0.00     0.182 C
BRANCH   6   7
HETATM    7  C4  UNL     1      -2.185   1.280  13.430  1.00  0.00     0.008 C
BRANCH   7   8
HETATM    8  C2  UNL     1      -2.785   2.585  13.232  1.00  0.00    -0.089 C
HETATM    9  C1  UNL     1      -3.358   3.271  14.443  1.00  0.00     0.042 C
HETATM   10  C3  UNL     1      -3.671   2.768  12.027  1.00  0.00     0.042 C
ENDBRANCH   7   8
ENDBRANCH   6   7
BRANCH   6  11
HETATM   11  C24 UNL     1      -0.243  -0.342  13.577  1.00  0.00     0.208 C
HETATM   12  O4  UNL     1       0.102  -0.469  14.772  1.00  0.00    -0.291 OA
BRANCH  11  13
HETATM   13  C25 UNL     1      -0.058  -1.553  12.783  1.00  0.00     0.389 C
BRANCH  13  14
HETATM   14  N3  UNL     1       1.309  -1.644  12.312  1.00  0.00    -0.046 N
ATOM     15  H33 UNL     1       1.435  -1.174  11.415  1.00  0.00     0.277 HD
ATOM     16  H32 UNL     1       1.943  -1.073  12.872  1.00  0.00     0.277 HD
ATOM     17  H31 UNL     1       1.608  -2.618  12.275  1.00  0.00     0.277 HD
ENDBRANCH  13  14
BRANCH  13  18
HETATM   18  O5  UNL     1      -0.922  -1.777  11.751  1.00  0.00    -0.364 OA
ATOM     19  H5  UNL     1      -0.554  -2.013  10.907  1.00  0.00     0.212 HD
ENDBRANCH  13  18
ENDBRANCH  11  13
ENDBRANCH   6  11
ENDBRANCH   3   6
ENDBRANCH   1   2
BRANCH   1  20
HETATM   20  C8  UNL     1       1.664   0.654   9.041  1.00  0.00     0.054 C
BRANCH  20  21
HETATM   21  C9  UNL     1       2.110   0.819   7.654  1.00  0.00    -0.018 C
HETATM   22  C10 UNL     1       3.353  -0.092   7.483  1.00  0.00     0.010 C
HETATM   23  C11 UNL     1       1.114   0.291   6.661  1.00  0.00     0.010 C
ENDBRANCH  20  21
ENDBRANCH   1  20
BRANCH   1  24
HETATM   24  C12 UNL     1       0.817   3.032   9.184  1.00  0.00     0.257 C
HETATM   25  O2  UNL     1       1.746   3.839   9.545  1.00  0.00    -0.267 OA
HETATM   26  N2  UNL     1      -0.114   3.601   8.309  1.00  0.00    -0.328 N
HETATM   27  C13 UNL     1      -0.020   4.180   7.206  1.00  0.00     0.018 C
ATOM     28  H2  UNL     1      -1.075   3.527   8.643  1.00  0.00     0.168 HD
HETATM   29  C14 UNL     1       1.173   4.478   6.407  1.00  0.00     0.130 C
HETATM   30  C22 UNL     1      -1.216   4.735   6.458  1.00  0.00     0.012 C
HETATM   31 CL1  UNL     1       1.393   3.349   5.049  1.00  0.00    -0.119 Cl
HETATM   32  C15 UNL     1       0.870   5.877   5.912  1.00  0.00     0.044 C
HETATM   33  C16 UNL     1      -0.608   5.867   5.703  1.00  0.00     0.031 C
HETATM   34  C17 UNL     1      -0.844   5.734   4.191  1.00  0.00     0.025 C
HETATM   35  C18 UNL     1      -1.195   7.182   6.064  1.00  0.00     0.137 C
HETATM   36  O3  UNL     1      -0.517   8.118   6.317  1.00  0.00    -0.297 OA
HETATM   37  C19 UNL     1      -2.675   7.195   6.073  1.00  0.00     0.099 C
HETATM   38  C20 UNL     1      -3.113   6.274   7.183  1.00  0.00     0.090 C
HETATM   39 CL2  UNL     1      -3.242   7.324   8.647  1.00  0.00    -0.125 Cl
HETATM   40  C21 UNL     1      -2.280   5.097   7.431  1.00  0.00     0.037 C
HETATM   41  C23 UNL     1      -1.708   3.599   5.594  1.00  0.00     0.023 C
ENDBRANCH   1  24
TORSDOF 11
ENDMDL