MODEL 5
REMARK VINA RESULT: -8.655073077      2.888      7.722
REMARK  9 active torsions:
REMARK  status: ('A' for Active; 'I' for Inactive)
REMARK    1  A    between atoms: C2_2  and  C3_3
REMARK    2  A    between atoms: C2_2  and  C22_34
REMARK    3  A    between atoms: C4_7  and  C5_8
REMARK    4  A    between atoms: C5_8  and  C7_10
REMARK    5  A    between atoms: C7_10  and  C8_11
REMARK    6  A    between atoms: C7_10  and  N2_15
REMARK    7  A    between atoms: C8_11  and  C9_12
REMARK       I    between atoms: N2_15  and  C12_17
REMARK    8  A    between atoms: C12_17  and  C13_19
REMARK    9  A    between atoms: C17_27  and  C18_28
ROOT
HETATM    1  C3  UNL     1      -0.609   4.145   7.821  1.00  0.00     0.360 C
HETATM    2  N1  UNL     1       0.728   3.884   8.256  1.00  0.00    -0.039 N
ATOM      3  H11 UNL     1       0.887   4.216   9.207  1.00  0.00     0.281 HD
ATOM      4  H12 UNL     1       1.405   4.474   7.771  1.00  0.00     0.281 HD
HETATM    5  C4  UNL     1       1.050   2.485   8.120  1.00  0.00     0.208 C
HETATM    6  C17 UNL     1       1.061   2.063   6.704  1.00  0.00     0.120 C
HETATM    7  C21 UNL     1      -0.399   2.215   6.263  1.00  0.00     0.267 C
HETATM    8  O4  UNL     1      -0.944   1.377   5.513  1.00  0.00    -0.265 OA
HETATM    9  O5  UNL     1      -1.029   3.322   6.753  1.00  0.00    -0.282 OA
ENDROOT
BRANCH   5  10
HETATM   10  C5  UNL     1       2.055   1.933   9.084  1.00  0.00     0.036 C
HETATM   11  C6  UNL     1       1.986   2.901  10.271  1.00  0.00     0.014 C
BRANCH  10  12
HETATM   12  C7  UNL     1       2.081   0.525   9.433  1.00  0.00     0.090 C
BRANCH  12  13
HETATM   13  C8  UNL     1       2.164  -0.440   8.279  1.00  0.00     0.029 C
BRANCH  13  14
HETATM   14  C9  UNL     1       3.258  -1.416   8.165  1.00  0.00    -0.021 C
HETATM   15  C10 UNL     1       2.975  -2.562   7.172  1.00  0.00     0.009 C
HETATM   16  C11 UNL     1       4.411  -0.619   7.463  1.00  0.00     0.009 C
ENDBRANCH  13  14
ENDBRANCH  12  13
BRANCH  12  17
HETATM   17  N2  UNL     1       1.062   0.059  10.322  1.00  0.00    -0.354 N
HETATM   18  C12 UNL     1       0.973  -1.005  11.204  1.00  0.00     0.243 C
HETATM   19  O1  UNL     1       1.932  -1.828  11.344  1.00  0.00    -0.271 OA
ATOM     20  H2  UNL     1       0.220   0.635  10.303  1.00  0.00     0.162 HD
BRANCH  18  21
HETATM   21  C13 UNL     1      -0.271  -1.187  12.004  1.00  0.00     0.208 C
HETATM   22  N3  UNL     1       0.038  -1.668  13.352  1.00  0.00    -0.343 N
HETATM   23  C14 UNL     1      -0.139  -0.529  14.222  1.00  0.00     0.250 C
ATOM     24  H3  UNL     1       0.320  -2.611  13.620  1.00  0.00     0.163 HD
HETATM   25  O2  UNL     1      -0.372  -0.588  15.462  1.00  0.00    -0.271 OA
HETATM   26  C15 UNL     1       0.019   0.597  13.311  1.00  0.00     0.245 A
HETATM   27  O3  UNL     1      -0.769   1.275  12.532  1.00  0.00    -0.363 OA
HETATM   28  C16 UNL     1      -1.036   0.023  12.309  1.00  0.00     0.193 A
ENDBRANCH  18  21
ENDBRANCH  12  17
ENDBRANCH  10  12
ENDBRANCH   5  10
BRANCH   6  29
HETATM   29  C18 UNL     1       1.794   2.709   5.634  1.00  0.00    -0.007 C
HETATM   30  C19 UNL     1       3.203   3.177   5.872  1.00  0.00     0.010 C
HETATM   31  C20 UNL     1       1.653   2.216   4.227  1.00  0.00     0.010 C
ENDBRANCH   6  29
BRANCH   1  32
HETATM   32  C2  UNL     1      -1.667   4.070   8.854  1.00  0.00    -0.022 C
HETATM   33  C1  UNL     1      -1.830   3.051   9.654  1.00  0.00     0.019 C
BRANCH  32  34
HETATM   34  C22 UNL     1      -2.570   5.238   8.948  1.00  0.00     0.021 A
HETATM   35  C23 UNL     1      -1.868   6.556   8.592  1.00  0.00     0.023 C
HETATM   36  C24 UNL     1      -3.915   5.054   8.245  1.00  0.00     0.060 A
HETATM   37  C25 UNL     1      -3.770   5.335   9.757  1.00  0.00     0.125 A
HETATM   38 CL1  UNL     1      -4.427   4.064  10.772  1.00  0.00    -0.100 Cl
HETATM   39 CL2  UNL     1      -4.368   6.980  10.189  1.00  0.00    -0.100 Cl
ENDBRANCH  32  34
ENDBRANCH   1  32
TORSDOF 9
ENDMDL