MODEL 1
REMARK VINA RESULT: -9.342157749      0.000      0.000
REMARK  11 active torsions:
REMARK  status: ('A' for Active; 'I' for Inactive)
REMARK    1  A    between atoms: C2_2  and  C3_3
REMARK    2  A    between atoms: C3_3  and  C4_4
REMARK    3  A    between atoms: C4_4  and  C5_5
REMARK    4  A    between atoms: C5_5  and  N1_6
REMARK    5  A    between atoms: C5_5  and  C8_11
REMARK       I    between atoms: N1_6  and  C6_8
REMARK       I    between atoms: C8_11  and  N2_13
REMARK    6  A    between atoms: N2_13  and  C9_15
REMARK    7  A    between atoms: N3_17  and  C11_18
REMARK    8  A    between atoms: C11_18  and  O3_19
REMARK    9  A    between atoms: C11_18  and  C12_21
REMARK   10  A    between atoms: C23_32  and  C24_33
REMARK   11  A    between atoms: C24_33  and  S1_36
ROOT
HETATM    1  C9  UNL     1       1.970   0.766   7.765  1.00  0.00     0.115 C
HETATM    2  C10 UNL     1       1.653   1.734   8.879  1.00  0.00     0.150 C
HETATM    3  N3  UNL     1       0.335   2.159   8.528  1.00  0.00    -0.362 N
HETATM    4  C22 UNL     1       0.190   2.097   7.051  1.00  0.00     0.138 C
HETATM    5  C23 UNL     1       1.419   1.404   6.530  1.00  0.00     0.119 C
ENDROOT
BRANCH   1   6
HETATM    6  N2  UNL     1       3.313   0.322   7.719  1.00  0.00    -0.352 N
HETATM    7  C8  UNL     1       3.627  -1.081   7.709  1.00  0.00     0.240 C
HETATM    8  O2  UNL     1       2.716  -1.945   7.739  1.00  0.00    -0.271 OA
ATOM      9  H2  UNL     1       4.068   1.007   7.694  1.00  0.00     0.163 HD
BRANCH   7  10
HETATM   10  C5  UNL     1       5.029  -1.560   7.662  1.00  0.00     0.176 C
BRANCH  10  11
HETATM   11  C4  UNL     1       5.947  -0.473   7.155  1.00  0.00     0.035 C
BRANCH  11  12
HETATM   12  C3  UNL     1       7.367  -0.968   7.082  1.00  0.00     0.002 C
BRANCH  12  13
HETATM   13  C2  UNL     1       8.257   0.253   6.866  1.00  0.00    -0.004 C
HETATM   14  C1  UNL     1       7.462   1.465   7.309  1.00  0.00     0.005 C
ENDBRANCH  12  13
ENDBRANCH  11  12
ENDBRANCH  10  11
BRANCH  10  15
HETATM   15  N1  UNL     1       5.140  -2.767   6.882  1.00  0.00    -0.348 N
HETATM   16  C6  UNL     1       5.494  -4.023   7.447  1.00  0.00     0.214 C
HETATM   17  C7  UNL     1       5.585  -5.212   6.566  1.00  0.00     0.117 C
HETATM   18  O1  UNL     1       5.733  -4.156   8.671  1.00  0.00    -0.274 OA
ATOM     19  H1  UNL     1       4.956  -2.719   5.880  1.00  0.00     0.163 HD
ENDBRANCH  10  15
ENDBRANCH   7  10
ENDBRANCH   1   6
BRANCH   5  20
HETATM   20  C24 UNL     1       2.283   2.393   5.845  1.00  0.00     0.368 C
HETATM   21  F1  UNL     1       2.367   3.615   6.458  1.00  0.00    -0.185 F
HETATM   22  F2  UNL     1       3.615   1.931   5.754  1.00  0.00    -0.185 F
BRANCH  20  23
HETATM   23  S1  UNL     1       1.764   2.613   4.171  1.00  0.00     0.176 S
HETATM   24  O4  UNL     1       0.860   1.458   3.748  1.00  0.00    -0.591 OA
HETATM   25  O5  UNL     1       2.860   2.655   3.169  1.00  0.00    -0.591 OA
HETATM   26  O6  UNL     1       0.757   3.985   4.042  1.00  0.00    -0.591 OA
ENDBRANCH  20  23
ENDBRANCH   5  20
BRANCH   3  27
HETATM   27  C11 UNL     1      -0.732   2.608   9.327  1.00  0.00     0.122 C
BRANCH  27  28
HETATM   28  O3  UNL     1      -1.207   3.798   9.090  1.00  0.00    -0.349 OA
ATOM     29  H3  UNL     1      -1.735   4.205   9.766  1.00  0.00     0.219 HD
ENDBRANCH  27  28
BRANCH  27  30
HETATM   30  C12 UNL     1      -1.408   1.905  10.424  1.00  0.00     0.026 C
HETATM   31  C13 UNL     1      -1.672   0.458  10.157  1.00  0.00     0.022 C
HETATM   32  C14 UNL     1      -2.363  -0.162  11.356  1.00  0.00    -0.013 C
HETATM   33  C15 UNL     1      -1.524  -0.076  12.600  1.00  0.00     0.009 C
HETATM   34  C19 UNL     1      -3.670   0.549  11.615  1.00  0.00     0.009 C
HETATM   35  C16 UNL     1      -1.222   1.388  12.845  1.00  0.00    -0.013 C
HETATM   36  C17 UNL     1      -2.480   2.137  13.136  1.00  0.00     0.009 C
HETATM   37  C21 UNL     1      -0.494   1.918  11.667  1.00  0.00     0.022 C
HETATM   38  C18 UNL     1      -3.407   1.981  11.950  1.00  0.00    -0.013 C
HETATM   39  C20 UNL     1      -2.686   2.615  10.769  1.00  0.00     0.022 C
ENDBRANCH  27  30
ENDBRANCH   3  27
TORSDOF 11
ENDMDL