MODEL 4
REMARK VINA RESULT: -7.838984841      1.464      2.130
REMARK  11 active torsions:
REMARK  status: ('A' for Active; 'I' for Inactive)
REMARK       I    between atoms: N1_5  and  C5_6
REMARK    1  A    between atoms: C5_6  and  C6_8
REMARK    2  A    between atoms: C6_8  and  C9_11
REMARK    3  A    between atoms: C9_11  and  C10_12
REMARK    4  A    between atoms: C9_11  and  N4_27
REMARK    5  A    between atoms: C10_12  and  N2_13
REMARK    6  A    between atoms: N2_13  and  C11_14
REMARK       I    between atoms: N2_13  and  C13_18
REMARK    7  A    between atoms: C11_14  and  C12_15
REMARK       I    between atoms: C13_18  and  N3_20
REMARK    8  A    between atoms: N3_20  and  C14_22
REMARK    9  A    between atoms: C14_22  and  C17_25
REMARK       I    between atoms: N4_27  and  C19_29
REMARK   10  A    between atoms: C19_29  and  O6_31
REMARK   11  A    between atoms: O6_31  and  C20_32
ROOT
HETATM    1  C1  UNL     1      -2.830   2.283  12.198  1.00  0.00     0.012 C
HETATM    2  C2  UNL     1      -1.876   1.558  12.314  1.00  0.00    -0.105 C
HETATM    3  C3  UNL     1      -0.720   0.656  12.469  1.00  0.00     0.156 C
HETATM    4  C4  UNL     1       0.576   1.310  12.154  1.00  0.00     0.149 C
HETATM    5  N1  UNL     1       0.797   1.071  10.698  1.00  0.00    -0.344 N
HETATM    6  C5  UNL     1       1.550   2.008   9.968  1.00  0.00     0.230 C
HETATM    7  O1  UNL     1       2.020   2.998  10.622  1.00  0.00    -0.272 OA
HETATM    8  C24 UNL     1       0.126  -0.149  10.418  1.00  0.00     0.206 C
HETATM    9  C25 UNL     1      -0.858  -0.477  11.501  1.00  0.00     0.275 C
HETATM   10  F1  UNL     1      -2.148  -0.585  11.004  1.00  0.00    -0.203 F
HETATM   11  F2  UNL     1      -0.532  -1.696  12.097  1.00  0.00    -0.203 F
ENDROOT
BRANCH   6  12
HETATM   12  C6  UNL     1       1.869   2.000   8.512  1.00  0.00     0.059 C
HETATM   13  C7  UNL     1       3.339   2.224   8.364  1.00  0.00     0.027 C
HETATM   14  C8  UNL     1       1.380   0.637   8.063  1.00  0.00     0.027 C
BRANCH  12  15
HETATM   15  C9  UNL     1       1.077   3.057   7.786  1.00  0.00     0.142 C
BRANCH  15  16
HETATM   16  C10 UNL     1      -0.307   2.831   7.387  1.00  0.00     0.095 C
BRANCH  16  17
HETATM   17  N2  UNL     1      -1.233   3.856   7.128  1.00  0.00    -0.302 N
HETATM   18  C13 UNL     1      -2.006   4.397   8.200  1.00  0.00     0.323 C
HETATM   19  O4  UNL     1      -1.818   3.944   9.378  1.00  0.00    -0.247 OA
HETATM   20  N3  UNL     1      -2.955   5.410   7.941  1.00  0.00    -0.334 N
ATOM     21  H3  UNL     1      -3.058   5.732   6.978  1.00  0.00     0.165 HD
BRANCH  17  22
HETATM   22  C11 UNL     1      -1.410   4.436   5.837  1.00  0.00     0.245 C
BRANCH  22  23
HETATM   23  C12 UNL     1      -1.272   3.403   4.768  1.00  0.00     0.192 C
HETATM   24  O2  UNL     1      -2.263   2.638   4.583  1.00  0.00    -0.647 OA
HETATM   25  O3  UNL     1      -0.156   3.239   3.988  1.00  0.00    -0.647 OA
ENDBRANCH  22  23
ENDBRANCH  17  22
BRANCH  20  26
HETATM   26  C14 UNL     1      -3.798   6.025   8.957  1.00  0.00     0.027 C
HETATM   27  C15 UNL     1      -3.054   7.065   9.748  1.00  0.00     0.038 C
HETATM   28  C16 UNL     1      -5.013   6.683   8.332  1.00  0.00     0.038 C
BRANCH  26  29
HETATM   29  C17 UNL     1      -4.330   4.978   9.907  1.00  0.00     0.026 C
HETATM   30  C18 UNL     1      -4.966   5.649  11.112  1.00  0.00     0.007 C
ENDBRANCH  26  29
ENDBRANCH  20  26
ENDBRANCH  16  17
ENDBRANCH  15  16
BRANCH  15  31
HETATM   31  N4  UNL     1       1.784   3.413   6.565  1.00  0.00    -0.327 N
HETATM   32  C19 UNL     1       2.187   4.722   6.199  1.00  0.00     0.361 C
HETATM   33  O5  UNL     1       1.985   5.769   6.874  1.00  0.00    -0.238 OA
ATOM     34  H4  UNL     1       2.008   2.658   5.918  1.00  0.00     0.165 HD
BRANCH  32  35
HETATM   35  O6  UNL     1       2.882   4.963   5.003  1.00  0.00    -0.294 OA
BRANCH  35  36
HETATM   36  C20 UNL     1       4.306   5.091   4.958  1.00  0.00     0.061 C
HETATM   37  C21 UNL     1       4.973   4.491   6.169  1.00  0.00     0.046 C
HETATM   38  C22 UNL     1       4.589   6.577   4.963  1.00  0.00     0.046 C
HETATM   39  C23 UNL     1       4.851   4.520   3.671  1.00  0.00     0.046 C
ENDBRANCH  35  36
ENDBRANCH  32  35
ENDBRANCH  15  31
ENDBRANCH  12  15
ENDBRANCH   6  12
TORSDOF 11
ENDMDL