MODEL 5
REMARK VINA RESULT: -8.150222344      3.835      8.200
REMARK  10 active torsions:
REMARK  status: ('A' for Active; 'I' for Inactive)
REMARK    1  A    between atoms: C2_2  and  C5_5
REMARK    2  A    between atoms: C5_5  and  N1_6
REMARK    3  A    between atoms: C5_5  and  C11_16
REMARK       I    between atoms: N1_6  and  C6_8
REMARK       I    between atoms: C6_8  and  N2_10
REMARK    4  A    between atoms: C11_16  and  C12_18
REMARK    5  A    between atoms: C12_18  and  C13_21
REMARK    6  A    between atoms: C13_21  and  C14_23
REMARK    7  A    between atoms: C14_23  and  C15_24
REMARK    8  A    between atoms: C14_23  and  N3_31
REMARK    9  A    between atoms: C15_24  and  C16_25
REMARK       I    between atoms: N3_31  and  C22_33
REMARK   10  A    between atoms: C22_33  and  C23_35
ROOT
HETATM    1  C13 UNL     1      -4.878   6.031  12.039  1.00  0.00     0.228 C
HETATM    2  O4  UNL     1      -4.843   6.447  13.199  1.00  0.00    -0.289 OA
ENDROOT
BRANCH   1   3
HETATM    3  C12 UNL     1      -5.018   4.586  11.753  1.00  0.00     0.366 C
HETATM    4  F1  UNL     1      -6.111   4.127  12.460  1.00  0.00    -0.189 F
HETATM    5  F2  UNL     1      -5.225   4.469  10.375  1.00  0.00    -0.189 F
BRANCH   3   6
HETATM    6  C11 UNL     1      -3.791   3.827  12.070  1.00  0.00     0.229 C
HETATM    7  O3  UNL     1      -2.723   4.235  11.658  1.00  0.00    -0.289 OA
BRANCH   6   8
HETATM    8  C5  UNL     1      -3.752   2.580  12.858  1.00  0.00     0.170 C
BRANCH   8   9
HETATM    9  C2  UNL     1      -3.735   2.815  14.364  1.00  0.00    -0.024 C
HETATM   10  C1  UNL     1      -4.569   1.696  15.030  1.00  0.00     0.017 C
HETATM   11  C3  UNL     1      -4.340   4.084  14.828  1.00  0.00     0.017 C
HETATM   12  C4  UNL     1      -2.342   2.706  14.936  1.00  0.00     0.017 C
ENDBRANCH   8   9
BRANCH   8  13
HETATM   13  N1  UNL     1      -2.509   1.845  12.523  1.00  0.00    -0.331 N
HETATM   14  C6  UNL     1      -2.476   0.447  12.325  1.00  0.00     0.319 C
HETATM   15  O1  UNL     1      -3.527  -0.262  12.428  1.00  0.00    -0.247 OA
HETATM   16  N2  UNL     1      -1.283  -0.252  12.002  1.00  0.00    -0.330 N
HETATM   17  C7  UNL     1      -0.005   0.417  11.843  1.00  0.00     0.153 C
HETATM   18  C10 UNL     1      -1.269  -1.696  11.810  1.00  0.00     0.153 C
HETATM   19  C8  UNL     1       0.782  -0.388  10.829  1.00  0.00     0.187 C
HETATM   20  O2  UNL     1       1.097  -1.659  11.293  1.00  0.00    -0.388 OA
HETATM   21  C9  UNL     1       0.147  -2.147  12.180  1.00  0.00     0.187 C
ATOM     22  H1  UNL     1      -1.640   2.371  12.432  1.00  0.00     0.165 HD
ENDBRANCH   8  13
ENDBRANCH   6   8
ENDBRANCH   3   6
ENDBRANCH   1   3
BRANCH   1  23
HETATM   23  C14 UNL     1      -4.782   7.029  10.903  1.00  0.00     0.161 C
BRANCH  23  24
HETATM   24  C15 UNL     1      -5.635   8.204  11.070  1.00  0.00     0.038 C
BRANCH  24  25
HETATM   25  C16 UNL     1      -7.046   8.167  10.595  1.00  0.00    -0.012 C
HETATM   26  C17 UNL     1      -7.906   8.021  11.861  1.00  0.00     0.005 C
HETATM   27  C18 UNL     1      -8.198   9.332  12.520  1.00  0.00     0.000 C
HETATM   28  C19 UNL     1      -9.027  10.240  11.629  1.00  0.00     0.000 C
HETATM   29  C20 UNL     1      -8.847   9.868  10.171  1.00  0.00     0.000 C
HETATM   30  C21 UNL     1      -7.412   9.447   9.885  1.00  0.00     0.005 C
ENDBRANCH  24  25
ENDBRANCH  23  24
BRANCH  23  31
HETATM   31  N3  UNL     1      -3.428   7.141  10.524  1.00  0.00    -0.349 N
HETATM   32  C22 UNL     1      -2.997   6.841   9.211  1.00  0.00     0.224 C
HETATM   33  O5  UNL     1      -3.887   6.476   8.369  1.00  0.00    -0.273 OA
ATOM     34  H3  UNL     1      -2.742   7.446  11.214  1.00  0.00     0.163 HD
BRANCH  32  35
HETATM   35  C23 UNL     1      -1.622   6.906   8.723  1.00  0.00     0.105 C
HETATM   36  C24 UNL     1      -1.212   8.262   8.224  1.00  0.00     0.043 C
HETATM   37  C25 UNL     1       0.275   8.377   8.570  1.00  0.00     0.233 C
HETATM   38  N4  UNL     1       0.527   7.410   9.594  1.00  0.00    -0.074 N
HETATM   39  C26 UNL     1      -0.678   6.705   9.907  1.00  0.00     0.246 C
ATOM     40  H42 UNL     1       1.287   6.777   9.344  1.00  0.00     0.277 HD
ATOM     41  H41 UNL     1       0.950   7.831  10.422  1.00  0.00     0.277 HD
ENDBRANCH  32  35
ENDBRANCH  23  31
ENDBRANCH   1  23
TORSDOF 10
ENDMDL