MODEL 1
REMARK VINA RESULT: -8.892285939      0.000      0.000
REMARK  10 active torsions:
REMARK  status: ('A' for Active; 'I' for Inactive)
REMARK       I    between atoms: C1_2  and  N1_3
REMARK    1  A    between atoms: C1_2  and  C9_16
REMARK    2  A    between atoms: N1_3  and  C2_5
REMARK    3  A    between atoms: C2_5  and  C3_6
REMARK    4  A    between atoms: C3_6  and  O2_7
REMARK    5  A    between atoms: C3_6  and  C4_9
REMARK    6  A    between atoms: C4_9  and  N2_10
REMARK    7  A    between atoms: C9_16  and  C10_19
REMARK    8  A    between atoms: C10_19  and  N3_20
REMARK    9  A    between atoms: N3_20  and  C11_22
REMARK   10  A    between atoms: C11_22  and  C12_23
ROOT
HETATM    1  N3  UNL     1      -1.008   4.581   8.139  1.00  0.00    -0.402 N
ATOM      2  H3  UNL     1      -0.807   4.217   7.208  1.00  0.00     0.154 HD
ENDROOT
BRANCH   1   3
HETATM    3  C10 UNL     1      -1.157   3.726   9.261  1.00  0.00     0.204 C
BRANCH   3   4
HETATM    4  C9  UNL     1      -0.459   2.385   9.142  1.00  0.00     0.337 C
HETATM    5  F1  UNL     1      -1.202   1.369   8.666  1.00  0.00    -0.194 F
HETATM    6  F2  UNL     1       0.724   2.534   8.379  1.00  0.00    -0.194 F
BRANCH   4   7
HETATM    7  C1  UNL     1       0.080   1.983  10.492  1.00  0.00     0.292 C
HETATM    8  O1  UNL     1       1.055   2.614  10.999  1.00  0.00    -0.267 OA
HETATM    9  N1  UNL     1      -0.463   0.912  11.248  1.00  0.00    -0.353 N
ATOM     10  H1  UNL     1      -1.247   0.386  10.862  1.00  0.00     0.162 HD
BRANCH   9  11
HETATM   11  C2  UNL     1       0.053   0.540  12.544  1.00  0.00     0.156 C
BRANCH  11  12
HETATM   12  C3  UNL     1      -0.693   1.324  13.619  1.00  0.00     0.164 C
BRANCH  12  13
HETATM   13  O2  UNL     1      -0.357   0.755  14.865  1.00  0.00    -0.392 OA
ATOM     14  H2  UNL     1      -0.201   1.470  15.470  1.00  0.00     0.210 HD
ENDBRANCH  12  13
BRANCH  12  15
HETATM   15  C4  UNL     1      -2.173   1.157  13.447  1.00  0.00     0.305 C
BRANCH  15  16
HETATM   16  N2  UNL     1      -2.846   2.422  13.439  1.00  0.00     0.095 N
HETATM   17  C5  UNL     1      -3.904   2.448  12.459  1.00  0.00     0.298 C
HETATM   18  C6  UNL     1      -4.546   3.829  12.396  1.00  0.00     0.198 C
HETATM   19  O3  UNL     1      -4.429   4.527  13.578  1.00  0.00    -0.388 OA
HETATM   20  C7  UNL     1      -4.510   3.711  14.700  1.00  0.00     0.198 C
HETATM   21  C8  UNL     1      -3.335   2.767  14.774  1.00  0.00     0.298 C
ENDBRANCH  15  16
ENDBRANCH  12  15
ENDBRANCH  11  12
ENDBRANCH   9  11
ENDBRANCH   4   7
ENDBRANCH   3   4
ENDBRANCH   1   3
BRANCH   1  22
HETATM   22  C11 UNL     1      -1.158   5.989   8.387  1.00  0.00     0.061 C
HETATM   23  C18 UNL     1      -0.935   6.899   7.239  1.00  0.00     0.024 C
HETATM   24  C19 UNL     1      -1.820   6.872   6.076  1.00  0.00     0.018 C
HETATM   25  C26 UNL     1       0.494   6.545   6.837  1.00  0.00    -0.001 C
HETATM   26  C20 UNL     1      -1.233   7.826   5.019  1.00  0.00     0.037 C
HETATM   27  C21 UNL     1      -2.160   7.932   3.860  1.00  0.00    -0.021 C
HETATM   28  C24 UNL     1       0.106   7.340   4.577  1.00  0.00     0.129 C
HETATM   29  C22 UNL     1      -1.608   8.354   2.731  1.00  0.00    -0.004 C
HETATM   30  C23 UNL     1      -0.187   8.679   2.684  1.00  0.00     0.195 C
HETATM   31  O4  UNL     1       0.645   8.049   3.553  1.00  0.00    -0.382 OA
HETATM   32  C25 UNL     1       1.031   7.487   5.792  1.00  0.00     0.038 C
HETATM   33  C27 UNL     1       1.160   6.744   8.182  1.00  0.00    -0.003 A
HETATM   34  C28 UNL     1       1.324   5.510   8.977  1.00  0.00     0.013 A
HETATM   35  C29 UNL     1       0.093   6.322   9.220  1.00  0.00     0.023 A
BRANCH  22  36
HETATM   36  C12 UNL     1      -2.406   6.308   9.080  1.00  0.00    -0.030 A
HETATM   37  C13 UNL     1      -2.342   7.308  10.064  1.00  0.00     0.010 A
HETATM   38  C14 UNL     1      -3.437   7.701  10.799  1.00  0.00     0.001 A
HETATM   39  C15 UNL     1      -4.661   7.095  10.570  1.00  0.00     0.000 A
HETATM   40  C16 UNL     1      -4.728   6.113   9.606  1.00  0.00     0.001 A
HETATM   41  C17 UNL     1      -3.634   5.717   8.869  1.00  0.00     0.010 A
ENDBRANCH  22  36
ENDBRANCH   1  22
TORSDOF 10
ENDMDL