MODEL 1
REMARK VINA RESULT: -7.700445405      0.000      0.000
REMARK  11 active torsions:
REMARK  status: ('A' for Active; 'I' for Inactive)
REMARK    1  A    between atoms: C2_2  and  C4_4
REMARK    2  A    between atoms: C4_4  and  N1_5
REMARK    3  A    between atoms: C4_4  and  C5_9
REMARK       I    between atoms: C5_9  and  N2_11
REMARK    4  A    between atoms: C6_12  and  C7_13
REMARK       I    between atoms: C7_13  and  N3_15
REMARK    5  A    between atoms: N3_15  and  C8_17
REMARK    6  A    between atoms: C8_17  and  C9_18
REMARK    7  A    between atoms: C8_17  and  C16_29
REMARK       I    between atoms: C9_18  and  N4_20
REMARK    8  A    between atoms: N4_20  and  C10_22
REMARK    9  A    between atoms: C10_22  and  C11_23
REMARK   10  A    between atoms: C11_23  and  C12_25
REMARK   11  A    between atoms: C20_35  and  C21_36
ROOT
HETATM    1  C5  UNL     1      -2.167   8.280   5.899  1.00  0.00     0.254 C
HETATM    2  O1  UNL     1      -1.330   9.024   5.265  1.00  0.00    -0.271 OA
HETATM    3  N2  UNL     1      -1.698   7.280   6.791  1.00  0.00    -0.296 N
HETATM    4  C6  UNL     1      -2.427   6.390   7.617  1.00  0.00     0.282 C
HETATM    5  C19 UNL     1      -1.378   5.435   8.119  1.00  0.00     0.293 C
HETATM    6  O5  UNL     1      -1.635   4.249   8.424  1.00  0.00    -0.262 OA
HETATM    7  O6  UNL     1      -0.212   6.174   8.134  1.00  0.00    -0.289 OA
HETATM    8  C20 UNL     1      -0.291   6.990   6.969  1.00  0.00     0.274 C
ENDROOT
BRANCH   4   9
HETATM    9  C7  UNL     1      -3.070   6.972   8.812  1.00  0.00     0.251 C
HETATM   10  O2  UNL     1      -2.375   7.849   9.443  1.00  0.00    -0.271 OA
HETATM   11  N3  UNL     1      -4.335   6.678   9.323  1.00  0.00    -0.345 N
ATOM     12  H3  UNL     1      -4.923   5.985   8.859  1.00  0.00     0.163 HD
BRANCH  11  13
HETATM   13  C8  UNL     1      -4.827   7.369  10.540  1.00  0.00     0.180 C
BRANCH  13  14
HETATM   14  C9  UNL     1      -4.772   6.415  11.683  1.00  0.00     0.241 C
HETATM   15  O3  UNL     1      -4.714   6.875  12.879  1.00  0.00    -0.271 OA
HETATM   16  N4  UNL     1      -4.780   5.024  11.529  1.00  0.00    -0.352 N
ATOM     17  H4  UNL     1      -4.831   4.616  10.596  1.00  0.00     0.162 HD
BRANCH  16  18
HETATM   18  C10 UNL     1      -4.717   4.153  12.710  1.00  0.00     0.201 C
BRANCH  18  19
HETATM   19  C11 UNL     1      -3.626   3.177  12.584  1.00  0.00     0.151 C
HETATM   20  O4  UNL     1      -3.081   3.026  11.498  1.00  0.00    -0.295 OA
BRANCH  19  21
HETATM   21  C12 UNL     1      -3.146   2.358  13.706  1.00  0.00     0.011 C
HETATM   22  C13 UNL     1      -4.010   1.109  13.797  1.00  0.00     0.022 C
HETATM   23  C14 UNL     1      -1.719   1.867  13.483  1.00  0.00     0.022 C
HETATM   24  C15 UNL     1      -3.198   3.053  15.025  1.00  0.00     0.022 C
ENDBRANCH  19  21
ENDBRANCH  18  19
ENDBRANCH  16  18
ENDBRANCH  13  14
BRANCH  13  25
HETATM   25  C16 UNL     1      -6.229   7.877  10.264  1.00  0.00     0.009 C
HETATM   26  C17 UNL     1      -6.093   9.230   9.549  1.00  0.00     0.012 C
HETATM   27  C18 UNL     1      -7.031   8.162  11.505  1.00  0.00     0.012 C
ENDBRANCH  13  25
ENDBRANCH  11  13
ENDBRANCH   4   9
BRANCH   1  28
HETATM   28  C4  UNL     1      -3.586   8.580   5.600  1.00  0.00     0.278 C
BRANCH  28  29
HETATM   29  C2  UNL     1      -3.723   9.294   4.258  1.00  0.00     0.017 C
HETATM   30  C1  UNL     1      -4.332   8.463   3.180  1.00  0.00     0.012 C
HETATM   31  C3  UNL     1      -4.471  10.583   4.380  1.00  0.00     0.012 C
ENDBRANCH  28  29
BRANCH  28  32
HETATM   32  N1  UNL     1      -3.981   9.647   6.564  1.00  0.00    -0.066 N
ATOM     33  H13 UNL     1      -3.251   9.929   7.218  1.00  0.00     0.275 HD
ATOM     34  H12 UNL     1      -4.106  10.574   6.155  1.00  0.00     0.275 HD
ATOM     35  H11 UNL     1      -4.815   9.249   6.993  1.00  0.00     0.275 HD
ENDBRANCH  28  32
ENDBRANCH   1  28
BRANCH   8  36
HETATM   36  C21 UNL     1       0.621   8.115   6.995  1.00  0.00     0.029 A
HETATM   37  C22 UNL     1       0.551   9.201   7.831  1.00  0.00     0.018 A
HETATM   38  C23 UNL     1       1.490  10.243   7.803  1.00  0.00     0.043 A
HETATM   39  C24 UNL     1       2.526  10.210   6.923  1.00  0.00     0.119 A
HETATM   40  F1  UNL     1       3.431  11.216   6.897  1.00  0.00    -0.206 F
HETATM   41  C25 UNL     1       2.630   9.136   6.067  1.00  0.00     0.085 A
HETATM   42  C26 UNL     1       1.704   8.118   6.102  1.00  0.00     0.130 A
HETATM   43  F2  UNL     1       1.834   7.093   5.260  1.00  0.00    -0.205 F
ENDBRANCH   8  36
TORSDOF 11
ENDMDL