MODEL 4
REMARK VINA RESULT: -8.619190722      3.120      6.328
REMARK  10 active torsions:
REMARK  status: ('A' for Active; 'I' for Inactive)
REMARK       I    between atoms: N1_2  and  C2_4
REMARK    1  A    between atoms: C2_4  and  C3_6
REMARK       I    between atoms: N2_11  and  C6_12
REMARK    2  A    between atoms: C6_12  and  C7_14
REMARK    3  A    between atoms: C7_14  and  C8_15
REMARK    4  A    between atoms: C7_14  and  N3_23
REMARK    5  A    between atoms: C8_15  and  C9_16
REMARK       I    between atoms: N3_23  and  C15_25
REMARK    6  A    between atoms: C15_25  and  C16_27
REMARK    7  A    between atoms: C16_27  and  N4_28
REMARK    8  A    between atoms: C16_27  and  C20_36
REMARK       I    between atoms: N4_28  and  C17_30
REMARK    9  A    between atoms: C17_30  and  O5_32
REMARK   10  A    between atoms: O5_32  and  C18_33
ROOT
HETATM    1  C7  UNL     1      -1.937   7.225   9.087  1.00  0.00     0.181 C
ENDROOT
BRANCH   1   2
HETATM    2  C6  UNL     1      -1.875   6.878   7.663  1.00  0.00     0.244 C
HETATM    3  N2  UNL     1      -1.011   7.532   6.707  1.00  0.00    -0.326 N
HETATM    4  C3  UNL     1      -1.032   7.016   5.361  1.00  0.00     0.190 C
HETATM    5  C5  UNL     1      -0.200   8.651   7.083  1.00  0.00     0.213 C
HETATM    6  C4  UNL     1      -2.094   7.696   4.534  1.00  0.00     0.121 C
HETATM    7  S1  UNL     1      -1.705   9.465   4.389  1.00  0.00    -0.093 SA
HETATM    8  S2  UNL     1      -0.215   9.953   5.823  1.00  0.00    -0.078 SA
HETATM    9  O2  UNL     1      -2.611   5.945   7.184  1.00  0.00    -0.271 OA
BRANCH   4  10
HETATM   10  C2  UNL     1       0.256   6.998   4.666  1.00  0.00     0.241 C
HETATM   11  N1  UNL     1       0.323   7.235   3.277  1.00  0.00    -0.364 N
HETATM   12  C1  UNL     1       1.590   7.226   2.549  1.00  0.00     0.149 C
ATOM     13  H1  UNL     1      -0.540   7.418   2.766  1.00  0.00     0.161 HD
HETATM   14  O1  UNL     1       1.316   6.774   5.278  1.00  0.00    -0.271 OA
ENDBRANCH   4  10
ENDBRANCH   1   2
BRANCH   1  15
HETATM   15  C8  UNL     1      -0.804   6.670   9.916  1.00  0.00     0.073 C
BRANCH  15  16
HETATM   16  C9  UNL     1      -0.369   5.324   9.510  1.00  0.00    -0.056 A
HETATM   17  C10 UNL     1       0.784   5.138   8.775  1.00  0.00     0.010 A
HETATM   18  C11 UNL     1       1.193   3.859   8.393  1.00  0.00     0.043 A
HETATM   19  C12 UNL     1       0.466   2.737   8.732  1.00  0.00     0.116 A
HETATM   20  F1  UNL     1       0.860   1.486   8.361  1.00  0.00    -0.206 F
HETATM   21  C13 UNL     1      -0.687   2.925   9.467  1.00  0.00     0.043 A
HETATM   22  C14 UNL     1      -1.086   4.193   9.842  1.00  0.00     0.010 A
ENDBRANCH  15  16
ENDBRANCH   1  15
BRANCH   1  23
HETATM   23  N3  UNL     1      -3.207   6.750   9.671  1.00  0.00    -0.346 N
HETATM   24  C15 UNL     1      -3.914   7.468  10.628  1.00  0.00     0.241 C
HETATM   25  O3  UNL     1      -3.445   8.579  11.014  1.00  0.00    -0.271 OA
ATOM     26  H3  UNL     1      -3.583   5.855   9.358  1.00  0.00     0.163 HD
BRANCH  24  27
HETATM   27  C16 UNL     1      -5.184   7.035  11.239  1.00  0.00     0.182 C
BRANCH  27  28
HETATM   28  N4  UNL     1      -5.006   6.454  12.549  1.00  0.00    -0.323 N
HETATM   29  C17 UNL     1      -5.021   5.062  12.775  1.00  0.00     0.363 C
HETATM   30  O4  UNL     1      -5.191   4.289  11.802  1.00  0.00    -0.238 OA
ATOM     31  H4  UNL     1      -4.865   7.076  13.344  1.00  0.00     0.165 HD
BRANCH  29  32
HETATM   32  O5  UNL     1      -4.850   4.521  14.035  1.00  0.00    -0.268 OA
BRANCH  32  33
HETATM   33  C18 UNL     1      -4.092   3.340  14.208  1.00  0.00     0.314 C
HETATM   34  C19 UNL     1      -3.458   3.356  15.588  1.00  0.00     0.077 C
HETATM   35  F2  UNL     1      -3.114   3.252  13.240  1.00  0.00    -0.220 F
ENDBRANCH  32  33
ENDBRANCH  29  32
ENDBRANCH  27  28
BRANCH  27  36
HETATM   36  C20 UNL     1      -6.150   8.182  11.329  1.00  0.00     0.009 C
HETATM   37  C21 UNL     1      -6.693   8.509   9.964  1.00  0.00     0.012 C
HETATM   38  C22 UNL     1      -7.332   7.755  12.191  1.00  0.00     0.012 C
ENDBRANCH  27  36
ENDBRANCH  24  27
ENDBRANCH   1  23
TORSDOF 10
ENDMDL