MODEL 2
REMARK VINA RESULT: -10.011684536      1.466      6.093
REMARK  11 active torsions:
REMARK  status: ('A' for Active; 'I' for Inactive)
REMARK    1  A    between atoms: N1_8  and  C7_9
REMARK    2  A    between atoms: C8_11  and  C9_12
REMARK    3  A    between atoms: C9_12  and  N2_13
REMARK    4  A    between atoms: C9_12  and  C17_24
REMARK    5  A    between atoms: N2_13  and  C10_15
REMARK    6  A    between atoms: C10_15  and  O3_16
REMARK    7  A    between atoms: C10_15  and  C11_18
REMARK       I    between atoms: C17_24  and  N3_26
REMARK    8  A    between atoms: N3_26  and  C18_28
REMARK    9  A    between atoms: C18_28  and  C19_29
REMARK   10  A    between atoms: C18_28  and  C21_34
REMARK   11  A    between atoms: C19_29  and  C20_31
ROOT
HETATM    1  C9  UNL     1      -1.853   4.840   9.537  1.00  0.00     0.208 C
ENDROOT
BRANCH   1   2
HETATM    2  C8  UNL     1      -3.148   5.417  10.057  1.00  0.00     0.194 C
HETATM    3  O2  UNL     1      -2.983   6.691  10.589  1.00  0.00    -0.352 OA
HETATM    4  C7  UNL     1      -3.975   7.323   9.884  1.00  0.00     0.268 C
HETATM    5  C27 UNL     1      -3.956   6.132   8.952  1.00  0.00     0.250 C
HETATM    6  F1  UNL     1      -5.147   5.473   8.768  1.00  0.00    -0.242 F
BRANCH   4   7
HETATM    7  N1  UNL     1      -5.207   7.687  10.488  1.00  0.00    -0.288 N
HETATM    8  C2  UNL     1      -5.749   7.188  11.599  1.00  0.00     0.013 A
HETATM    9  C1  UNL     1      -5.070   6.106  12.322  1.00  0.00     0.068 C
HETATM   10  C3  UNL     1      -6.979   7.638  12.121  1.00  0.00     0.025 A
HETATM   11  C4  UNL     1      -7.650   8.622  11.469  1.00  0.00     0.007 A
HETATM   12  C5  UNL     1      -7.116   9.149  10.324  1.00  0.00     0.075 A
HETATM   13  C6  UNL     1      -5.892   8.678   9.833  1.00  0.00     0.249 A
HETATM   14  O1  UNL     1      -5.468   9.219   8.779  1.00  0.00    -0.268 OA
ENDBRANCH   4   7
ENDBRANCH   1   2
BRANCH   1  15
HETATM   15  N2  UNL     1      -0.775   5.793   9.706  1.00  0.00    -0.355 N
ATOM     16  H2  UNL     1      -0.514   6.160  10.621  1.00  0.00     0.162 HD
BRANCH  15  17
HETATM   17  C10 UNL     1      -0.096   6.189   8.500  1.00  0.00     0.147 C
BRANCH  17  18
HETATM   18  O3  UNL     1      -0.608   7.257   7.940  1.00  0.00    -0.346 OA
ATOM     19  H3  UNL     1      -0.053   7.634   7.268  1.00  0.00     0.219 HD
ENDBRANCH  17  18
BRANCH  17  20
HETATM   20  C11 UNL     1       1.031   5.627   7.816  1.00  0.00     0.014 A
HETATM   21  C12 UNL     1       1.614   4.423   8.124  1.00  0.00     0.016 A
HETATM   22  C13 UNL     1       2.791   4.026   7.513  1.00  0.00     0.001 A
HETATM   23  C14 UNL     1       3.416   4.825   6.564  1.00  0.00     0.000 A
HETATM   24  C15 UNL     1       2.841   6.047   6.234  1.00  0.00     0.001 A
HETATM   25  C16 UNL     1       1.670   6.409   6.869  1.00  0.00     0.016 A
ENDBRANCH  17  20
ENDBRANCH  15  17
ENDBRANCH   1  15
BRANCH   1  26
HETATM   26  C17 UNL     1      -1.665   3.487  10.073  1.00  0.00     0.247 C
HETATM   27  O4  UNL     1      -0.787   2.690   9.602  1.00  0.00    -0.271 OA
HETATM   28  N3  UNL     1      -2.453   2.993  11.146  1.00  0.00    -0.322 N
ATOM     29  H3  UNL     1      -3.183   3.630  11.464  1.00  0.00     0.169 HD
BRANCH  28  30
HETATM   30  C18 UNL     1      -2.395   1.783  11.837  1.00  0.00     0.093 C
BRANCH  30  31
HETATM   31  C19 UNL     1      -2.131   2.015  13.311  1.00  0.00     0.263 C
HETATM   32  O5  UNL     1      -2.868   2.551  14.114  1.00  0.00    -0.280 OA
BRANCH  31  33
HETATM   33  C20 UNL     1      -0.824   1.506  13.766  1.00  0.00     0.307 C
HETATM   34  N4  UNL     1      -0.623   0.941  15.037  1.00  0.00    -0.054 NA
HETATM   35  O6  UNL     1       0.188   1.567  13.012  1.00  0.00    -0.267 OA
ENDBRANCH  31  33
ENDBRANCH  30  31
BRANCH  30  36
HETATM   36  C21 UNL     1      -2.877   0.469  11.462  1.00  0.00    -0.049 C
HETATM   37  C22 UNL     1      -4.083  -0.270  11.744  1.00  0.00     0.036 C
HETATM   38  C23 UNL     1      -3.853  -1.595  12.485  1.00  0.00     0.004 C
HETATM   39  C24 UNL     1      -2.719  -2.415  11.963  1.00  0.00     0.001 C
HETATM   40  C25 UNL     1      -1.471  -1.560  11.964  1.00  0.00     0.004 C
HETATM   41  C26 UNL     1      -1.691  -0.425  11.049  1.00  0.00     0.036 C
ENDBRANCH  30  36
ENDBRANCH  28  30
ENDBRANCH   1  26
TORSDOF 11
ENDMDL