MODEL 1
REMARK VINA RESULT: -8.709457362      0.000      0.000
REMARK  14 active torsions:
REMARK  status: ('A' for Active; 'I' for Inactive)
REMARK    1  A    between atoms: C2_2  and  C4_4
REMARK    2  A    between atoms: C4_4  and  N1_5
REMARK    3  A    between atoms: C4_4  and  C14_22
REMARK       I    between atoms: N1_5  and  C5_7
REMARK    4  A    between atoms: C5_7  and  O2_9
REMARK    5  A    between atoms: O2_9  and  C6_10
REMARK    6  A    between atoms: C6_10  and  C7_11
REMARK    7  A    between atoms: C12_18  and  C13_19
REMARK    8  A    between atoms: C14_22  and  O5_23
REMARK    9  A    between atoms: C14_22  and  N2_25
REMARK   10  A    between atoms: C18_29  and  C19_30
REMARK       I    between atoms: C19_30  and  N3_32
REMARK   11  A    between atoms: N3_32  and  C20_34
REMARK   12  A    between atoms: C20_34  and  C21_35
REMARK   13  A    between atoms: C20_34  and  C22_38
REMARK   14  A    between atoms: C21_35  and  O7_36
ROOT
HETATM    1  C4  UNL     1      -1.596   0.619  12.618  1.00  0.00     0.164 C
ENDROOT
BRANCH   1   2
HETATM    2  C2  UNL     1      -2.178  -0.384  11.638  1.00  0.00     0.008 C
HETATM    3  C1  UNL     1      -3.643  -0.329  11.425  1.00  0.00     0.012 C
HETATM    4  C3  UNL     1      -1.683  -1.796  11.874  1.00  0.00     0.012 C
ENDBRANCH   1   2
BRANCH   1   5
HETATM    5  N1  UNL     1      -2.592   1.742  12.490  1.00  0.00    -0.325 N
HETATM    6  C5  UNL     1      -2.869   2.590  13.577  1.00  0.00     0.361 C
HETATM    7  O1  UNL     1      -2.260   2.387  14.646  1.00  0.00    -0.238 OA
ATOM      8  H1  UNL     1      -3.071   1.890  11.603  1.00  0.00     0.165 HD
BRANCH   6   9
HETATM    9  O2  UNL     1      -3.772   3.633  13.534  1.00  0.00    -0.304 OA
BRANCH   9  10
HETATM   10  C6  UNL     1      -4.611   3.758  12.401  1.00  0.00     0.186 C
BRANCH  10  11
HETATM   11  C7  UNL     1      -4.745   5.194  11.961  1.00  0.00     0.030 C
HETATM   12  C8  UNL     1      -4.746   5.380  10.480  1.00  0.00     0.086 C
HETATM   13  C9  UNL     1      -4.701   6.880  10.215  1.00  0.00     0.244 C
HETATM   14  F1  UNL     1      -4.652   7.155   8.871  1.00  0.00    -0.206 F
HETATM   15  F2  UNL     1      -3.574   7.400  10.833  1.00  0.00    -0.206 F
HETATM   16  C10 UNL     1      -5.922   7.542  10.782  1.00  0.00     0.080 C
HETATM   17  C11 UNL     1      -6.138   7.233  12.257  1.00  0.00     0.021 C
HETATM   18  C12 UNL     1      -6.044   5.752  12.511  1.00  0.00     0.093 C
BRANCH  18  19
HETATM   19  C13 UNL     1      -6.082   5.498  13.964  1.00  0.00     0.177 C
HETATM   20  O3  UNL     1      -6.988   4.777  14.444  1.00  0.00    -0.648 OA
HETATM   21  O4  UNL     1      -5.142   6.034  14.822  1.00  0.00    -0.648 OA
ENDBRANCH  18  19
ENDBRANCH  10  11
ENDBRANCH   9  10
ENDBRANCH   6   9
ENDBRANCH   1   5
BRANCH   1  22
HETATM   22  C14 UNL     1      -0.324   1.217  12.278  1.00  0.00     0.138 C
BRANCH  22  23
HETATM   23  O5  UNL     1       0.506   1.485  13.254  1.00  0.00    -0.348 OA
ATOM     24  H5  UNL     1       1.125   0.811  13.508  1.00  0.00     0.219 HD
ENDBRANCH  22  23
BRANCH  22  25
HETATM   25  N2  UNL     1       0.212   1.576  10.993  1.00  0.00    -0.350 N
HETATM   26  C15 UNL     1       0.476   0.552  10.023  1.00  0.00     0.126 C
HETATM   27  C16 UNL     1       0.593   1.320   8.720  1.00  0.00     0.022 C
HETATM   28  C17 UNL     1       1.346   2.577   9.203  1.00  0.00     0.037 C
HETATM   29  C18 UNL     1       0.531   2.842  10.482  1.00  0.00     0.178 C
BRANCH  29  30
HETATM   30  C19 UNL     1      -0.614   3.730  10.127  1.00  0.00     0.241 C
HETATM   31  O6  UNL     1      -1.808   3.488  10.231  1.00  0.00    -0.271 OA
HETATM   32  N3  UNL     1      -0.235   5.028   9.600  1.00  0.00    -0.352 N
ATOM     33  H3  UNL     1       0.755   5.261   9.517  1.00  0.00     0.163 HD
BRANCH  32  34
HETATM   34  C20 UNL     1      -1.226   6.001   9.186  1.00  0.00     0.115 C
BRANCH  34  35
HETATM   35  C21 UNL     1      -0.668   7.369   9.641  1.00  0.00     0.190 C
BRANCH  35  36
HETATM   36  O7  UNL     1       0.724   7.287   9.745  1.00  0.00    -0.399 OA
ATOM     37  H7  UNL     1       1.119   7.972   9.218  1.00  0.00     0.209 HD
ENDBRANCH  35  36
ENDBRANCH  34  35
BRANCH  34  38
HETATM   38  C22 UNL     1      -1.422   6.075   7.703  1.00  0.00    -0.029 C
HETATM   39  C23 UNL     1      -1.924   7.461   7.294  1.00  0.00     0.016 C
HETATM   40  C24 UNL     1      -0.111   5.871   6.961  1.00  0.00     0.016 C
HETATM   41  C25 UNL     1      -2.385   5.031   7.188  1.00  0.00     0.016 C
ENDBRANCH  34  38
ENDBRANCH  32  34
ENDBRANCH  29  30
ENDBRANCH  22  25
ENDBRANCH   1  22
TORSDOF 14
ENDMDL