MODEL 4
REMARK VINA RESULT: -8.302992856      2.523      4.761
REMARK  11 active torsions:
REMARK  status: ('A' for Active; 'I' for Inactive)
REMARK    1  A    between atoms: C2_2  and  C3_3
REMARK    2  A    between atoms: C3_3  and  C4_4
REMARK    3  A    between atoms: C5_7  and  N2_8
REMARK    4  A    between atoms: N2_8  and  C6_9
REMARK    5  A    between atoms: C6_9  and  C7_10
REMARK    6  A    between atoms: C6_9  and  C10_13
REMARK    7  A    between atoms: C7_10  and  C8_11
REMARK       I    between atoms: C10_13  and  N3_15
REMARK    8  A    between atoms: N3_15  and  C11_17
REMARK    9  A    between atoms: C11_17  and  C12_18
REMARK       I    between atoms: C12_18  and  N4_20
REMARK   10  A    between atoms: C16_24  and  C17_25
REMARK   11  A    between atoms: C24_34  and  C25_35
ROOT
HETATM    1  C11 UNL     1      -0.217   6.090   8.635  1.00  0.00     0.122 C
HETATM    2  C21 UNL     1       0.806   5.316   9.586  1.00  0.00     0.034 C
HETATM    3  C22 UNL     1       1.658   5.305   8.401  1.00  0.00     0.016 C
HETATM    4  C23 UNL     1       0.320   4.969   7.862  1.00  0.00     0.034 C
HETATM    5  C24 UNL     1       0.093   4.132   9.094  1.00  0.00     0.071 C
ENDROOT
BRANCH   1   6
HETATM    6  N3  UNL     1      -1.502   6.013   9.296  1.00  0.00    -0.340 N
HETATM    7  C10 UNL     1      -2.705   5.577   8.737  1.00  0.00     0.254 C
HETATM    8  O1  UNL     1      -2.852   5.198   7.560  1.00  0.00    -0.270 OA
ATOM      9  H3  UNL     1      -1.532   6.307  10.272  1.00  0.00     0.163 HD
BRANCH   7  10
HETATM   10  C6  UNL     1      -3.976   5.539   9.583  1.00  0.00     0.258 C
BRANCH  10  11
HETATM   11  N2  UNL     1      -3.988   4.776  10.654  1.00  0.00    -0.399 NA
BRANCH  11  12
HETATM   12  C5  UNL     1      -3.969   4.037  11.604  1.00  0.00     0.277 A
HETATM   13  N1  UNL     1      -3.342   2.820  11.755  1.00  0.00    -0.297 N
HETATM   14  C4  UNL     1      -3.591   2.371  12.973  1.00  0.00     0.150 A
ATOM     15  H1  UNL     1      -2.779   2.347  11.047  1.00  0.00     0.172 HD
HETATM   16  O5  UNL     1      -4.330   3.243  13.564  1.00  0.00    -0.221 OA
HETATM   17  N5  UNL     1      -4.586   4.244  12.809  1.00  0.00    -0.217 N
ATOM     18  H5  UNL     1      -5.151   5.055  13.061  1.00  0.00     0.199 HD
BRANCH  14  19
HETATM   19  C3  UNL     1      -3.117   1.081  13.604  1.00  0.00     0.086 C
BRANCH  19  20
HETATM   20  C2  UNL     1      -2.826   0.080  12.478  1.00  0.00     0.004 C
HETATM   21  C1  UNL     1      -4.059  -0.699  12.160  1.00  0.00     0.005 C
ENDBRANCH  19  20
ENDBRANCH  14  19
ENDBRANCH  11  12
ENDBRANCH  10  11
BRANCH  10  22
HETATM   22  C7  UNL     1      -4.307   7.027   9.917  1.00  0.00     0.049 C
BRANCH  22  23
HETATM   23  C8  UNL     1      -5.575   7.111  10.694  1.00  0.00    -0.001 C
HETATM   24  C9  UNL     1      -6.337   8.353  10.223  1.00  0.00     0.005 C
ENDBRANCH  22  23
ENDBRANCH  10  22
ENDBRANCH   7  10
ENDBRANCH   1   6
BRANCH   1  25
HETATM   25  C12 UNL     1       0.185   7.469   8.389  1.00  0.00     0.249 C
HETATM   26  O2  UNL     1       0.520   8.190   9.400  1.00  0.00    -0.270 OA
HETATM   27  N4  UNL     1       0.248   8.145   7.150  1.00  0.00    -0.334 N
HETATM   28  C13 UNL     1       0.759   9.517   7.019  1.00  0.00     0.132 C
HETATM   29  C16 UNL     1      -0.223   7.714   5.857  1.00  0.00     0.193 C
HETATM   30  C14 UNL     1      -0.005   9.937   5.807  1.00  0.00     0.019 A
HETATM   31  C15 UNL     1       0.476   8.693   4.975  1.00  0.00     0.034 A
HETATM   32  C18 UNL     1       0.209   9.951   4.427  1.00  0.00    -0.036 A
HETATM   33  C19 UNL     1       1.383  10.780   3.888  1.00  0.00     0.016 C
HETATM   34  C20 UNL     1      -0.979  10.049   3.460  1.00  0.00     0.016 C
BRANCH  29  35
HETATM   35  C17 UNL     1      -1.699   7.728   5.752  1.00  0.00     0.197 C
HETATM   36  O3  UNL     1      -2.204   7.091   4.791  1.00  0.00    -0.646 OA
HETATM   37  O4  UNL     1      -2.564   8.373   6.606  1.00  0.00    -0.646 OA
ENDBRANCH  29  35
ENDBRANCH   1  25
BRANCH   5  38
HETATM   38  C25 UNL     1       0.631   2.765   9.158  1.00  0.00     0.244 C
HETATM   39  C26 UNL     1      -0.579   1.786   9.211  1.00  0.00     0.090 C
HETATM   40  F1  UNL     1       1.313   2.517  10.357  1.00  0.00    -0.206 F
HETATM   41  F2  UNL     1       1.346   2.314   8.079  1.00  0.00    -0.206 F
ENDBRANCH   5  38
TORSDOF 11
ENDMDL