MODEL 3
REMARK VINA RESULT: -9.445338825      1.910      2.633
REMARK  9 active torsions:
REMARK  status: ('A' for Active; 'I' for Inactive)
REMARK    1  A    between atoms: C1_2  and  C2_3
REMARK       I    between atoms: C1_2  and  N2_16
REMARK    2  A    between atoms: C2_3  and  C3_4
REMARK    3  A    between atoms: C3_4  and  N1_5
REMARK       I    between atoms: N1_5  and  C4_7
REMARK    4  A    between atoms: C4_7  and  C5_9
REMARK    5  A    between atoms: N2_16  and  C10_18
REMARK    6  A    between atoms: C17_26  and  C18_27
REMARK    7  A    between atoms: C18_27  and  N4_28
REMARK    8  A    between atoms: N4_28  and  S1_30
REMARK    9  A    between atoms: S1_30  and  C19_33
ROOT
HETATM    1  C10 UNL     1       0.532   2.452  10.034  1.00  0.00     0.086 C
HETATM    2  C11 UNL     1       1.419   3.540  10.551  1.00  0.00     0.027 C
HETATM    3  C12 UNL     1       2.120   4.385   9.572  1.00  0.00     0.038 C
HETATM    4  C13 UNL     1       1.540   4.284   8.212  1.00  0.00     0.223 C
HETATM    5  C14 UNL     1       2.339   5.060   7.174  1.00  0.00     0.037 C
HETATM    6  C15 UNL     1       1.583   6.340   7.025  1.00  0.00     0.032 C
HETATM    7  C16 UNL     1       0.271   6.121   7.720  1.00  0.00     0.273 C
HETATM    8  N3  UNL     1       0.187   4.733   8.058  1.00  0.00     0.099 N
HETATM    9  C17 UNL     1      -0.733   4.388   9.075  1.00  0.00     0.243 C
HETATM   10  C23 UNL     1      -0.721   2.924   9.379  1.00  0.00     0.062 C
ENDROOT
BRANCH   1  11
HETATM   11  N2  UNL     1       0.258   1.480  11.097  1.00  0.00    -0.356 N
HETATM   12  C1  UNL     1       0.629   0.121  11.027  1.00  0.00     0.219 C
HETATM   13  O1  UNL     1       1.230  -0.263   9.991  1.00  0.00    -0.274 OA
ATOM     14  H2  UNL     1      -0.227   1.804  11.933  1.00  0.00     0.162 HD
BRANCH  12  15
HETATM   15  C2  UNL     1       0.350  -0.850  12.095  1.00  0.00     0.122 C
BRANCH  15  16
HETATM   16  C3  UNL     1      -0.987  -1.521  11.882  1.00  0.00     0.132 C
BRANCH  16  17
HETATM   17  N1  UNL     1      -2.016  -0.817  12.591  1.00  0.00    -0.360 N
HETATM   18  C4  UNL     1      -2.851   0.134  11.945  1.00  0.00     0.222 C
HETATM   19  O2  UNL     1      -2.666   0.346  10.717  1.00  0.00    -0.273 OA
ATOM     20  H1  UNL     1      -2.151  -1.003  13.585  1.00  0.00     0.162 HD
BRANCH  18  21
HETATM   21  C5  UNL     1      -3.895   0.842  12.706  1.00  0.00     0.084 C
HETATM   22  C6  UNL     1      -4.023   2.229  12.122  1.00  0.00     0.020 C
HETATM   23  C7  UNL     1      -3.342   3.190  13.029  1.00  0.00     0.080 C
HETATM   24  C8  UNL     1      -2.642   2.347  14.050  1.00  0.00     0.244 C
HETATM   25  F1  UNL     1      -1.389   2.007  13.518  1.00  0.00    -0.206 F
HETATM   26  F2  UNL     1      -2.479   2.973  15.266  1.00  0.00    -0.206 F
HETATM   27  C9  UNL     1      -3.473   1.078  14.153  1.00  0.00     0.093 C
ENDBRANCH  18  21
ENDBRANCH  16  17
ENDBRANCH  15  16
ENDBRANCH  12  15
ENDBRANCH   1  11
BRANCH   9  28
HETATM   28  C18 UNL     1      -2.131   4.739   8.562  1.00  0.00     0.168 C
BRANCH  28  29
HETATM   29  N4  UNL     1      -3.042   5.007   9.610  1.00  0.00    -0.313 N
ATOM     30  H4  UNL     1      -3.355   4.261  10.231  1.00  0.00     0.172 HD
BRANCH  29  31
HETATM   31  S1  UNL     1      -3.595   6.571   9.812  1.00  0.00     0.265 S
HETATM   32  O3  UNL     1      -2.446   7.431  10.329  1.00  0.00    -0.200 OA
HETATM   33  O4  UNL     1      -4.082   7.226   8.544  1.00  0.00    -0.200 OA
BRANCH  31  34
HETATM   34  C19 UNL     1      -4.878   6.757  10.990  1.00  0.00     0.119 A
HETATM   35  C20 UNL     1      -5.200   6.083  12.123  1.00  0.00     0.033 A
HETATM   36  C21 UNL     1      -6.269   6.496  12.828  1.00  0.00     0.009 A
HETATM   37  C22 UNL     1      -6.962   7.575  12.346  1.00  0.00     0.051 A
HETATM   38  S2  UNL     1      -6.103   7.980  10.931  1.00  0.00    -0.088 SA
ENDBRANCH  31  34
ENDBRANCH  29  31
ENDBRANCH  28  29
ENDBRANCH   9  28
TORSDOF 9
ENDMDL