MODEL 1
REMARK VINA RESULT: -10.191910542      0.000      0.000
REMARK  10 active torsions:
REMARK  status: ('A' for Active; 'I' for Inactive)
REMARK    1  A    between atoms: C2_2  and  N1_3
REMARK    2  A    between atoms: C2_2  and  C21_35
REMARK       I    between atoms: N1_3  and  C3_5
REMARK    3  A    between atoms: C3_5  and  C4_7
REMARK    4  A    between atoms: C4_7  and  N2_8
REMARK    5  A    between atoms: C4_7  and  C18_32
REMARK       I    between atoms: N2_8  and  C5_10
REMARK    6  A    between atoms: C5_10  and  O3_12
REMARK    7  A    between atoms: O3_12  and  C6_13
REMARK    8  A    between atoms: C11_20  and  C12_21
REMARK       I    between atoms: C12_21  and  N4_23
REMARK    9  A    between atoms: N4_23  and  C13_25
REMARK   10  A    between atoms: C13_25  and  C15_27
ROOT
HETATM    1  N2  UNL     1       1.311  -0.423  10.536  1.00  0.00    -0.323 N
ATOM      2  H2  UNL     1       1.416  -1.153  11.241  1.00  0.00     0.165 HD
HETATM    3  C5  UNL     1       2.000  -0.543   9.301  1.00  0.00     0.361 C
HETATM    4  O2  UNL     1       1.858   0.364   8.443  1.00  0.00    -0.238 OA
ENDROOT
BRANCH   3   5
HETATM    5  O3  UNL     1       2.819  -1.589   8.973  1.00  0.00    -0.296 OA
BRANCH   5   6
HETATM    6  C6  UNL     1       2.519  -2.945   8.949  1.00  0.00     0.166 C
HETATM    7  C7  UNL     1       2.798  -3.594  10.307  1.00  0.00     0.201 C
HETATM    8  O4  UNL     1       4.071  -4.099  10.277  1.00  0.00    -0.381 OA
HETATM    9  C8  UNL     1       4.582  -4.009   9.021  1.00  0.00     0.159 C
HETATM   10  C9  UNL     1       5.450  -2.791   8.780  1.00  0.00     0.305 C
HETATM   11  C17 UNL     1       3.443  -3.744   8.051  1.00  0.00     0.091 C
HETATM   12  N3  UNL     1       5.282  -2.420   7.406  1.00  0.00     0.101 N
HETATM   13  C10 UNL     1       5.527  -1.054   7.111  1.00  0.00     0.311 C
HETATM   14  C11 UNL     1       4.041  -2.949   6.940  1.00  0.00     0.322 C
BRANCH  14  15
HETATM   15  C12 UNL     1       4.322  -3.880   5.820  1.00  0.00     0.252 C
HETATM   16  O5  UNL     1       5.391  -4.518   5.771  1.00  0.00    -0.271 OA
HETATM   17  N4  UNL     1       3.390  -4.081   4.767  1.00  0.00    -0.349 N
ATOM     18  H4  UNL     1       2.513  -3.562   4.799  1.00  0.00     0.163 HD
BRANCH  17  19
HETATM   19  C13 UNL     1       3.606  -4.965   3.663  1.00  0.00     0.152 C
HETATM   20  C14 UNL     1       3.153  -4.359   2.352  1.00  0.00     0.038 C
BRANCH  19  21
HETATM   21  C15 UNL     1       2.884  -6.287   3.821  1.00  0.00     0.259 C
HETATM   22  C16 UNL     1       2.811  -7.055   2.540  1.00  0.00     0.092 C
HETATM   23  F1  UNL     1       3.587  -7.039   4.748  1.00  0.00    -0.205 F
HETATM   24  F2  UNL     1       1.601  -6.114   4.299  1.00  0.00    -0.205 F
ENDBRANCH  19  21
ENDBRANCH  17  19
ENDBRANCH  14  15
ENDBRANCH   5   6
ENDBRANCH   3   5
BRANCH   1  25
HETATM   25  C4  UNL     1       0.466   0.712  10.811  1.00  0.00     0.182 C
BRANCH  25  26
HETATM   26  C3  UNL     1      -0.357   0.540  12.009  1.00  0.00     0.241 C
HETATM   27  N1  UNL     1      -0.927   1.624  12.718  1.00  0.00    -0.351 N
ATOM     28  H1  UNL     1      -0.765   2.575  12.384  1.00  0.00     0.163 HD
HETATM   29  O1  UNL     1      -0.573  -0.620  12.437  1.00  0.00    -0.271 OA
BRANCH  27  30
HETATM   30  C2  UNL     1      -1.736   1.423  13.904  1.00  0.00     0.113 C
HETATM   31  C1  UNL     1      -0.774   1.541  15.082  1.00  0.00     0.037 C
BRANCH  30  32
HETATM   32  C21 UNL     1      -2.800   2.438  14.074  1.00  0.00    -0.036 A
HETATM   33  C22 UNL     1      -3.101   2.990  15.317  1.00  0.00     0.009 A
HETATM   34  C23 UNL     1      -4.093   3.937  15.481  1.00  0.00     0.001 A
HETATM   35  C24 UNL     1      -4.832   4.377  14.406  1.00  0.00     0.000 A
HETATM   36  C25 UNL     1      -4.553   3.848  13.180  1.00  0.00     0.001 A
HETATM   37  C26 UNL     1      -3.568   2.908  13.019  1.00  0.00     0.009 A
ENDBRANCH  30  32
ENDBRANCH  27  30
ENDBRANCH  25  26
BRANCH  25  38
HETATM   38  C18 UNL     1      -0.462   1.003   9.635  1.00  0.00     0.009 C
HETATM   39  C19 UNL     1      -1.854   0.590  10.074  1.00  0.00     0.012 C
HETATM   40  C20 UNL     1      -0.415   2.442   9.214  1.00  0.00     0.012 C
ENDBRANCH  25  38
ENDBRANCH   1  25
TORSDOF 10
ENDMDL