MODEL 3
REMARK VINA RESULT: -8.761818700      3.475      8.247
REMARK  10 active torsions:
REMARK  status: ('A' for Active; 'I' for Inactive)
REMARK    1  A    between atoms: O1_2  and  C2_3
REMARK       I    between atoms: C2_3  and  N1_5
REMARK    2  A    between atoms: N1_5  and  C4_7
REMARK    3  A    between atoms: C4_7  and  C5_8
REMARK    4  A    between atoms: C5_8  and  N2_11
REMARK       I    between atoms: N2_11  and  C8_13
REMARK    5  A    between atoms: C8_13  and  C9_15
REMARK    6  A    between atoms: C10_16  and  C11_17
REMARK       I    between atoms: N3_26  and  C17_27
REMARK    7  A    between atoms: C17_27  and  C18_29
REMARK    8  A    between atoms: C18_29  and  N4_30
REMARK    9  A    between atoms: C18_29  and  C23_39
REMARK       I    between atoms: N4_30  and  C19_32
REMARK       I    between atoms: C19_32  and  N5_34
REMARK   10  A    between atoms: N5_34  and  C20_36
ROOT
HETATM    1  C9  UNL     1       0.171   3.064   8.612  1.00  0.00     0.245 C
HETATM    2  C10 UNL     1       1.375   3.808   9.125  1.00  0.00     0.223 C
HETATM    3  O4  UNL     1       0.433   4.571   9.800  1.00  0.00    -0.261 OA
HETATM    4  N3  UNL     1      -0.485   4.326   8.874  1.00  0.00    -0.206 N
HETATM    5  C17 UNL     1      -1.596   5.060   8.380  1.00  0.00     0.267 C
HETATM    6  O5  UNL     1      -2.205   4.543   7.393  1.00  0.00    -0.269 OA
ENDROOT
BRANCH   1   7
HETATM    7  C8  UNL     1      -0.323   2.011   9.538  1.00  0.00     0.246 C
HETATM    8  N2  UNL     1      -0.116   2.059  10.937  1.00  0.00    -0.349 N
ATOM      9  H2  UNL     1       0.407   2.854  11.306  1.00  0.00     0.163 HD
HETATM   10  O3  UNL     1      -0.951   1.036   9.065  1.00  0.00    -0.271 OA
BRANCH   8  11
HETATM   11  C5  UNL     1      -0.583   1.080  11.883  1.00  0.00     0.042 C
HETATM   12  C6  UNL     1       0.105  -0.277  11.649  1.00  0.00     0.039 C
HETATM   13  C7  UNL     1      -0.172   1.496  13.277  1.00  0.00     0.039 C
BRANCH  11  14
HETATM   14  C4  UNL     1      -2.071   0.894  11.855  1.00  0.00     0.157 C
BRANCH  14  15
HETATM   15  N1  UNL     1      -2.834   1.993  12.373  1.00  0.00    -0.330 N
HETATM   16  C2  UNL     1      -3.397   2.036  13.676  1.00  0.00     0.362 C
HETATM   17  O2  UNL     1      -3.253   1.103  14.532  1.00  0.00    -0.238 OA
HETATM   18  C3  UNL     1      -3.064   3.134  11.517  1.00  0.00     0.155 C
BRANCH  16  19
HETATM   19  O1  UNL     1      -4.158   3.108  14.126  1.00  0.00    -0.309 OA
HETATM   20  C1  UNL     1      -3.900   3.720  15.388  1.00  0.00     0.215 C
ENDBRANCH  16  19
ENDBRANCH  14  15
ENDBRANCH  11  14
ENDBRANCH   8  11
ENDBRANCH   1   7
BRANCH   5  21
HETATM   21  C18 UNL     1      -2.080   6.348   8.927  1.00  0.00     0.184 C
BRANCH  21  22
HETATM   22  N4  UNL     1      -3.400   6.157   9.486  1.00  0.00    -0.329 N
HETATM   23  C19 UNL     1      -3.911   6.842  10.610  1.00  0.00     0.317 C
HETATM   24  O6  UNL     1      -3.284   7.704  11.279  1.00  0.00    -0.247 OA
HETATM   25  N5  UNL     1      -5.237   6.556  11.045  1.00  0.00    -0.339 N
ATOM     26  H5  UNL     1      -5.774   5.867  10.519  1.00  0.00     0.164 HD
ATOM     27  H4  UNL     1      -4.009   5.475   9.033  1.00  0.00     0.165 HD
BRANCH  25  28
HETATM   28  C20 UNL     1      -5.866   7.177  12.179  1.00  0.00     0.078 C
HETATM   29  C21 UNL     1      -7.101   7.909  11.721  1.00  0.00     0.032 C
HETATM   30  C22 UNL     1      -6.310   6.125  13.187  1.00  0.00     0.032 C
ENDBRANCH  25  28
ENDBRANCH  21  22
BRANCH  21  31
HETATM   31  C23 UNL     1      -1.958   7.506   7.997  1.00  0.00     0.009 C
HETATM   32  C24 UNL     1      -3.213   8.233   7.676  1.00  0.00     0.012 C
HETATM   33  C25 UNL     1      -0.939   8.524   8.537  1.00  0.00     0.012 C
ENDBRANCH  21  31
ENDBRANCH   5  21
BRANCH   2  34
HETATM   34  C11 UNL     1       2.112   4.613   8.148  1.00  0.00     0.017 A
HETATM   35  C12 UNL     1       2.029   5.955   7.947  1.00  0.00     0.013 A
HETATM   36  C13 UNL     1       2.792   6.578   6.959  1.00  0.00     0.004 A
HETATM   37  C14 UNL     1       3.654   5.895   6.149  1.00  0.00     0.045 A
HETATM   38  C15 UNL     1       3.753   4.509   6.340  1.00  0.00     0.155 A
HETATM   39  F1  UNL     1       4.610   3.857   5.527  1.00  0.00    -0.203 F
HETATM   40  C16 UNL     1       2.995   3.913   7.316  1.00  0.00     0.163 A
HETATM   41  F2  UNL     1       3.131   2.559   7.456  1.00  0.00    -0.202 F
ENDBRANCH   2  34
TORSDOF 10
ENDMDL