MODEL 4
REMARK VINA RESULT: -8.829401142      1.130      2.531
REMARK  12 active torsions:
REMARK  status: ('A' for Active; 'I' for Inactive)
REMARK    1  A    between atoms: C2_2  and  C3_3
REMARK    2  A    between atoms: C3_3  and  C6_6
REMARK    3  A    between atoms: C7_7  and  O1_8
REMARK    4  A    between atoms: C10_12  and  C11_13
REMARK    5  A    between atoms: C12_14  and  C13_15
REMARK    6  A    between atoms: C13_15  and  O2_16
REMARK    7  A    between atoms: O2_16  and  C14_17
REMARK    8  A    between atoms: C14_17  and  C15_18
REMARK    9  A    between atoms: C16_20  and  C18_22
REMARK   10  A    between atoms: C19_25  and  O6_26
REMARK   11  A    between atoms: C20_28  and  O7_29
REMARK   12  A    between atoms: C21_31  and  O8_32
ROOT
HETATM    1  C11 UNL     1      25.783   2.949   0.776  1.00  0.00    -0.061 C
HETATM    2  C12 UNL     1      26.834   3.492   0.541  1.00  0.00    -0.075 C
ENDROOT
BRANCH   2   3
HETATM    3  C13 UNL     1      28.118   4.137   0.234  1.00  0.00     0.261 C
BRANCH   3   4
HETATM    4  O2  UNL     1      28.470   4.038  -1.085  1.00  0.00    -0.377 OA
BRANCH   4   5
HETATM    5  C14 UNL     1      28.080   2.903  -1.743  1.00  0.00     0.203 C
BRANCH   5   6
HETATM    6  C15 UNL     1      29.223   2.016  -2.200  1.00  0.00     0.178 C
HETATM    7  O3  UNL     1      29.986   1.645  -1.161  1.00  0.00    -0.357 OA
HETATM    8  C16 UNL     1      29.833   0.432  -0.594  1.00  0.00     0.173 C
HETATM    9  C17 UNL     1      28.714   0.395   0.456  1.00  0.00     0.061 C
HETATM   10  C19 UNL     1      29.750  -0.735  -1.522  1.00  0.00     0.194 C
HETATM   11  C20 UNL     1      29.304  -0.394  -2.909  1.00  0.00     0.181 C
HETATM   12  C21 UNL     1      28.622   0.920  -3.028  1.00  0.00     0.180 C
BRANCH   8  13
HETATM   13  C18 UNL     1      31.080   0.199   0.233  1.00  0.00     0.211 C
HETATM   14  O4  UNL     1      31.743  -0.843  -0.036  1.00  0.00    -0.646 OA
HETATM   15  O5  UNL     1      31.496   1.043   1.223  1.00  0.00    -0.646 OA
ENDBRANCH   8  13
BRANCH  10  16
HETATM   16  O6  UNL     1      28.856  -1.662  -0.935  1.00  0.00    -0.389 OA
ATOM     17  H6  UNL     1      27.983  -1.299  -1.031  1.00  0.00     0.210 HD
ENDBRANCH  10  16
BRANCH  11  18
HETATM   18  O7  UNL     1      28.386  -1.388  -3.318  1.00  0.00    -0.390 OA
ATOM     19  H7  UNL     1      28.424  -1.440  -4.265  1.00  0.00     0.210 HD
ENDBRANCH  11  18
BRANCH  12  20
HETATM   20  O8  UNL     1      27.237   0.776  -2.767  1.00  0.00    -0.390 OA
ATOM     21  H8  UNL     1      26.883   0.002  -3.188  1.00  0.00     0.210 HD
ENDBRANCH  12  20
ENDBRANCH   5   6
ENDBRANCH   4   5
ENDBRANCH   3   4
ENDBRANCH   2   3
BRANCH   1  22
HETATM   22  C10 UNL     1      24.530   2.289   1.035  1.00  0.00     0.072 A
HETATM   23  C9  UNL     1      24.324   1.001   0.627  1.00  0.00     0.170 A
HETATM   24  C7  UNL     1      23.114   0.340   0.868  1.00  0.00     0.118 A
HETATM   25  F1  UNL     1      25.301   0.300  -0.042  1.00  0.00    -0.202 F
HETATM   26  C6  UNL     1      22.088   0.974   1.522  1.00  0.00     0.021 A
HETATM   27  C25 UNL     1      22.310   2.318   1.948  1.00  0.00     0.096 A
HETATM   28  C22 UNL     1      23.509   2.935   1.698  1.00  0.00     0.022 A
HETATM   29  O9  UNL     1      21.543   3.184   2.591  1.00  0.00    -0.321 OA
HETATM   30  C23 UNL     1      23.422   4.214   2.225  1.00  0.00     0.040 A
HETATM   31  C24 UNL     1      22.162   4.304   2.770  1.00  0.00     0.143 A
BRANCH  24  32
HETATM   32  O1  UNL     1      23.065  -0.993   0.411  1.00  0.00    -0.352 OA
HETATM   33  C8  UNL     1      23.545  -1.949   1.419  1.00  0.00     0.210 C
ENDBRANCH  24  32
BRANCH  26  34
HETATM   34  C3  UNL     1      20.746   0.408   1.618  1.00  0.00    -0.015 C
HETATM   35  C4  UNL     1      20.305  -0.434   0.418  1.00  0.00     0.020 C
HETATM   36  C5  UNL     1      19.818   1.706   1.273  1.00  0.00     0.020 C
BRANCH  34  37
HETATM   37  C2  UNL     1      20.086   0.016   2.872  1.00  0.00     0.009 C
HETATM   38  C1  UNL     1      20.770  -0.961   3.766  1.00  0.00     0.006 C
ENDBRANCH  34  37
ENDBRANCH  26  34
ENDBRANCH   1  22
TORSDOF 12
ENDMDL