MODEL 2
REMARK VINA RESULT: -9.986365135      2.372      3.536
REMARK  11 active torsions:
REMARK  status: ('A' for Active; 'I' for Inactive)
REMARK    1  A    between atoms: O1_2  and  C2_3
REMARK    2  A    between atoms: C5_6  and  C6_7
REMARK    3  A    between atoms: C7_9  and  O3_10
REMARK    4  A    between atoms: O3_10  and  C8_11
REMARK    5  A    between atoms: C8_11  and  C9_12
REMARK    6  A    between atoms: C12_15  and  C13_16
REMARK    7  A    between atoms: C19_23  and  O4_24
REMARK    8  A    between atoms: C20_26  and  O5_27
REMARK    9  A    between atoms: C21_29  and  O6_30
REMARK   10  A    between atoms: C22_32  and  O7_33
REMARK   11  A    between atoms: C23_35  and  O8_36
ROOT
HETATM    1  C6  UNL     1      28.053   1.357  -1.561  1.00  0.00     0.094 C
HETATM    2  O2  UNL     1      28.423   0.692  -0.400  1.00  0.00    -0.318 OA
HETATM    3  C7  UNL     1      27.764  -0.551  -0.432  1.00  0.00     0.297 C
HETATM    4  C19 UNL     1      28.838  -1.591  -0.628  1.00  0.00     0.205 C
HETATM    5  C20 UNL     1      29.813  -1.030  -1.644  1.00  0.00     0.183 C
HETATM    6  C21 UNL     1      29.154  -0.534  -2.882  1.00  0.00     0.184 C
HETATM    7  C22 UNL     1      28.553   0.816  -2.837  1.00  0.00     0.207 C
ENDROOT
BRANCH   3   8
HETATM    8  O3  UNL     1      27.032  -0.704   0.705  1.00  0.00    -0.354 OA
BRANCH   8   9
HETATM    9  C8  UNL     1      25.808  -1.301   0.547  1.00  0.00     0.209 C
BRANCH   9  10
HETATM   10  C9  UNL     1      24.758  -0.267   0.812  1.00  0.00    -0.032 A
HETATM   11  C10 UNL     1      24.147   0.440  -0.183  1.00  0.00     0.010 A
HETATM   12  C11 UNL     1      23.189   1.383   0.119  1.00  0.00     0.011 A
HETATM   13  C12 UNL     1      22.808   1.653   1.424  1.00  0.00    -0.012 A
HETATM   14  C17 UNL     1      23.413   0.950   2.436  1.00  0.00     0.124 A
HETATM   15  F1  UNL     1      23.072   1.181   3.719  1.00  0.00    -0.206 F
HETATM   16  C18 UNL     1      24.367   0.012   2.126  1.00  0.00     0.052 A
BRANCH  13  17
HETATM   17  C13 UNL     1      21.772   2.678   1.719  1.00  0.00    -0.021 C
HETATM   18  C14 UNL     1      20.564   2.087   2.372  1.00  0.00     0.019 C
HETATM   19  C15 UNL     1      22.341   3.770   2.624  1.00  0.00     0.019 C
HETATM   20  C16 UNL     1      21.387   3.344   0.427  1.00  0.00     0.019 C
ENDBRANCH  13  17
ENDBRANCH   9  10
ENDBRANCH   8   9
ENDBRANCH   3   8
BRANCH   4  21
HETATM   21  O4  UNL     1      28.342  -2.818  -1.061  1.00  0.00    -0.388 OA
ATOM     22  H4  UNL     1      28.762  -3.135  -1.851  1.00  0.00     0.210 HD
ENDBRANCH   4  21
BRANCH   1  23
HETATM   23  C5  UNL     1      28.139   2.831  -1.419  1.00  0.00     0.029 A
HETATM   24  C4  UNL     1      28.807   3.669  -2.284  1.00  0.00     0.020 A
HETATM   25  C3  UNL     1      28.834   5.054  -2.093  1.00  0.00     0.038 A
HETATM   26  C2  UNL     1      28.186   5.631  -1.021  1.00  0.00     0.070 A
HETATM   27  C25 UNL     1      27.520   4.797  -0.158  1.00  0.00     0.074 A
HETATM   28  C23 UNL     1      27.503   3.443  -0.359  1.00  0.00     0.083 A
BRANCH  26  29
HETATM   29  O1  UNL     1      28.237   7.011  -0.866  1.00  0.00    -0.356 OA
HETATM   30  C1  UNL     1      27.505   7.667   0.167  1.00  0.00     0.210 C
ENDBRANCH  26  29
BRANCH  28  31
HETATM   31  O8  UNL     1      26.820   2.675   0.541  1.00  0.00    -0.355 OA
HETATM   32  C24 UNL     1      26.094   3.200   1.613  1.00  0.00     0.210 C
ENDBRANCH  28  31
ENDBRANCH   1  23
BRANCH   5  33
HETATM   33  O5  UNL     1      30.668  -2.074  -1.997  1.00  0.00    -0.390 OA
ATOM     34  H5  UNL     1      30.275  -2.509  -2.743  1.00  0.00     0.210 HD
ENDBRANCH   5  33
BRANCH   7  35
HETATM   35  O7  UNL     1      27.584   0.891  -3.860  1.00  0.00    -0.386 OA
ATOM     36  H7  UNL     1      27.642   1.705  -4.347  1.00  0.00     0.210 HD
ENDBRANCH   7  35
BRANCH   6  37
HETATM   37  O6  UNL     1      28.220  -1.501  -3.271  1.00  0.00    -0.390 OA
ATOM     38  H6  UNL     1      28.532  -1.885  -4.082  1.00  0.00     0.210 HD
ENDBRANCH   6  37
TORSDOF 11
ENDMDL