MODEL 4
REMARK VINA RESULT: -7.562512519      1.716      3.439
REMARK  11 active torsions:
REMARK  status: ('A' for Active; 'I' for Inactive)
REMARK    1  A    between atoms: C2_2  and  C3_3
REMARK    2  A    between atoms: C3_3  and  N1_4
REMARK    3  A    between atoms: N1_4  and  C4_6
REMARK    4  A    between atoms: C7_12  and  N3_13
REMARK    5  A    between atoms: N3_13  and  C8_15
REMARK    6  A    between atoms: C8_15  and  C9_16
REMARK    7  A    between atoms: C9_16  and  O1_17
REMARK    8  A    between atoms: O1_17  and  C10_18
REMARK    9  A    between atoms: C16_26  and  N5_27
REMARK   10  A    between atoms: C17_31  and  O3_32
REMARK   11  A    between atoms: C19_34  and  O4_35
ROOT
HETATM    1  C10 UNL     1      27.061   4.578   0.131  1.00  0.00     0.120 A
HETATM    2  C11 UNL     1      26.213   4.833   1.202  1.00  0.00     0.102 A
HETATM    3  C12 UNL     1      25.520   3.888   2.012  1.00  0.00     0.104 C
HETATM    4  N4  UNL     1      24.959   3.150   2.670  1.00  0.00    -0.191 NA
HETATM    5  C13 UNL     1      26.177   6.208   1.325  1.00  0.00     0.167 A
HETATM    6  O2  UNL     1      26.930   6.735   0.420  1.00  0.00    -0.323 OA
HETATM    7  C14 UNL     1      27.493   5.804  -0.336  1.00  0.00     0.083 A
HETATM    8  C15 UNL     1      28.411   6.119  -1.458  1.00  0.00     0.079 C
ENDROOT
BRANCH   1   9
HETATM    9  O1  UNL     1      27.420   3.347  -0.386  1.00  0.00    -0.344 OA
BRANCH   9  10
HETATM   10  C9  UNL     1      28.437   2.546   0.196  1.00  0.00     0.210 C
BRANCH  10  11
HETATM   11  C8  UNL     1      28.572   1.188  -0.438  1.00  0.00     0.091 C
HETATM   12  C16 UNL     1      28.905   1.517  -1.923  1.00  0.00     0.245 C
HETATM   13  C17 UNL     1      29.209   0.267  -2.689  1.00  0.00     0.182 C
HETATM   14  C19 UNL     1      29.650  -0.898  -1.873  1.00  0.00     0.150 C
HETATM   15  C20 UNL     1      30.474  -0.427  -0.733  1.00  0.00     0.045 C
HETATM   16  C21 UNL     1      29.777   0.523   0.198  1.00  0.00    -0.016 C
HETATM   17  C22 UNL     1      30.773   1.503   0.774  1.00  0.00     0.018 C
HETATM   18  C23 UNL     1      29.273  -0.290   1.370  1.00  0.00     0.018 C
BRANCH  11  19
HETATM   19  N3  UNL     1      27.529   0.340  -0.440  1.00  0.00    -0.361 N
ATOM     20  H3  UNL     1      27.786  -0.340  -1.156  1.00  0.00     0.162 HD
BRANCH  19  21
HETATM   21  C7  UNL     1      26.447  -0.063  -0.058  1.00  0.00     0.120 A
HETATM   22  C6  UNL     1      25.250   0.641  -0.023  1.00  0.00     0.091 A
HETATM   23  C5  UNL     1      24.088   0.073   0.428  1.00  0.00     0.122 A
HETATM   24  N2  UNL     1      24.058  -1.211   0.864  1.00  0.00    -0.181 N
HETATM   25 CL1  UNL     1      22.603   0.986   0.458  1.00  0.00    -0.064 Cl
HETATM   26  C4  UNL     1      25.199  -1.905   0.838  1.00  0.00     0.684 A
ATOM     27  H2  UNL     1      23.192  -1.633   1.200  1.00  0.00     0.185 HD
HETATM   28  N6  UNL     1      26.363  -1.330   0.384  1.00  0.00    -0.177 N
ATOM     29  H6  UNL     1      27.212  -1.897   0.382  1.00  0.00     0.186 HD
BRANCH  26  30
HETATM   30  N1  UNL     1      25.224  -3.120   1.235  1.00  0.00    -0.202 N
ATOM     31  H1  UNL     1      26.120  -3.464   1.582  1.00  0.00     0.183 HD
BRANCH  30  32
HETATM   32  C3  UNL     1      24.160  -4.032   1.246  1.00  0.00     0.105 C
BRANCH  32  33
HETATM   33  C2  UNL     1      24.608  -5.436   1.419  1.00  0.00     0.007 C
HETATM   34  C1  UNL     1      23.728  -6.384   1.644  1.00  0.00     0.012 C
ENDBRANCH  32  33
ENDBRANCH  30  32
ENDBRANCH  26  30
ENDBRANCH  19  21
ENDBRANCH  11  19
BRANCH  12  35
HETATM   35  N5  UNL     1      29.943   2.478  -2.050  1.00  0.00    -0.070 N
ATOM     36  H53 UNL     1      29.561   3.422  -2.126  1.00  0.00     0.274 HD
ATOM     37  H52 UNL     1      30.458   2.579  -1.175  1.00  0.00     0.274 HD
ATOM     38  H51 UNL     1      30.573   2.274  -2.825  1.00  0.00     0.274 HD
ENDBRANCH  12  35
BRANCH  13  39
HETATM   39  O3  UNL     1      28.122  -0.128  -3.453  1.00  0.00    -0.386 OA
HETATM   40  C18 UNL     1      27.507   0.960  -4.076  1.00  0.00     0.202 C
ENDBRANCH  13  39
BRANCH  14  41
HETATM   41  O4  UNL     1      30.497  -1.683  -2.693  1.00  0.00    -0.393 OA
ATOM     42  H4  UNL     1      31.150  -2.074  -2.125  1.00  0.00     0.210 HD
ENDBRANCH  14  41
ENDBRANCH  10  11
ENDBRANCH   9  10
ENDBRANCH   1   9
TORSDOF 11
ENDMDL