MODEL 4
REMARK VINA RESULT: -9.328502836      1.250      1.821
REMARK  10 active torsions:
REMARK  status: ('A' for Active; 'I' for Inactive)
REMARK    1  A    between atoms: N1_2  and  C1_4
REMARK    2  A    between atoms: C4_11  and  O3_12
REMARK    3  A    between atoms: C4_11  and  C5_14
REMARK    4  A    between atoms: C6_15  and  C7_16
REMARK    5  A    between atoms: C7_16  and  O4_17
REMARK    6  A    between atoms: C8_20  and  C9_21
REMARK    7  A    between atoms: C12_24  and  C13_25
REMARK    8  A    between atoms: C13_25  and  C14_26
REMARK    9  A    between atoms: C14_26  and  C15_27
REMARK   10  A    between atoms: C23_36  and  O6_37
ROOT
HETATM    1  C5  UNL     1      21.126   2.994   2.600  1.00  0.00     0.086 C
HETATM    2  C6  UNL     1      20.855   4.384   2.952  1.00  0.00     0.155 C
HETATM    3  O5  UNL     1      22.009   5.143   2.599  1.00  0.00    -0.371 OA
HETATM    4  C8  UNL     1      23.081   4.258   2.736  1.00  0.00     0.184 C
HETATM    5  C23 UNL     1      22.495   3.110   1.912  1.00  0.00     0.161 C
ENDROOT
BRANCH   4   6
HETATM    6  C9  UNL     1      24.229   4.882   2.023  1.00  0.00    -0.027 A
HETATM    7  C10 UNL     1      24.133   6.126   1.435  1.00  0.00     0.010 A
HETATM    8  C11 UNL     1      25.181   6.725   0.770  1.00  0.00     0.007 A
HETATM    9  C12 UNL     1      26.384   6.092   0.667  1.00  0.00    -0.058 A
HETATM   10  C21 UNL     1      26.498   4.838   1.256  1.00  0.00     0.007 A
HETATM   11  C22 UNL     1      25.444   4.236   1.923  1.00  0.00     0.010 A
BRANCH   9  12
HETATM   12  C13 UNL     1      27.541   6.697  -0.037  1.00  0.00     0.043 C
BRANCH  12  13
HETATM   13  C14 UNL     1      28.746   5.814  -0.103  1.00  0.00     0.043 C
BRANCH  13  14
HETATM   14  C15 UNL     1      28.625   4.702  -1.071  1.00  0.00    -0.058 A
HETATM   15  C16 UNL     1      28.500   4.939  -2.423  1.00  0.00     0.010 A
HETATM   16  C17 UNL     1      28.387   3.907  -3.334  1.00  0.00     0.043 A
HETATM   17  C18 UNL     1      28.394   2.594  -2.914  1.00  0.00     0.116 A
HETATM   18  F1  UNL     1      28.282   1.563  -3.799  1.00  0.00    -0.206 F
HETATM   19  C19 UNL     1      28.516   2.329  -1.573  1.00  0.00     0.043 A
HETATM   20  C20 UNL     1      28.630   3.379  -0.667  1.00  0.00     0.010 A
ENDBRANCH  13  14
ENDBRANCH  12  13
ENDBRANCH   9  12
ENDBRANCH   4   6
BRANCH   5  21
HETATM   21  O6  UNL     1      22.421   3.633   0.641  1.00  0.00    -0.392 OA
ATOM     22  H6  UNL     1      23.263   3.673   0.202  1.00  0.00     0.210 HD
ENDBRANCH   5  21
BRANCH   2  23
HETATM   23  C7  UNL     1      20.773   4.634   4.469  1.00  0.00     0.196 C
BRANCH  23  24
HETATM   24  O4  UNL     1      20.894   6.019   4.721  1.00  0.00    -0.398 OA
ATOM     25  H4  UNL     1      20.398   6.241   5.501  1.00  0.00     0.209 HD
ENDBRANCH  23  24
ENDBRANCH   2  23
BRANCH   1  26
HETATM   26  C4  UNL     1      20.258   2.182   1.784  1.00  0.00     0.106 C
HETATM   27  C3  UNL     1      19.103   1.457   2.294  1.00  0.00     0.292 C
HETATM   28  N2  UNL     1      19.436   0.148   2.882  1.00  0.00    -0.056 N
HETATM   29  S1  UNL     1      18.060   2.216   3.515  1.00  0.00    -0.059 SA
HETATM   30  C2  UNL     1      19.862  -0.790   1.906  1.00  0.00     0.265 C
ATOM     31  H22 UNL     1      18.656  -0.217   3.429  1.00  0.00     0.278 HD
ATOM     32  H21 UNL     1      20.126   0.244   3.627  1.00  0.00     0.278 HD
HETATM   33  C1  UNL     1      20.370  -0.075   0.672  1.00  0.00     0.184 C
HETATM   34  C24 UNL     1      21.163   1.120   1.110  1.00  0.00     0.074 C
BRANCH  33  35
HETATM   35  N1  UNL     1      21.243  -0.928  -0.077  1.00  0.00    -0.149 N
HETATM   36  O1  UNL     1      22.351  -0.498  -0.444  1.00  0.00    -0.536 OA
HETATM   37  O2  UNL     1      20.940  -2.222  -0.428  1.00  0.00    -0.536 OA
ENDBRANCH  33  35
BRANCH  26  38
HETATM   38  O3  UNL     1      19.819   2.942   0.667  1.00  0.00    -0.386 OA
ATOM     39  H3  UNL     1      19.537   2.327   0.000  1.00  0.00     0.210 HD
ENDBRANCH  26  38
ENDBRANCH   1  26
TORSDOF 10
ENDMDL