MODEL 1
REMARK VINA RESULT: -8.902182142      0.000      0.000
REMARK  13 active torsions:
REMARK  status: ('A' for Active; 'I' for Inactive)
REMARK    1  A    between atoms: C2_2  and  C3_3
REMARK    2  A    between atoms: C2_2  and  C4_8
REMARK    3  A    between atoms: C3_3  and  N1_4
REMARK    4  A    between atoms: C4_8  and  C5_9
REMARK    5  A    between atoms: C5_9  and  O2_11
REMARK    6  A    between atoms: O2_11  and  C6_12
REMARK    7  A    between atoms: C12_18  and  O3_19
REMARK    8  A    between atoms: O3_19  and  C13_20
REMARK    9  A    between atoms: C13_20  and  C14_22
REMARK   10  A    between atoms: C15_23  and  C16_24
REMARK   11  A    between atoms: C24_33  and  O5_34
REMARK   12  A    between atoms: C25_36  and  O6_37
REMARK   13  A    between atoms: C26_39  and  O7_40
ROOT
HETATM    1  C6  UNL     1      23.458   4.973   1.838  1.00  0.00     0.085 C
HETATM    2  C7  UNL     1      24.143   4.004   1.289  1.00  0.00     0.018 C
HETATM    3  C8  UNL     1      23.614   2.656   1.037  1.00  0.00     0.062 C
HETATM    4  C9  UNL     1      24.331   1.595   1.841  1.00  0.00    -0.007 C
HETATM    5  C10 UNL     1      25.814   1.726   1.465  1.00  0.00     0.018 C
HETATM    6  C11 UNL     1      24.211   1.733   3.312  1.00  0.00     0.018 C
HETATM    7  C12 UNL     1      23.892   0.252   1.302  1.00  0.00     0.163 C
HETATM    8  C22 UNL     1      22.435   0.115   1.418  1.00  0.00     0.005 C
HETATM    9  C23 UNL     1      21.674   1.176   1.298  1.00  0.00     0.012 C
HETATM   10  C24 UNL     1      22.134   2.567   1.047  1.00  0.00     0.112 C
HETATM   11  C25 UNL     1      21.457   3.461   2.032  1.00  0.00     0.192 C
HETATM   12  C26 UNL     1      22.073   4.780   2.256  1.00  0.00     0.207 C
ENDROOT
BRANCH   7  13
HETATM   13  O3  UNL     1      24.615  -0.812   1.865  1.00  0.00    -0.308 OA
BRANCH  13  14
HETATM   14  C13 UNL     1      24.856  -2.015   1.242  1.00  0.00     0.283 C
HETATM   15  O4  UNL     1      23.937  -2.880   1.298  1.00  0.00    -0.260 OA
BRANCH  14  16
HETATM   16  C14 UNL     1      26.111  -2.321   0.530  1.00  0.00     0.083 C
HETATM   17  C15 UNL     1      26.871  -1.343   0.121  1.00  0.00     0.017 C
BRANCH  17  18
HETATM   18  C16 UNL     1      28.123  -1.565  -0.588  1.00  0.00    -0.036 A
HETATM   19  C17 UNL     1      29.323  -1.078  -0.095  1.00  0.00     0.014 A
HETATM   20  C18 UNL     1      30.536  -1.240  -0.692  1.00  0.00     0.043 A
HETATM   21  C19 UNL     1      30.565  -1.951  -1.892  1.00  0.00     0.116 A
HETATM   22  F1  UNL     1      31.770  -2.116  -2.493  1.00  0.00    -0.206 F
HETATM   23  C20 UNL     1      29.403  -2.449  -2.414  1.00  0.00     0.043 A
HETATM   24  C21 UNL     1      28.191  -2.262  -1.774  1.00  0.00     0.014 A
ENDBRANCH  17  18
ENDBRANCH  14  16
ENDBRANCH  13  14
ENDBRANCH   7  13
BRANCH  10  25
HETATM   25  O5  UNL     1      21.617   2.899  -0.231  1.00  0.00    -0.382 OA
ATOM     26  H5  UNL     1      21.027   2.219  -0.532  1.00  0.00     0.211 HD
ENDBRANCH  10  25
BRANCH   1  27
HETATM   27  O2  UNL     1      24.063   6.247   2.041  1.00  0.00    -0.281 OA
BRANCH  27  28
HETATM   28  C5  UNL     1      24.857   6.694   0.972  1.00  0.00     0.264 C
HETATM   29  O1  UNL     1      24.284   7.039  -0.070  1.00  0.00    -0.265 OA
BRANCH  28  30
HETATM   30  C4  UNL     1      26.325   6.757   1.068  1.00  0.00     0.117 C
BRANCH  30  31
HETATM   31  C2  UNL     1      26.918   5.839   0.031  1.00  0.00     0.016 C
HETATM   32  C1  UNL     1      27.724   6.670  -0.935  1.00  0.00     0.012 C
BRANCH  31  33
HETATM   33  C3  UNL     1      27.757   4.745   0.663  1.00  0.00     0.234 C
BRANCH  33  34
HETATM   34  N1  UNL     1      28.209   3.843  -0.356  1.00  0.00    -0.079 N
ATOM     35  H13 UNL     1      27.448   3.285  -0.743  1.00  0.00     0.274 HD
ATOM     36  H12 UNL     1      28.480   4.331  -1.210  1.00  0.00     0.274 HD
ATOM     37  H11 UNL     1      28.962   3.264   0.014  1.00  0.00     0.274 HD
ENDBRANCH  33  34
ENDBRANCH  31  33
ENDBRANCH  30  31
ENDBRANCH  28  30
ENDBRANCH  27  28
ENDBRANCH   1  27
BRANCH  11  38
HETATM   38  O6  UNL     1      21.219   2.807   3.266  1.00  0.00    -0.389 OA
ATOM     39  H6  UNL     1      21.222   3.414   3.997  1.00  0.00     0.210 HD
ENDBRANCH  11  38
BRANCH  12  40
HETATM   40  O7  UNL     1      22.029   5.119   3.634  1.00  0.00    -0.386 OA
ATOM     41  H7  UNL     1      22.495   4.426   4.089  1.00  0.00     0.210 HD
ENDBRANCH  12  40
TORSDOF 13
ENDMDL