MODEL 5
REMARK VINA RESULT: -9.453315838      1.477      2.356
REMARK  11 active torsions:
REMARK  status: ('A' for Active; 'I' for Inactive)
REMARK    1  A    between atoms: O1_1  and  C1_3
REMARK    2  A    between atoms: C1_3  and  C2_4
REMARK    3  A    between atoms: C3_6  and  S1_7
REMARK    4  A    between atoms: S1_7  and  C4_8
REMARK    5  A    between atoms: C4_8  and  C5_9
REMARK    6  A    between atoms: C9_13  and  N1_14
REMARK    7  A    between atoms: C10_16  and  C11_17
REMARK    8  A    between atoms: C14_20  and  C15_21
REMARK    9  A    between atoms: C23_31  and  O4_32
REMARK   10  A    between atoms: C24_34  and  O5_35
REMARK   11  A    between atoms: C25_37  and  O6_38
ROOT
HETATM    1  C5  UNL     1      27.370  -1.126  -0.437  1.00  0.00     0.133 C
HETATM    2  C6  UNL     1      28.776  -1.455  -0.775  1.00  0.00     0.033 C
HETATM    3  C7  UNL     1      29.262  -0.371  -1.748  1.00  0.00     0.007 C
HETATM    4  C8  UNL     1      29.024   0.850  -1.255  1.00  0.00     0.054 C
HETATM    5  C9  UNL     1      28.362   0.909   0.084  1.00  0.00     0.220 C
HETATM    6  O3  UNL     1      27.266   0.099   0.235  1.00  0.00    -0.361 OA
ENDROOT
BRANCH   1   7
HETATM    7  C4  UNL     1      26.530  -2.219   0.081  1.00  0.00     0.108 C
BRANCH   7   8
HETATM    8  S1  UNL     1      25.583  -2.020   1.545  1.00  0.00    -0.132 SA
BRANCH   8   9
HETATM    9  C3  UNL     1      24.045  -1.166   1.497  1.00  0.00     0.214 C
HETATM   10  O2  UNL     1      23.017  -1.806   0.877  1.00  0.00    -0.363 OA
HETATM   11  C2  UNL     1      21.759  -1.334   1.239  1.00  0.00     0.178 C
HETATM   12  C25 UNL     1      21.798   0.025   1.854  1.00  0.00     0.180 C
HETATM   13  C24 UNL     1      22.836   0.940   1.300  1.00  0.00     0.181 C
HETATM   14  C23 UNL     1      24.160   0.272   1.005  1.00  0.00     0.188 C
BRANCH  11  15
HETATM   15  C1  UNL     1      20.865  -1.451   0.036  1.00  0.00     0.198 C
BRANCH  15  16
HETATM   16  O1  UNL     1      21.132  -0.551  -0.964  1.00  0.00    -0.398 OA
ATOM     17  H1  UNL     1      21.268  -0.940  -1.820  1.00  0.00     0.209 HD
ENDBRANCH  15  16
ENDBRANCH  11  15
BRANCH  12  18
HETATM   18  O6  UNL     1      20.547   0.633   1.642  1.00  0.00    -0.390 OA
ATOM     19  H6  UNL     1      19.947  -0.034   1.327  1.00  0.00     0.210 HD
ENDBRANCH  12  18
BRANCH  13  20
HETATM   20  O5  UNL     1      22.377   1.655   0.176  1.00  0.00    -0.390 OA
ATOM     21  H5  UNL     1      21.560   2.100   0.371  1.00  0.00     0.210 HD
ENDBRANCH  13  20
BRANCH  14  22
HETATM   22  O4  UNL     1      24.406   0.381  -0.340  1.00  0.00    -0.389 OA
ATOM     23  H4  UNL     1      23.829   0.988  -0.788  1.00  0.00     0.210 HD
ENDBRANCH  14  22
ENDBRANCH   8   9
ENDBRANCH   7   8
ENDBRANCH   1   7
BRANCH   5  24
HETATM   24  N1  UNL     1      27.924   2.279   0.274  1.00  0.00    -0.372 N
HETATM   25  C10 UNL     1      28.288   3.274  -0.461  1.00  0.00     0.096 C
ATOM     26  H1  UNL     1      27.281   2.468   1.044  1.00  0.00     0.161 HD
BRANCH  25  27
HETATM   27  C11 UNL     1      27.725   4.577  -0.094  1.00  0.00    -0.021 A
HETATM   28  C12 UNL     1      28.182   5.761  -0.629  1.00  0.00     0.013 A
HETATM   29  C13 UNL     1      27.620   6.954  -0.252  1.00  0.00     0.013 A
HETATM   30  C14 UNL     1      26.590   6.987   0.669  1.00  0.00    -0.026 A
HETATM   31  C21 UNL     1      26.145   5.794   1.194  1.00  0.00     0.013 A
HETATM   32  C22 UNL     1      26.695   4.574   0.830  1.00  0.00     0.013 A
BRANCH  30  33
HETATM   33  C15 UNL     1      26.011   8.263   1.054  1.00  0.00    -0.026 A
HETATM   34  C16 UNL     1      26.770   9.399   0.900  1.00  0.00     0.015 A
HETATM   35  C17 UNL     1      26.253  10.639   1.256  1.00  0.00     0.043 A
HETATM   36  C18 UNL     1      24.979  10.771   1.770  1.00  0.00     0.116 A
HETATM   37  F1  UNL     1      24.489  11.978   2.111  1.00  0.00    -0.206 F
HETATM   38  C19 UNL     1      24.227   9.626   1.921  1.00  0.00     0.043 A
HETATM   39  C20 UNL     1      24.739   8.387   1.566  1.00  0.00     0.015 A
ENDBRANCH  30  33
ENDBRANCH  25  27
ENDBRANCH   5  24
TORSDOF 11
ENDMDL