MODEL 5
REMARK VINA RESULT: -7.991734793      1.392      1.667
REMARK  13 active torsions:
REMARK  status: ('A' for Active; 'I' for Inactive)
REMARK    1  A    between atoms: C3_5  and  C4_6
REMARK    2  A    between atoms: C5_7  and  C6_8
REMARK    3  A    between atoms: C6_8  and  C7_9
REMARK    4  A    between atoms: C7_9  and  C8_10
REMARK    5  A    between atoms: C8_10  and  C9_11
REMARK    6  A    between atoms: C9_11  and  C10_12
REMARK    7  A    between atoms: N3_21  and  C15_22
REMARK    8  A    between atoms: C16_24  and  C17_25
REMARK    9  A    between atoms: C17_25  and  O2_26
REMARK   10  A    between atoms: C17_25  and  C18_28
REMARK   11  A    between atoms: C18_28  and  O3_29
REMARK   12  A    between atoms: C19_31  and  O4_32
REMARK   13  A    between atoms: C20_34  and  O5_35
ROOT
HETATM    1  C1  UNL     1      28.319   6.162  -0.763  1.00  0.00     0.069 C
HETATM    2  C2  UNL     1      27.998   4.842  -0.212  1.00  0.00     0.023 A
HETATM    3  N1  UNL     1      28.766   3.750  -0.377  1.00  0.00    -0.338 N
ATOM      4  H1  UNL     1      29.626   3.838  -0.917  1.00  0.00     0.168 HD
HETATM    5  C3  UNL     1      28.450   2.547   0.139  1.00  0.00     0.163 A
HETATM    6  N2  UNL     1      27.321   2.399   0.857  1.00  0.00    -0.320 N
ATOM      7  H2  UNL     1      27.077   1.490   1.250  1.00  0.00     0.169 HD
HETATM    8  C11 UNL     1      26.504   3.477   1.056  1.00  0.00     0.125 A
HETATM    9  C12 UNL     1      26.819   4.714   0.531  1.00  0.00     0.050 A
HETATM   10  C13 UNL     1      25.820   5.567   0.898  1.00  0.00     0.043 A
HETATM   11  S1  UNL     1      25.770   7.298   0.458  1.00  0.00    -0.050 SA
HETATM   12  C14 UNL     1      24.926   4.831   1.635  1.00  0.00     0.116 A
HETATM   13  N3  UNL     1      25.335   3.552   1.737  1.00  0.00    -0.311 N
ENDROOT
BRANCH  13  14
HETATM   14  C15 UNL     1      24.678   2.457   2.428  1.00  0.00     0.261 C
HETATM   15  O1  UNL     1      24.939   1.286   1.718  1.00  0.00    -0.353 OA
HETATM   16  C16 UNL     1      23.965   0.372   2.042  1.00  0.00     0.186 C
HETATM   17  C19 UNL     1      22.754   1.115   2.502  1.00  0.00     0.182 C
HETATM   18  C20 UNL     1      23.174   2.583   2.400  1.00  0.00     0.198 C
BRANCH  16  19
HETATM   19  C17 UNL     1      23.641  -0.471   0.813  1.00  0.00     0.173 C
BRANCH  19  20
HETATM   20  O2  UNL     1      24.825  -0.587   0.095  1.00  0.00    -0.391 OA
ATOM     21  H2  UNL     1      25.457  -0.986   0.682  1.00  0.00     0.210 HD
ENDBRANCH  19  20
BRANCH  19  22
HETATM   22  C18 UNL     1      22.617   0.258  -0.030  1.00  0.00     0.198 C
BRANCH  22  23
HETATM   23  O3  UNL     1      22.731  -0.050  -1.368  1.00  0.00    -0.398 OA
ATOM     24  H3  UNL     1      22.034  -0.623  -1.666  1.00  0.00     0.209 HD
ENDBRANCH  22  23
ENDBRANCH  19  22
ENDBRANCH  16  19
BRANCH  17  25
HETATM   25  O4  UNL     1      22.519   0.765   3.838  1.00  0.00    -0.390 OA
ATOM     26  H4  UNL     1      21.974   1.442   4.223  1.00  0.00     0.210 HD
ENDBRANCH  17  25
BRANCH  18  27
HETATM   27  O5  UNL     1      22.736   3.203   3.558  1.00  0.00    -0.388 OA
ATOM     28  H5  UNL     1      23.470   3.338   4.147  1.00  0.00     0.210 HD
ENDBRANCH  18  27
ENDBRANCH  13  14
BRANCH   5  29
HETATM   29  C4  UNL     1      29.318   1.399  -0.069  1.00  0.00    -0.030 C
HETATM   30  C5  UNL     1      30.043   0.447  -0.222  1.00  0.00    -0.098 C
BRANCH  30  31
HETATM   31  C6  UNL     1      30.928  -0.700  -0.386  1.00  0.00     0.094 C
BRANCH  31  32
HETATM   32  C7  UNL     1      30.191  -1.935  -0.823  1.00  0.00     0.012 C
BRANCH  32  33
HETATM   33  C8  UNL     1      30.335  -2.140  -2.329  1.00  0.00     0.002 C
BRANCH  33  34
HETATM   34  C9  UNL     1      29.154  -1.611  -3.078  1.00  0.00     0.011 C
BRANCH  34  35
HETATM   35  C10 UNL     1      29.472  -0.348  -3.848  1.00  0.00     0.085 C
HETATM   36 BR1  UNL     1      28.074   0.930  -3.488  1.00  0.00    -0.097 Br
ENDBRANCH  34  35
ENDBRANCH  33  34
ENDBRANCH  32  33
ENDBRANCH  31  32
ENDBRANCH  30  31
ENDBRANCH   5  29
TORSDOF 13
ENDMDL