MODEL 4
REMARK VINA RESULT: -8.540793894      1.002      1.729
REMARK  13 active torsions:
REMARK  status: ('A' for Active; 'I' for Inactive)
REMARK    1  A    between atoms: C2_2  and  C3_3
REMARK    2  A    between atoms: C3_3  and  C4_4
REMARK    3  A    between atoms: C4_4  and  C5_5
REMARK    4  A    between atoms: C5_5  and  C6_6
REMARK    5  A    between atoms: C7_7  and  C8_8
REMARK    6  A    between atoms: N2_12  and  C10_14
REMARK    7  A    between atoms: C10_14  and  C11_15
REMARK    8  A    between atoms: C11_15  and  O1_16
REMARK    9  A    between atoms: N3_29  and  C22_30
REMARK   10  A    between atoms: C23_32  and  C24_33
REMARK   11  A    between atoms: C24_33  and  O3_34
REMARK   12  A    between atoms: C25_36  and  O4_37
REMARK   13  A    between atoms: C26_39  and  O5_40
ROOT
HETATM    1  C8  UNL     1      26.920   1.854  -0.049  1.00  0.00     0.167 A
HETATM    2  N1  UNL     1      25.942   2.223   0.785  1.00  0.00    -0.319 N
ATOM      3  H1  UNL     1      25.722   3.212   0.909  1.00  0.00     0.169 HD
HETATM    4  C9  UNL     1      25.230   1.264   1.480  1.00  0.00     0.144 A
HETATM    5  N2  UNL     1      24.301   1.639   2.269  1.00  0.00    -0.371 N
ATOM      6  H2  UNL     1      24.160   2.647   2.321  1.00  0.00     0.161 HD
HETATM    7  C20 UNL     1      25.535  -0.062   1.308  1.00  0.00     0.175 A
HETATM    8  F1  UNL     1      24.892  -1.057   1.946  1.00  0.00    -0.201 F
HETATM    9  C21 UNL     1      26.541  -0.422   0.450  1.00  0.00     0.142 A
HETATM   10  N3  UNL     1      27.215   0.551  -0.213  1.00  0.00    -0.303 N
ENDROOT
BRANCH   5  11
HETATM   11  C10 UNL     1      23.441   0.873   3.081  1.00  0.00     0.159 C
BRANCH  11  12
HETATM   12  C11 UNL     1      21.980   0.948   2.578  1.00  0.00     0.075 C
HETATM   13  C12 UNL     1      21.125   0.351   3.647  1.00  0.00     0.043 C
HETATM   14  C13 UNL     1      19.660   0.573   3.451  1.00  0.00    -0.015 C
HETATM   15  C14 UNL     1      18.964   0.154   4.750  1.00  0.00     0.010 C
HETATM   16  C15 UNL     1      19.326   2.026   3.239  1.00  0.00     0.013 C
HETATM   17  C16 UNL     1      20.182   2.600   2.120  1.00  0.00    -0.045 C
HETATM   18  C17 UNL     1      19.869   4.074   2.034  1.00  0.00     0.015 C
HETATM   19  C18 UNL     1      19.765   1.969   0.821  1.00  0.00     0.015 C
HETATM   20  C19 UNL     1      21.634   2.403   2.430  1.00  0.00     0.048 C
BRANCH  12  21
HETATM   21  O1  UNL     1      21.919   0.261   1.368  1.00  0.00    -0.388 OA
ATOM     22  H1  UNL     1      22.492  -0.493   1.441  1.00  0.00     0.210 HD
ENDBRANCH  12  21
ENDBRANCH  11  12
ENDBRANCH   5  11
BRANCH   1  23
HETATM   23  C7  UNL     1      27.654   2.891  -0.768  1.00  0.00    -0.030 C
HETATM   24  C6  UNL     1      28.242   3.756  -1.370  1.00  0.00    -0.098 C
BRANCH  24  25
HETATM   25  C5  UNL     1      28.935   4.818  -2.108  1.00  0.00     0.094 C
BRANCH  25  26
HETATM   26  C4  UNL     1      28.266   6.117  -1.747  1.00  0.00     0.012 C
BRANCH  26  27
HETATM   27  C3  UNL     1      28.347   6.408  -0.279  1.00  0.00     0.000 C
BRANCH  27  28
HETATM   28  C2  UNL     1      27.032   6.990   0.183  1.00  0.00    -0.005 C
HETATM   29  C1  UNL     1      26.224   5.931   0.941  1.00  0.00     0.005 C
ENDBRANCH  27  28
ENDBRANCH  26  27
ENDBRANCH  25  26
ENDBRANCH  24  25
ENDBRANCH   1  23
BRANCH  10  30
HETATM   30  C22 UNL     1      28.270   0.197  -1.115  1.00  0.00     0.261 C
HETATM   31  O2  UNL     1      27.888  -0.939  -1.796  1.00  0.00    -0.353 OA
HETATM   32  C23 UNL     1      28.868  -1.886  -1.710  1.00  0.00     0.179 C
HETATM   33  C25 UNL     1      29.816  -1.504  -0.623  1.00  0.00     0.182 C
HETATM   34  C26 UNL     1      29.591  -0.038  -0.469  1.00  0.00     0.198 C
BRANCH  32  35
HETATM   35  C24 UNL     1      29.611  -2.048  -3.037  1.00  0.00     0.198 C
BRANCH  35  36
HETATM   36  O3  UNL     1      30.026  -3.341  -3.235  1.00  0.00    -0.398 OA
ATOM     37  H3  UNL     1      29.291  -3.936  -3.332  1.00  0.00     0.209 HD
ENDBRANCH  35  36
ENDBRANCH  32  35
BRANCH  33  38
HETATM   38  O4  UNL     1      31.121  -1.772  -1.081  1.00  0.00    -0.390 OA
ATOM     39  H4  UNL     1      31.229  -2.715  -1.105  1.00  0.00     0.210 HD
ENDBRANCH  33  38
BRANCH  34  40
HETATM   40  O5  UNL     1      29.672   0.413   0.842  1.00  0.00    -0.388 OA
ATOM     41  H5  UNL     1      29.633  -0.277   1.494  1.00  0.00     0.210 HD
ENDBRANCH  34  40
ENDBRANCH  10  30
TORSDOF 13
ENDMDL