MODEL 1
REMARK VINA RESULT: -9.212768498      0.000      0.000
REMARK  10 active torsions:
REMARK  status: ('A' for Active; 'I' for Inactive)
REMARK    1  A    between atoms: N1_2  and  C2_5
REMARK    2  A    between atoms: C2_5  and  N2_6
REMARK    3  A    between atoms: C2_5  and  C3_10
REMARK    4  A    between atoms: C6_13  and  S1_14
REMARK    5  A    between atoms: S1_14  and  N3_15
REMARK    6  A    between atoms: C7_20  and  N4_21
REMARK    7  A    between atoms: N5_23  and  C8_25
REMARK    8  A    between atoms: C11_28  and  S2_29
REMARK    9  A    between atoms: S2_29  and  N6_32
REMARK   10  A    between atoms: N6_32  and  C12_34
ROOT
HETATM    1  N4  UNL     1      25.221   0.286   0.686  1.00  0.00    -0.299 N
ATOM      2  H4  UNL     1      24.385   0.185   0.110  1.00  0.00     0.187 HD
HETATM    3  N5  UNL     1      25.533  -0.685   1.403  1.00  0.00    -0.300 N
ATOM      4  H5  UNL     1      26.358  -0.647   2.002  1.00  0.00     0.187 HD
ENDROOT
BRANCH   1   5
HETATM    5  C7  UNL     1      25.914   1.512   0.593  1.00  0.00     0.072 A
HETATM    6  C6  UNL     1      25.414   2.582   1.307  1.00  0.00     0.107 A
HETATM    7  C5  UNL     1      26.051   3.785   1.245  1.00  0.00     0.028 A
HETATM    8  C4  UNL     1      27.199   3.933   0.467  1.00  0.00     0.013 A
HETATM    9  C3  UNL     1      27.730   2.883  -0.262  1.00  0.00     0.001 A
HETATM   10  C19 UNL     1      27.062   1.678  -0.179  1.00  0.00     0.043 A
BRANCH   6  11
HETATM   11  S1  UNL     1      23.976   2.423   2.289  1.00  0.00     0.259 S
HETATM   12  O1  UNL     1      24.165   1.384   3.330  1.00  0.00    -0.201 OA
HETATM   13  O2  UNL     1      22.831   1.994   1.390  1.00  0.00    -0.201 OA
BRANCH  11  14
HETATM   14  N3  UNL     1      23.502   3.955   2.960  1.00  0.00    -0.324 N
ATOM     15  H32 UNL     1      23.349   4.794   2.399  1.00  0.00     0.169 HD
ATOM     16  H31 UNL     1      23.400   3.898   3.973  1.00  0.00     0.169 HD
ENDBRANCH  11  14
ENDBRANCH   6  11
BRANCH   9  17
HETATM   17  C2  UNL     1      28.940   3.022  -1.087  1.00  0.00     0.413 C
BRANCH  17  18
HETATM   18  N1  UNL     1      28.666   2.975  -2.505  1.00  0.00    -0.046 N
HETATM   19  C1  UNL     1      28.497   4.350  -2.954  1.00  0.00     0.269 C
ATOM     20  H12 UNL     1      27.873   2.378  -2.739  1.00  0.00     0.279 HD
ATOM     21  H11 UNL     1      29.375   2.466  -3.033  1.00  0.00     0.279 HD
ENDBRANCH  17  18
BRANCH  17  22
HETATM   22  N2  UNL     1      29.860   1.939  -0.728  1.00  0.00    -0.046 N
ATOM     23  H23 UNL     1      29.482   1.021  -0.960  1.00  0.00     0.277 HD
ATOM     24  H22 UNL     1      30.681   1.917  -1.332  1.00  0.00     0.277 HD
ATOM     25  H21 UNL     1      30.109   2.015   0.258  1.00  0.00     0.277 HD
ENDBRANCH  17  22
ENDBRANCH   9  17
ENDBRANCH   1   5
BRANCH   3  26
HETATM   26  C8  UNL     1      24.712  -1.844   1.367  1.00  0.00     0.048 A
HETATM   27  C9  UNL     1      25.319  -3.073   1.411  1.00  0.00     0.032 A
HETATM   28  C10 UNL     1      24.548  -4.223   1.378  1.00  0.00     0.027 A
HETATM   29  C11 UNL     1      23.177  -4.158   1.301  1.00  0.00     0.080 A
HETATM   30  C17 UNL     1      22.579  -2.923   1.257  1.00  0.00     0.027 A
HETATM   31  C18 UNL     1      23.340  -1.759   1.290  1.00  0.00     0.032 A
BRANCH  29  32
HETATM   32  S2  UNL     1      22.250  -5.617   1.261  1.00  0.00     0.264 S
HETATM   33  O3  UNL     1      21.925  -6.050   2.666  1.00  0.00    -0.200 OA
HETATM   34  O4  UNL     1      20.960  -5.287   0.529  1.00  0.00    -0.200 OA
BRANCH  32  35
HETATM   35  N6  UNL     1      23.044  -6.865   0.384  1.00  0.00    -0.266 N
ATOM     36  H6  UNL     1      23.443  -7.663   0.880  1.00  0.00     0.180 HD
BRANCH  35  37
HETATM   37  C12 UNL     1      23.134  -6.794  -0.885  1.00  0.00     0.114 A
HETATM   38  C13 UNL     1      24.210  -6.304  -1.578  1.00  0.00     0.052 A
HETATM   39  C14 UNL     1      24.214  -6.266  -2.971  1.00  0.00     0.047 A
HETATM   40  C15 UNL     1      23.117  -6.730  -3.659  1.00  0.00     0.131 A
HETATM   41  F1  UNL     1      23.080  -6.711  -5.031  1.00  0.00    -0.205 F
HETATM   42  C16 UNL     1      22.049  -7.216  -2.943  1.00  0.00     0.132 A
HETATM   43  N7  UNL     1      22.075  -7.241  -1.602  1.00  0.00    -0.349 N
ATOM     44  H7  UNL     1      21.266  -7.610  -1.103  1.00  0.00     0.167 HD
ENDBRANCH  35  37
ENDBRANCH  32  35
ENDBRANCH  29  32
ENDBRANCH   3  26
TORSDOF 10
ENDMDL