MODEL 5
REMARK VINA RESULT: -7.414575583      1.550      2.205
REMARK  11 active torsions:
REMARK  status: ('A' for Active; 'I' for Inactive)
REMARK    1  A    between atoms: C2_2  and  O1_5
REMARK    2  A    between atoms: O1_5  and  C5_6
REMARK    3  A    between atoms: C8_10  and  C9_11
REMARK    4  A    between atoms: C10_12  and  C11_13
REMARK    5  A    between atoms: C11_13  and  C12_14
REMARK    6  A    between atoms: C12_14  and  C13_15
REMARK    7  A    between atoms: C18_22  and  C19_23
REMARK    8  A    between atoms: C19_23  and  C20_24
REMARK    9  A    between atoms: C21_27  and  C22_28
REMARK   10  A    between atoms: C22_28  and  O5_29
REMARK   11  A    between atoms: C23_31  and  C24_32
ROOT
HETATM    1  C5  UNL     1      12.812  16.688   5.341  1.00  0.00     0.275 C
HETATM    2  O2  UNL     1      13.755  16.342   4.434  1.00  0.00    -0.355 OA
HETATM    3  C6  UNL     1      14.976  15.956   4.766  1.00  0.00     0.132 C
HETATM    4  C7  UNL     1      15.942  17.120   4.743  1.00  0.00     0.041 C
HETATM    5  C8  UNL     1      15.689  17.959   5.971  1.00  0.00     0.016 C
HETATM    6  C17 UNL     1      14.712  17.306   6.868  1.00  0.00     0.017 C
HETATM    7  C18 UNL     1      15.082  15.889   7.209  1.00  0.00     0.010 C
HETATM    8  C21 UNL     1      15.199  15.084   5.969  1.00  0.00     0.043 C
HETATM    9  C23 UNL     1      13.277  17.518   6.474  1.00  0.00     0.147 C
ENDROOT
BRANCH   5  10
HETATM   10  C9  UNL     1      16.988  18.118   6.690  1.00  0.00    -0.024 C
HETATM   11  C10 UNL     1      18.155  17.991   6.086  1.00  0.00    -0.013 C
BRANCH  11  12
HETATM   12  C11 UNL     1      19.427  18.151   6.814  1.00  0.00     0.036 A
HETATM   13  C14 UNL     1      19.501  17.425   8.136  1.00  0.00     0.050 A
HETATM   14  C15 UNL     1      20.574  16.533   7.627  1.00  0.00     0.013 A
HETATM   15  C16 UNL     1      20.498  17.185   6.458  1.00  0.00     0.103 A
HETATM   16  F2  UNL     1      21.199  17.002   5.307  1.00  0.00    -0.210 F
BRANCH  12  17
HETATM   17  C12 UNL     1      19.860  19.573   6.923  1.00  0.00     0.052 C
BRANCH  17  18
HETATM   18  C13 UNL     1      19.713  20.364   5.661  1.00  0.00     0.223 C
HETATM   19  F1  UNL     1      20.813  20.019   4.861  1.00  0.00    -0.255 F
ENDBRANCH  17  18
ENDBRANCH  12  17
ENDBRANCH  11  12
ENDBRANCH   5  10
BRANCH   7  20
HETATM   20  C19 UNL     1      14.086  15.361   8.224  1.00  0.00     0.118 C
BRANCH  20  21
HETATM   21  C20 UNL     1      14.162  13.912   8.392  1.00  0.00     0.172 C
HETATM   22  O3  UNL     1      13.145  13.191   8.099  1.00  0.00    -0.648 OA
HETATM   23  O4  UNL     1      15.279  13.234   8.854  1.00  0.00    -0.648 OA
ENDBRANCH  20  21
ENDBRANCH   7  20
BRANCH   9  24
HETATM   24  C24 UNL     1      13.164  18.985   6.234  1.00  0.00     0.182 C
HETATM   25  O6  UNL     1      13.749  19.641   5.377  1.00  0.00    -0.648 OA
HETATM   26  O7  UNL     1      12.293  19.666   7.091  1.00  0.00    -0.648 OA
ENDBRANCH   9  24
BRANCH   8  27
HETATM   27  C22 UNL     1      16.594  14.462   5.880  1.00  0.00     0.171 C
BRANCH  27  28
HETATM   28  O5  UNL     1      17.354  14.597   7.012  1.00  0.00    -0.400 OA
ATOM     29  H5  UNL     1      17.228  15.414   7.479  1.00  0.00     0.209 HD
ENDBRANCH  27  28
ENDBRANCH   8  27
BRANCH   1  30
HETATM   30  O1  UNL     1      11.853  17.420   4.641  1.00  0.00    -0.351 OA
BRANCH  30  31
HETATM   31  C2  UNL     1      10.579  16.970   4.686  1.00  0.00     0.053 C
HETATM   32  C1  UNL     1       9.622  17.944   5.342  1.00  0.00     0.045 C
HETATM   33  C3  UNL     1      10.409  15.579   5.246  1.00  0.00     0.045 C
HETATM   34  C4  UNL     1      10.116  16.868   3.220  1.00  0.00     0.045 C
ENDBRANCH  30  31
ENDBRANCH   1  30
TORSDOF 11
ENDMDL