MODEL 5
REMARK VINA RESULT: -9.165764599      2.456      3.892
REMARK  9 active torsions:
REMARK  status: ('A' for Active; 'I' for Inactive)
REMARK    1  A    between atoms: C2_2  and  C4_4
REMARK    2  A    between atoms: C4_4  and  C5_5
REMARK    3  A    between atoms: C4_4  and  C23_30
REMARK       I    between atoms: C5_5  and  N1_7
REMARK    4  A    between atoms: N1_7  and  C6_9
REMARK    5  A    between atoms: C6_9  and  C7_10
REMARK    6  A    between atoms: C9_12  and  C10_13
REMARK    7  A    between atoms: C10_13  and  C11_14
REMARK    8  A    between atoms: C11_14  and  C12_15
REMARK    9  A    between atoms: C12_15  and  O2_18
ROOT
HETATM    1  C7  UNL     1      17.102  17.629   5.155  1.00  0.00    -0.004 C
HETATM    2  C8  UNL     1      17.866  17.196   6.155  1.00  0.00    -0.072 C
HETATM    3  C9  UNL     1      18.314  15.769   6.419  1.00  0.00     0.023 C
HETATM    4  C15 UNL     1      19.490  16.370   7.150  1.00  0.00    -0.029 C
HETATM    5  C16 UNL     1      19.847  15.692   8.453  1.00  0.00     0.016 C
HETATM    6  C17 UNL     1      20.637  16.583   6.245  1.00  0.00     0.016 C
HETATM    7  C18 UNL     1      20.746  17.911   5.599  1.00  0.00     0.080 C
HETATM    8  C19 UNL     1      20.445  19.054   6.505  1.00  0.00     0.247 C
HETATM    9  F1  UNL     1      20.198  20.183   5.710  1.00  0.00    -0.206 F
HETATM   10  F2  UNL     1      21.636  19.374   7.174  1.00  0.00    -0.206 F
HETATM   11  C20 UNL     1      19.321  18.849   7.461  1.00  0.00     0.063 C
HETATM   12  C21 UNL     1      19.936  18.866   8.877  1.00  0.00     0.017 C
HETATM   13  C22 UNL     1      18.604  17.566   7.348  1.00  0.00     0.033 C
ENDROOT
BRANCH   1  14
HETATM   14  C6  UNL     1      16.693  19.042   4.944  1.00  0.00     0.150 C
BRANCH  14  15
HETATM   15  N1  UNL     1      15.381  19.302   5.535  1.00  0.00    -0.357 N
HETATM   16  C5  UNL     1      14.238  18.654   5.019  1.00  0.00     0.230 C
HETATM   17  O1  UNL     1      14.382  17.855   4.049  1.00  0.00    -0.273 OA
ATOM     18  H1  UNL     1      15.292  19.949   6.317  1.00  0.00     0.162 HD
BRANCH  16  19
HETATM   19  C4  UNL     1      12.885  18.864   5.553  1.00  0.00     0.158 C
BRANCH  19  20
HETATM   20  C2  UNL     1      12.573  18.075   6.788  1.00  0.00    -0.002 C
HETATM   21  C1  UNL     1      11.303  17.277   6.478  1.00  0.00     0.011 C
HETATM   22  C3  UNL     1      13.693  17.111   7.143  1.00  0.00     0.011 C
ENDBRANCH  19  20
BRANCH  19  23
HETATM   23  C23 UNL     1      12.705  20.317   5.912  1.00  0.00     0.157 A
HETATM   24  N2  UNL     1      12.260  20.796   7.084  1.00  0.00    -0.278 N
HETATM   25  N3  UNL     1      12.234  22.117   7.030  1.00  0.00    -0.243 N
ATOM     26  H2  UNL     1      11.985  20.232   7.889  1.00  0.00     0.189 HD
HETATM   27  C24 UNL     1      12.675  22.413   5.795  1.00  0.00     0.385 A
ATOM     28  H3  UNL     1      11.945  22.766   7.762  1.00  0.00     0.192 HD
HETATM   29  O3  UNL     1      12.783  23.602   5.387  1.00  0.00    -0.236 OA
HETATM   30  O4  UNL     1      12.952  21.317   5.137  1.00  0.00    -0.245 OA
ENDBRANCH  19  23
ENDBRANCH  16  19
ENDBRANCH  14  15
ENDBRANCH   1  14
BRANCH   3  31
HETATM   31  C10 UNL     1      17.386  15.035   7.361  1.00  0.00     0.013 C
BRANCH  31  32
HETATM   32  C11 UNL     1      16.439  14.116   6.609  1.00  0.00     0.038 C
BRANCH  32  33
HETATM   33  C12 UNL     1      15.924  13.112   7.646  1.00  0.00     0.051 C
HETATM   34  C13 UNL     1      14.848  13.795   8.489  1.00  0.00     0.045 C
HETATM   35  C14 UNL     1      17.008  12.665   8.578  1.00  0.00     0.045 C
BRANCH  33  36
HETATM   36  O2  UNL     1      15.394  11.990   7.012  1.00  0.00    -0.391 OA
ATOM     37  H2  UNL     1      14.791  11.537   7.591  1.00  0.00     0.210 HD
ENDBRANCH  33  36
ENDBRANCH  32  33
ENDBRANCH  31  32
ENDBRANCH   3  31
TORSDOF 9
ENDMDL