MODEL 2
REMARK VINA RESULT: -9.558993777      3.960      8.066
REMARK  9 active torsions:
REMARK  status: ('A' for Active; 'I' for Inactive)
REMARK    1  A    between atoms: C1_2  and  C2_4
REMARK    2  A    between atoms: C2_4  and  C3_5
REMARK    3  A    between atoms: C3_5  and  N1_6
REMARK    4  A    between atoms: C3_5  and  C23_33
REMARK       I    between atoms: N1_6  and  C4_8
REMARK    5  A    between atoms: C4_8  and  C5_10
REMARK    6  A    between atoms: C8_13  and  N2_14
REMARK    7  A    between atoms: N2_14  and  C9_16
REMARK    8  A    between atoms: N4_27  and  C18_28
REMARK    9  A    between atoms: C23_33  and  C24_35
ROOT
HETATM    1  C5  UNL     1      16.493  16.887   5.380  1.00  0.00     0.104 A
HETATM    2  C6  UNL     1      17.706  16.632   5.995  1.00  0.00     0.053 A
HETATM    3  C7  UNL     1      18.430  17.797   5.945  1.00  0.00     0.037 A
HETATM    4  C8  UNL     1      19.708  18.133   6.398  1.00  0.00     0.114 A
HETATM    5  N3  UNL     1      20.200  19.364   6.221  1.00  0.00    -0.352 N
ATOM      6  H3  UNL     1      21.134  19.608   6.551  1.00  0.00     0.166 HD
HETATM    7  C15 UNL     1      19.438  20.260   5.603  1.00  0.00     0.092 A
HETATM    8  C16 UNL     1      18.159  19.990   5.128  1.00  0.00     0.048 A
HETATM    9  C17 UNL     1      17.659  18.725   5.310  1.00  0.00     0.050 A
HETATM   10  N4  UNL     1      16.462  18.157   4.963  1.00  0.00    -0.337 N
ENDROOT
BRANCH   1  11
HETATM   11  C4  UNL     1      15.475  15.832   5.256  1.00  0.00     0.269 C
HETATM   12  N1  UNL     1      14.959  15.231   6.428  1.00  0.00    -0.344 N
ATOM     13  H1  UNL     1      15.287  15.528   7.348  1.00  0.00     0.163 HD
HETATM   14  O3  UNL     1      15.089  15.487   4.120  1.00  0.00    -0.266 OA
BRANCH  12  15
HETATM   15  C3  UNL     1      13.943  14.171   6.306  1.00  0.00     0.170 C
BRANCH  15  16
HETATM   16  C2  UNL     1      12.637  14.854   6.557  1.00  0.00     0.146 C
BRANCH  16  17
HETATM   17  C1  UNL     1      12.568  15.769   7.687  1.00  0.00     0.174 C
HETATM   18  O1  UNL     1      12.868  17.007   7.531  1.00  0.00    -0.648 OA
HETATM   19  O2  UNL     1      12.185  15.335   8.933  1.00  0.00    -0.648 OA
ENDBRANCH  16  17
ENDBRANCH  15  16
BRANCH  15  20
HETATM   20  C23 UNL     1      14.299  13.102   7.253  1.00  0.00     0.213 C
HETATM   21  O4  UNL     1      13.471  12.219   7.425  1.00  0.00    -0.290 OA
BRANCH  20  22
HETATM   22  C24 UNL     1      15.568  13.042   7.994  1.00  0.00     0.424 C
HETATM   23  F1  UNL     1      15.323  13.140   9.372  1.00  0.00    -0.206 F
HETATM   24  F2  UNL     1      16.322  11.946   7.752  1.00  0.00    -0.206 F
ENDBRANCH  20  22
ENDBRANCH  15  20
ENDBRANCH  12  15
ENDBRANCH   1  11
BRANCH  10  25
HETATM   25  C18 UNL     1      15.417  18.832   4.270  1.00  0.00     0.090 C
HETATM   26  C19 UNL     1      15.868  20.001   3.419  1.00  0.00     0.026 C
HETATM   27  C20 UNL     1      14.779  21.040   3.567  1.00  0.00     0.002 C
HETATM   28  C21 UNL     1      13.615  20.326   4.217  1.00  0.00     0.002 C
HETATM   29  C22 UNL     1      14.319  19.388   5.181  1.00  0.00     0.026 C
ENDBRANCH  10  25
BRANCH   4  30
HETATM   30  N2  UNL     1      20.359  17.207   6.976  1.00  0.00    -0.371 N
ATOM     31  H2  UNL     1      21.254  16.969   6.549  1.00  0.00     0.161 HD
BRANCH  30  32
HETATM   32  C9  UNL     1      20.017  16.456   8.133  1.00  0.00     0.083 C
HETATM   33  C10 UNL     1      20.303  14.975   8.021  1.00  0.00     0.025 C
HETATM   34  C11 UNL     1      19.779  14.290   9.260  1.00  0.00     0.002 C
HETATM   35  C12 UNL     1      20.357  14.866  10.518  1.00  0.00     0.000 C
HETATM   36  C13 UNL     1      21.407  15.863  10.143  1.00  0.00     0.002 C
HETATM   37  C14 UNL     1      20.928  16.970   9.261  1.00  0.00     0.025 C
ENDBRANCH  30  32
ENDBRANCH   4  30
TORSDOF 9
ENDMDL