MODEL 2
REMARK VINA RESULT: -8.509122115      1.660      2.348
REMARK  11 active torsions:
REMARK  status: ('A' for Active; 'I' for Inactive)
REMARK    1  A    between atoms: C2_2  and  C4_4
REMARK    2  A    between atoms: C5_5  and  C6_6
REMARK    3  A    between atoms: C6_6  and  C7_7
REMARK    4  A    between atoms: C6_6  and  C9_11
REMARK    5  A    between atoms: C7_7  and  C8_9
REMARK    6  A    between atoms: C9_11  and  C11_13
REMARK    7  A    between atoms: C11_13  and  C12_14
REMARK    8  A    between atoms: C12_14  and  O2_15
REMARK    9  A    between atoms: C19_24  and  O3_25
REMARK   10  A    between atoms: C21_28  and  C22_29
REMARK   11  A    between atoms: C23_31  and  O5_32
ROOT
HETATM    1  C4  UNL     1      17.608  16.680   6.776  1.00  0.00    -0.034 A
HETATM    2  C5  UNL     1      16.501  17.086   5.913  1.00  0.00    -0.042 A
HETATM    3  C13 UNL     1      16.980  18.160   5.232  1.00  0.00    -0.012 A
HETATM    4  C14 UNL     1      18.289  18.531   5.563  1.00  0.00     0.027 A
HETATM    5  C15 UNL     1      19.362  18.869   4.647  1.00  0.00     0.047 C
HETATM    6  C16 UNL     1      20.403  19.568   5.497  1.00  0.00     0.177 C
HETATM    7  F1  UNL     1      20.397  20.913   5.075  1.00  0.00    -0.249 F
HETATM    8  C17 UNL     1      20.175  19.555   6.975  1.00  0.00     0.058 C
HETATM    9  C18 UNL     1      21.552  19.757   7.556  1.00  0.00     0.042 C
HETATM   10  C19 UNL     1      21.654  19.646   9.036  1.00  0.00     0.119 C
HETATM   11  C20 UNL     1      20.459  18.997   9.677  1.00  0.00     0.046 C
HETATM   12  C21 UNL     1      20.098  17.812   8.761  1.00  0.00     0.085 C
HETATM   13  C23 UNL     1      19.423  18.375   7.579  1.00  0.00     0.086 C
HETATM   14  C24 UNL     1      18.821  17.498   6.561  1.00  0.00     0.023 A
HETATM   15  C25 UNL     1      19.798  16.628   5.807  1.00  0.00     0.024 C
ENDROOT
BRANCH   2  16
HETATM   16  C6  UNL     1      15.049  16.687   5.839  1.00  0.00     0.093 C
BRANCH  16  17
HETATM   17  C7  UNL     1      14.386  17.222   7.079  1.00  0.00     0.149 C
HETATM   18  O1  UNL     1      14.475  18.354   7.491  1.00  0.00    -0.296 OA
BRANCH  17  19
HETATM   19  C8  UNL     1      13.527  16.301   7.917  1.00  0.00     0.193 C
HETATM   20 CL1  UNL     1      14.335  14.777   8.252  1.00  0.00    -0.123 Cl
ENDBRANCH  17  19
ENDBRANCH  16  17
BRANCH  16  21
HETATM   21  C9  UNL     1      14.246  16.869   4.664  1.00  0.00    -0.001 C
HETATM   22  C10 UNL     1      13.355  18.109   4.692  1.00  0.00     0.011 C
BRANCH  21  23
HETATM   23  C11 UNL     1      13.307  15.691   4.466  1.00  0.00     0.031 C
BRANCH  23  24
HETATM   24  C12 UNL     1      11.974  16.056   3.905  1.00  0.00     0.164 C
BRANCH  24  25
HETATM   25  O2  UNL     1      11.789  15.782   2.566  1.00  0.00    -0.401 OA
ATOM     26  H2  UNL     1      11.180  16.349   2.107  1.00  0.00     0.209 HD
ENDBRANCH  24  25
ENDBRANCH  23  24
ENDBRANCH  21  23
ENDBRANCH  16  21
ENDBRANCH   2  16
BRANCH   1  27
HETATM   27  C2  UNL     1      17.924  15.242   6.953  1.00  0.00    -0.064 C
HETATM   28  C1  UNL     1      17.439  14.228   6.248  1.00  0.00     0.019 C
HETATM   29  C3  UNL     1      18.774  14.750   8.126  1.00  0.00     0.048 C
ENDBRANCH   1  27
BRANCH  13  30
HETATM   30  O5  UNL     1      18.257  18.989   8.166  1.00  0.00    -0.387 OA
ATOM     31  H5  UNL     1      18.010  18.378   8.851  1.00  0.00     0.210 HD
ENDBRANCH  13  30
BRANCH  12  32
HETATM   32  C22 UNL     1      21.333  17.074   8.569  1.00  0.00     0.238 C
HETATM   33  O4  UNL     1      21.618  16.246   9.451  1.00  0.00    -0.306 OA
ENDBRANCH  12  32
BRANCH  10  34
HETATM   34  O3  UNL     1      21.800  20.896   9.653  1.00  0.00    -0.396 OA
ATOM     35  H3  UNL     1      22.596  21.339   9.385  1.00  0.00     0.210 HD
ENDBRANCH  10  34
TORSDOF 11
ENDMDL