MODEL 2
REMARK VINA RESULT: -8.450081447      1.899      4.673
REMARK  11 active torsions:
REMARK  status: ('A' for Active; 'I' for Inactive)
REMARK    1  A    between atoms: C5_6  and  C6_7
REMARK    2  A    between atoms: C7_8  and  C8_9
REMARK    3  A    between atoms: C8_9  and  O1_10
REMARK    4  A    between atoms: C8_9  and  C9_12
REMARK    5  A    between atoms: C9_12  and  O2_13
REMARK    6  A    between atoms: C11_16  and  O3_17
REMARK    7  A    between atoms: O3_17  and  C12_18
REMARK    8  A    between atoms: C12_18  and  C13_20
REMARK    9  A    between atoms: C13_20  and  C14_21
REMARK   10  A    between atoms: C18_25  and  C19_26
REMARK   11  A    between atoms: C19_26  and  O5_27
ROOT
HETATM    1  C1  UNL     1      14.702  14.716   7.652  1.00  0.00     0.017 C
HETATM    2  C2  UNL     1      15.509  14.720   6.616  1.00  0.00    -0.052 C
HETATM    3  C3  UNL     1      16.603  13.745   6.722  1.00  0.00     0.112 C
HETATM    4 CL1  UNL     1      16.529  12.679   8.115  1.00  0.00    -0.120 Cl
HETATM    5  C4  UNL     1      17.986  14.382   6.619  1.00  0.00     0.033 C
HETATM    6  C5  UNL     1      18.052  15.643   7.372  1.00  0.00     0.017 C
HETATM    7  C10 UNL     1      18.153  16.905   6.620  1.00  0.00     0.039 C
HETATM    8  C11 UNL     1      19.119  16.962   5.481  1.00  0.00     0.160 C
HETATM    9  C17 UNL     1      18.705  18.268   4.869  1.00  0.00     0.011 C
HETATM   10  C18 UNL     1      17.473  18.558   5.176  1.00  0.00    -0.049 C
HETATM   11  C20 UNL     1      16.919  17.457   6.017  1.00  0.00    -0.010 C
HETATM   12  C21 UNL     1      16.045  18.158   7.041  1.00  0.00     0.021 C
HETATM   13  C22 UNL     1      16.172  16.600   5.079  1.00  0.00     0.039 C
HETATM   14  C23 UNL     1      15.133  15.678   5.585  1.00  0.00     0.113 C
HETATM   15 CL2  UNL     1      13.590  16.530   5.933  1.00  0.00    -0.120 Cl
ENDROOT
BRANCH   6  16
HETATM   16  C6  UNL     1      19.152  15.591   8.366  1.00  0.00    -0.023 C
HETATM   17  C7  UNL     1      19.577  14.485   8.959  1.00  0.00     0.003 C
BRANCH  17  18
HETATM   18  C8  UNL     1      20.682  14.489   9.946  1.00  0.00     0.164 C
BRANCH  18  19
HETATM   19  O1  UNL     1      21.850  13.891   9.433  1.00  0.00    -0.390 OA
ATOM     20  H1  UNL     1      22.126  13.145   9.952  1.00  0.00     0.210 HD
ENDBRANCH  18  19
BRANCH  18  21
HETATM   21  C9  UNL     1      21.081  15.886  10.363  1.00  0.00     0.199 C
BRANCH  21  22
HETATM   22  O2  UNL     1      22.315  16.257   9.887  1.00  0.00    -0.398 OA
ATOM     23  H2  UNL     1      22.444  17.198   9.880  1.00  0.00     0.209 HD
ENDBRANCH  21  22
ENDBRANCH  18  21
ENDBRANCH  17  18
ENDBRANCH   6  16
BRANCH   8  24
HETATM   24  O3  UNL     1      20.464  16.903   5.764  1.00  0.00    -0.312 OA
BRANCH  24  25
HETATM   25  C12 UNL     1      21.262  18.023   5.756  1.00  0.00     0.259 C
HETATM   26  O4  UNL     1      22.244  17.974   4.982  1.00  0.00    -0.265 OA
BRANCH  25  27
HETATM   27  C13 UNL     1      21.063  19.233   6.556  1.00  0.00     0.115 C
BRANCH  27  28
HETATM   28  C14 UNL     1      20.995  18.948   8.041  1.00  0.00    -0.013 C
HETATM   29  C15 UNL     1      21.801  19.948   8.844  1.00  0.00     0.010 C
HETATM   30  C16 UNL     1      19.563  19.060   8.534  1.00  0.00     0.010 C
ENDBRANCH  27  28
ENDBRANCH  25  27
ENDBRANCH  24  25
ENDBRANCH   8  24
BRANCH  10  31
HETATM   31  C19 UNL     1      16.749  19.796   4.728  1.00  0.00     0.199 C
BRANCH  31  32
HETATM   32  O5  UNL     1      17.634  20.863   4.690  1.00  0.00    -0.397 OA
ATOM     33  H5  UNL     1      17.855  21.124   5.576  1.00  0.00     0.209 HD
ENDBRANCH  31  32
ENDBRANCH  10  31
TORSDOF 11
ENDMDL