MODEL 1
REMARK VINA RESULT: -9.435312139      0.000      0.000
REMARK  9 active torsions:
REMARK  status: ('A' for Active; 'I' for Inactive)
REMARK    1  A    between atoms: N1_2  and  C2_3
REMARK    2  A    between atoms: N1_2  and  C9_12
REMARK    3  A    between atoms: C2_3  and  C3_4
REMARK    4  A    between atoms: C11_17  and  C12_18
REMARK    5  A    between atoms: C15_21  and  C16_22
REMARK    6  A    between atoms: C16_22  and  C17_23
REMARK    7  A    between atoms: C17_23  and  C18_24
REMARK    8  A    between atoms: C18_24  and  C19_25
REMARK    9  A    between atoms: C19_25  and  O2_26
ROOT
HETATM    1  C9  UNL     1      16.978   9.066   9.770  1.00  0.00     0.682 A
HETATM    2  N2  UNL     1      16.349  10.234  10.028  1.00  0.00    -0.155 N
ATOM      3  H2  UNL     1      15.373  10.196  10.324  1.00  0.00     0.187 HD
HETATM    4  C10 UNL     1      16.926  11.441   9.918  1.00  0.00     0.272 A
HETATM    5  O1  UNL     1      16.286  12.489  10.172  1.00  0.00    -0.267 OA
HETATM    6  C11 UNL     1      18.243  11.528   9.522  1.00  0.00     0.059 A
HETATM    7  C26 UNL     1      18.900  10.345   9.256  1.00  0.00     0.124 A
HETATM    8  N4  UNL     1      18.255   9.147   9.385  1.00  0.00    -0.201 N
ATOM      9  H4  UNL     1      18.766   8.287   9.181  1.00  0.00     0.183 HD
ENDROOT
BRANCH   6  10
HETATM   10  C12 UNL     1      18.933  12.818   9.377  1.00  0.00    -0.019 A
HETATM   11  C13 UNL     1      18.770  13.610   8.271  1.00  0.00     0.013 A
HETATM   12  C14 UNL     1      19.439  14.827   8.144  1.00  0.00     0.008 A
HETATM   13  C15 UNL     1      20.280  15.241   9.153  1.00  0.00    -0.058 A
HETATM   14  C24 UNL     1      20.443  14.452  10.259  1.00  0.00     0.008 A
HETATM   15  C25 UNL     1      19.776  13.247  10.375  1.00  0.00     0.013 A
BRANCH  13  16
HETATM   16  C16 UNL     1      20.997  16.561   8.975  1.00  0.00     0.039 C
BRANCH  16  17
HETATM   17  C17 UNL     1      19.947  17.574   8.706  1.00  0.00     0.016 C
BRANCH  17  18
HETATM   18  C18 UNL     1      20.227  18.528   7.573  1.00  0.00    -0.016 C
HETATM   19  C20 UNL     1      18.943  19.159   7.116  1.00  0.00     0.039 C
HETATM   20  C21 UNL     1      18.880  19.500   5.666  1.00  0.00     0.233 C
HETATM   21  N3  UNL     1      19.494  18.557   4.783  1.00  0.00    -0.075 N
HETATM   22  C22 UNL     1      20.900  18.495   5.139  1.00  0.00     0.233 C
ATOM     23  H32 UNL     1      19.037  17.645   4.791  1.00  0.00     0.277 HD
ATOM     24  H31 UNL     1      19.339  18.771   3.798  1.00  0.00     0.277 HD
HETATM   25  C23 UNL     1      20.976  17.826   6.490  1.00  0.00     0.039 C
BRANCH  18  26
HETATM   26  C19 UNL     1      21.119  19.627   8.208  1.00  0.00     0.173 C
BRANCH  26  27
HETATM   27  O2  UNL     1      20.868  19.777   9.549  1.00  0.00    -0.400 OA
ATOM     28  H2  UNL     1      21.669  19.882  10.049  1.00  0.00     0.209 HD
ENDBRANCH  26  27
ENDBRANCH  18  26
ENDBRANCH  17  18
ENDBRANCH  16  17
ENDBRANCH  13  16
ENDBRANCH   6  10
BRANCH   1  29
HETATM   29  N1  UNL     1      16.292   7.823   9.901  1.00  0.00    -0.222 N
HETATM   30  C1  UNL     1      15.811   7.194   8.675  1.00  0.00     0.168 C
BRANCH  29  31
HETATM   31  C2  UNL     1      16.057   7.169  11.143  1.00  0.00     0.145 C
BRANCH  31  32
HETATM   32  C3  UNL     1      14.912   6.184  11.154  1.00  0.00     0.004 C
HETATM   33  C4  UNL     1      15.310   4.991  12.036  1.00  0.00     0.012 C
HETATM   34  C5  UNL     1      14.928   5.223  13.474  1.00  0.00     0.079 C
HETATM   35  C6  UNL     1      13.413   5.171  13.541  1.00  0.00     0.243 C
HETATM   36  F1  UNL     1      13.006   5.967  14.578  1.00  0.00    -0.206 F
HETATM   37  F2  UNL     1      13.039   3.868  13.789  1.00  0.00    -0.206 F
HETATM   38  C7  UNL     1      12.816   5.578  12.210  1.00  0.00     0.079 C
HETATM   39  C8  UNL     1      13.608   6.739  11.624  1.00  0.00     0.012 C
ENDBRANCH  31  32
ENDBRANCH  29  31
ENDBRANCH   1  29
TORSDOF 9
ENDMDL