MODEL 1
REMARK VINA RESULT: -9.261204704      0.000      0.000
REMARK  8 active torsions:
REMARK  status: ('A' for Active; 'I' for Inactive)
REMARK    1  A    between atoms: N2_7  and  C5_8
REMARK    2  A    between atoms: C5_8  and  C6_9
REMARK    3  A    between atoms: C6_9  and  C7_10
REMARK    4  A    between atoms: C7_10  and  N3_11
REMARK    5  A    between atoms: N3_11  and  C8_14
REMARK    6  A    between atoms: C8_14  and  C9_15
REMARK    7  A    between atoms: C9_15  and  N4_16
REMARK    8  A    between atoms: N4_16  and  C10_19
ROOT
HETATM    1  C1  UNL     1      19.103  12.374   9.750  1.00  0.00     0.043 C
HETATM    2  C2  UNL     1      19.217  13.562   8.868  1.00  0.00    -0.085 C
HETATM    3  C3  UNL     1      18.287  13.819   7.975  1.00  0.00     0.003 C
HETATM    4  C4  UNL     1      18.251  14.957   7.023  1.00  0.00     0.136 C
HETATM    5  N1  UNL     1      17.132  15.811   7.402  1.00  0.00    -0.329 N
ATOM      6  H1  UNL     1      16.807  15.739   8.366  1.00  0.00     0.180 HD
HETATM    7  N2  UNL     1      16.500  16.662   6.632  1.00  0.00    -0.327 N
HETATM    8  C15 UNL     1      16.901  18.090   6.592  1.00  0.00     0.182 C
HETATM    9  C16 UNL     1      18.370  17.963   6.210  1.00  0.00    -0.013 A
HETATM   10  C17 UNL     1      18.858  18.855   5.277  1.00  0.00     0.043 A
HETATM   11 CL1  UNL     1      17.935  20.169   4.729  1.00  0.00    -0.084 Cl
HETATM   12  C18 UNL     1      20.167  18.508   4.869  1.00  0.00     0.044 A
HETATM   13  C19 UNL     1      20.890  17.427   5.324  1.00  0.00     0.023 A
HETATM   14 CL2  UNL     1      22.485  17.087   4.727  1.00  0.00    -0.088 Cl
HETATM   15  C20 UNL     1      20.396  16.494   6.294  1.00  0.00     0.076 A
HETATM   16  C21 UNL     1      19.070  16.958   6.625  1.00  0.00    -0.048 A
HETATM   17  C22 UNL     1      19.504  15.802   7.269  1.00  0.00     0.022 A
HETATM   18  C23 UNL     1      19.905  15.854   8.709  1.00  0.00     0.022 C
HETATM   19  C24 UNL     1      20.401  14.443   9.024  1.00  0.00     0.034 C
ENDROOT
BRANCH   7  20
HETATM   20  C5  UNL     1      15.961  16.253   5.366  1.00  0.00     0.144 C
BRANCH  20  21
HETATM   21  C6  UNL     1      15.269  17.438   4.738  1.00  0.00     0.049 C
BRANCH  21  22
HETATM   22  C7  UNL     1      13.789  17.416   4.789  1.00  0.00     0.234 C
BRANCH  22  23
HETATM   23  N3  UNL     1      13.223  18.550   5.534  1.00  0.00    -0.073 N
ATOM     24  H32 UNL     1      13.762  19.402   5.381  1.00  0.00     0.277 HD
ATOM     25  H31 UNL     1      12.333  18.851   5.135  1.00  0.00     0.277 HD
BRANCH  23  26
HETATM   26  C8  UNL     1      13.099  18.254   6.918  1.00  0.00     0.259 C
BRANCH  26  27
HETATM   27  C9  UNL     1      12.639  16.856   7.173  1.00  0.00     0.260 C
BRANCH  27  28
HETATM   28  N4  UNL     1      13.451  16.226   8.216  1.00  0.00    -0.069 N
ATOM     29  H42 UNL     1      14.446  16.279   7.999  1.00  0.00     0.277 HD
ATOM     30  H41 UNL     1      13.448  16.775   9.075  1.00  0.00     0.277 HD
BRANCH  28  31
HETATM   31  C10 UNL     1      13.037  14.881   8.453  1.00  0.00     0.190 C
HETATM   32  C11 UNL     1      14.264  14.008   8.599  1.00  0.00     0.059 C
HETATM   33  C12 UNL     1      14.383  13.071   7.444  1.00  0.00     0.169 C
HETATM   34  O1  UNL     1      13.319  12.232   7.222  1.00  0.00    -0.391 OA
HETATM   35  C13 UNL     1      12.091  12.792   7.527  1.00  0.00     0.169 C
HETATM   36  C14 UNL     1      12.165  14.329   7.387  1.00  0.00     0.059 C
ENDBRANCH  28  31
ENDBRANCH  27  28
ENDBRANCH  26  27
ENDBRANCH  23  26
ENDBRANCH  22  23
ENDBRANCH  21  22
ENDBRANCH  20  21
ENDBRANCH   7  20
TORSDOF 8
ENDMDL