MODEL 2
REMARK VINA RESULT: -8.830557983      2.129      2.842
REMARK  9 active torsions:
REMARK  status: ('A' for Active; 'I' for Inactive)
REMARK    1  A    between atoms: C5_5  and  C6_6
REMARK    2  A    between atoms: C9_9  and  O1_10
REMARK    3  A    between atoms: C19_23  and  N1_24
REMARK    4  A    between atoms: N1_24  and  C20_26
REMARK    5  A    between atoms: C20_26  and  C21_27
REMARK    6  A    between atoms: C21_27  and  O3_28
REMARK    7  A    between atoms: O3_28  and  C22_29
REMARK    8  A    between atoms: C22_29  and  C23_30
REMARK    9  A    between atoms: C26_34  and  O4_35
ROOT
HETATM    1  C1  UNL     1      21.246  15.681  10.341  1.00  0.00     0.049 C
HETATM    2  C2  UNL     1      20.454  16.150   9.085  1.00  0.00     0.091 A
HETATM    3  C3  UNL     1      20.052  17.580   9.163  1.00  0.00     0.068 C
HETATM    4  C4  UNL     1      20.801  18.504   8.291  1.00  0.00    -0.014 C
HETATM    5  C5  UNL     1      20.699  18.883   7.048  1.00  0.00    -0.025 C
HETATM    6  C9  UNL     1      19.705  18.465   5.993  1.00  0.00     0.096 C
HETATM    7  C10 UNL     1      18.311  18.364   6.370  1.00  0.00     0.202 C
HETATM    8  F1  UNL     1      18.157  19.436   7.311  1.00  0.00    -0.228 F
HETATM    9  C11 UNL     1      17.599  17.160   6.723  1.00  0.00    -0.023 C
HETATM   10  C12 UNL     1      17.933  15.918   6.997  1.00  0.00     0.006 C
HETATM   11  C13 UNL     1      19.191  15.176   7.066  1.00  0.00     0.008 C
HETATM   12  C14 UNL     1      20.047  15.201   8.239  1.00  0.00     0.180 A
HETATM   13  O2  UNL     1      21.305  15.968   7.879  1.00  0.00    -0.365 OA
HETATM   14  C15 UNL     1      16.148  17.652   6.667  1.00  0.00    -0.011 C
HETATM   15  C16 UNL     1      15.795  18.635   7.701  1.00  0.00     0.021 C
HETATM   16  C17 UNL     1      15.125  16.558   6.678  1.00  0.00     0.016 C
HETATM   17  C18 UNL     1      13.806  17.078   6.201  1.00  0.00     0.026 C
HETATM   18  C19 UNL     1      13.840  17.767   4.890  1.00  0.00     0.077 C
HETATM   19  C24 UNL     1      14.915  18.873   4.860  1.00  0.00     0.033 C
HETATM   20  C25 UNL     1      16.175  18.148   5.238  1.00  0.00     0.033 C
HETATM   21  C26 UNL     1      17.426  18.906   5.207  1.00  0.00     0.174 C
ENDROOT
BRANCH  18  22
HETATM   22  N1  UNL     1      12.561  18.267   4.506  1.00  0.00    -0.415 N
ATOM     23  H1  UNL     1      12.422  19.243   4.243  1.00  0.00     0.153 HD
BRANCH  22  24
HETATM   24  C20 UNL     1      11.491  17.336   4.507  1.00  0.00     0.140 C
BRANCH  24  25
HETATM   25  C21 UNL     1      11.449  16.551   3.223  1.00  0.00     0.186 C
BRANCH  25  26
HETATM   26  O3  UNL     1      11.750  15.251   3.283  1.00  0.00    -0.387 OA
BRANCH  26  27
HETATM   27  C22 UNL     1      11.025  14.335   3.940  1.00  0.00     0.199 C
BRANCH  27  28
HETATM   28  C23 UNL     1      11.706  13.659   5.118  1.00  0.00     0.248 C
HETATM   29  F2  UNL     1      13.033  14.057   5.154  1.00  0.00    -0.253 F
ENDBRANCH  27  28
ENDBRANCH  26  27
ENDBRANCH  25  26
ENDBRANCH  24  25
ENDBRANCH  22  24
ENDBRANCH  18  22
BRANCH  21  30
HETATM   30  O4  UNL     1      18.045  18.749   3.979  1.00  0.00    -0.391 OA
ATOM     31  H4  UNL     1      17.959  19.527   3.441  1.00  0.00     0.210 HD
ENDBRANCH  21  30
BRANCH   6  32
HETATM   32  O1  UNL     1      20.253  17.641   5.049  1.00  0.00    -0.360 OA
ATOM     33  H1  UNL     1      19.608  17.083   4.631  1.00  0.00     0.217 HD
ENDBRANCH   6  32
BRANCH   5  34
HETATM   34  C6  UNL     1      21.736  19.896   6.563  1.00  0.00     0.021 A
HETATM   35  C7  UNL     1      21.274  20.833   5.464  1.00  0.00     0.010 A
HETATM   36  C8  UNL     1      21.770  21.297   6.839  1.00  0.00     0.010 A
ENDBRANCH   5  34
TORSDOF 9
ENDMDL