MODEL 5
REMARK VINA RESULT: -8.107077067      2.971      5.307
REMARK  12 active torsions:
REMARK  status: ('A' for Active; 'I' for Inactive)
REMARK    1  A    between atoms: C4_4  and  C5_5
REMARK    2  A    between atoms: C5_5  and  O2_7
REMARK    3  A    between atoms: O2_7  and  C6_8
REMARK    4  A    between atoms: C6_8  and  C21_28
REMARK    5  A    between atoms: C7_9  and  C8_10
REMARK    6  A    between atoms: C9_11  and  C10_12
REMARK    7  A    between atoms: C11_13  and  O3_14
REMARK    8  A    between atoms: C14_18  and  O4_19
REMARK    9  A    between atoms: C18_24  and  C19_25
REMARK   10  A    between atoms: C21_28  and  C22_29
REMARK   11  A    between atoms: C22_29  and  C23_31
REMARK   12  A    between atoms: C23_31  and  C24_32
ROOT
HETATM    1  C8  UNL     1      16.591  18.512   7.595  1.00  0.00    -0.001 C
HETATM    2  C9  UNL     1      15.300  18.300   7.404  1.00  0.00    -0.019 C
ENDROOT
BRANCH   1   3
HETATM    3  C7  UNL     1      17.648  18.048   6.746  1.00  0.00     0.033 C
HETATM    4  C6  UNL     1      18.923  18.349   6.833  1.00  0.00     0.059 C
BRANCH   4   5
HETATM    5  O2  UNL     1      19.838  17.792   5.900  1.00  0.00    -0.280 OA
BRANCH   5   6
HETATM    6  C5  UNL     1      20.591  16.691   6.354  1.00  0.00     0.288 C
HETATM    7  O1  UNL     1      21.837  16.791   6.222  1.00  0.00    -0.260 OA
BRANCH   6   8
HETATM    8  C4  UNL     1      19.912  15.551   6.927  1.00  0.00     0.084 C
HETATM    9  C2  UNL     1      19.979  15.285   8.205  1.00  0.00    -0.082 C
HETATM   10  C1  UNL     1      19.259  14.093   8.758  1.00  0.00     0.043 C
HETATM   11  C3  UNL     1      20.747  16.131   9.132  1.00  0.00     0.043 C
ENDBRANCH   6   8
ENDBRANCH   5   6
ENDBRANCH   4   5
BRANCH   4  12
HETATM   12  C21 UNL     1      19.458  19.250   7.859  1.00  0.00     0.102 C
BRANCH  12  13
HETATM   13  C22 UNL     1      20.779  19.874   7.534  1.00  0.00     0.186 C
HETATM   14  F1  UNL     1      21.392  20.148   8.764  1.00  0.00    -0.248 F
BRANCH  13  15
HETATM   15  C23 UNL     1      20.684  21.117   6.747  1.00  0.00     0.150 C
BRANCH  15  16
HETATM   16  C24 UNL     1      21.865  21.962   6.820  1.00  0.00     0.175 C
HETATM   17  O5  UNL     1      23.005  21.618   6.464  1.00  0.00    -0.648 OA
HETATM   18  O6  UNL     1      21.747  23.276   7.326  1.00  0.00    -0.648 OA
ENDBRANCH  15  16
ENDBRANCH  13  15
ENDBRANCH  12  13
ENDBRANCH   4  12
ENDBRANCH   1   3
BRANCH   2  19
HETATM   19  C10 UNL     1      14.680  17.560   6.307  1.00  0.00     0.047 C
HETATM   20  C11 UNL     1      13.698  18.519   5.603  1.00  0.00     0.131 C
HETATM   21  C12 UNL     1      13.127  17.892   4.373  1.00  0.00     0.028 C
HETATM   22  C13 UNL     1      11.679  18.135   4.080  1.00  0.00     0.040 C
HETATM   23  C15 UNL     1      12.736  16.462   4.749  1.00  0.00    -0.007 C
HETATM   24  C14 UNL     1      11.535  16.614   3.906  1.00  0.00     0.127 C
HETATM   25  C16 UNL     1      13.788  15.499   4.385  1.00  0.00     0.013 C
HETATM   26  C20 UNL     1      12.549  16.362   6.225  1.00  0.00     0.024 C
HETATM   27  C17 UNL     1      14.458  15.147   5.723  1.00  0.00     0.012 C
HETATM   28  C18 UNL     1      14.019  16.275   6.670  1.00  0.00    -0.018 C
BRANCH  20  29
HETATM   29  O3  UNL     1      14.516  19.590   5.168  1.00  0.00    -0.394 OA
ATOM     30  H3  UNL     1      15.316  19.487   5.670  1.00  0.00     0.210 HD
ENDBRANCH  20  29
BRANCH  24  31
HETATM   31  O4  UNL     1      11.652  16.247   2.585  1.00  0.00    -0.395 OA
ATOM     32  H4  UNL     1      11.289  15.382   2.433  1.00  0.00     0.210 HD
ENDBRANCH  24  31
BRANCH  28  33
HETATM   33  C19 UNL     1      14.110  15.860   8.093  1.00  0.00     0.124 C
HETATM   34 CL1  UNL     1      14.251  14.109   8.302  1.00  0.00    -0.130 Cl
ENDBRANCH  28  33
ENDBRANCH   2  19
TORSDOF 12
ENDMDL