MODEL 3
REMARK VINA RESULT: -8.258093106      3.435      6.115
REMARK  7 active torsions:
REMARK  status: ('A' for Active; 'I' for Inactive)
REMARK    1  A    between atoms: C7_7  and  C8_8
REMARK    2  A    between atoms: C8_8  and  C9_9
REMARK    3  A    between atoms: C11_11  and  C12_12
REMARK    4  A    between atoms: C13_15  and  C14_16
REMARK    5  A    between atoms: C15_20  and  C16_21
REMARK    6  A    between atoms: C17_23  and  C18_24
REMARK    7  A    between atoms: C21_29  and  C22_30
ROOT
HETATM    1  C9  UNL     1      13.854  15.040   8.312  1.00  0.00     0.109 C
HETATM    2  C10 UNL     1      13.967  13.541   8.107  1.00  0.00     0.047 C
HETATM    3  C11 UNL     1      15.342  13.259   7.641  1.00  0.00     0.120 C
HETATM    4  C13 UNL     1      16.001  14.665   7.645  1.00  0.00     0.188 C
HETATM    5  N2  UNL     1      14.975  15.553   7.557  1.00  0.00    -0.367 N
HETATM    6  C15 UNL     1      15.053  16.896   7.414  1.00  0.00     0.107 C
ENDROOT
BRANCH   1   7
HETATM    7  C8  UNL     1      12.559  15.619   7.944  1.00  0.00     0.001 C
BRANCH   7   8
HETATM    8  C7  UNL     1      11.782  15.287   6.765  1.00  0.00    -0.078 C
HETATM    9  C2  UNL     1      11.832  16.459   5.759  1.00  0.00     0.010 C
HETATM   10  C1  UNL     1      11.169  17.676   6.289  1.00  0.00     0.015 C
HETATM   11  C3  UNL     1      11.248  15.970   4.458  1.00  0.00     0.009 C
HETATM   12  C4  UNL     1       9.832  15.546   4.603  1.00  0.00     0.001 C
HETATM   13  C5  UNL     1       9.443  14.974   5.920  1.00  0.00     0.004 C
HETATM   14  C6  UNL     1      10.602  14.455   6.730  1.00  0.00     0.034 C
ENDBRANCH   7   8
ENDBRANCH   1   7
BRANCH   4  15
HETATM   15  C14 UNL     1      16.948  14.556   6.482  1.00  0.00     0.255 C
HETATM   16  N1  UNL     1      18.332  14.739   6.668  1.00  0.00    -0.060 NA
HETATM   17  O3  UNL     1      16.472  14.296   5.398  1.00  0.00    -0.275 OA
ENDBRANCH   4  15
BRANCH   6  18
HETATM   18  C16 UNL     1      16.165  17.549   6.665  1.00  0.00     0.037 A
HETATM   19  S1  UNL     1      17.595  18.217   7.274  1.00  0.00    -0.086 SA
HETATM   20  C17 UNL     1      18.134  19.096   5.871  1.00  0.00     0.055 A
HETATM   21  C20 UNL     1      17.124  18.813   4.973  1.00  0.00     0.040 A
HETATM   22  C21 UNL     1      16.125  18.019   5.378  1.00  0.00     0.060 A
BRANCH  20  23
HETATM   23  C18 UNL     1      19.372  19.904   5.763  1.00  0.00     0.273 C
HETATM   24  C19 UNL     1      20.489  19.197   5.041  1.00  0.00     0.096 C
HETATM   25  F1  UNL     1      19.796  20.304   7.021  1.00  0.00    -0.201 F
HETATM   26  F2  UNL     1      19.021  21.083   5.116  1.00  0.00    -0.201 F
ENDBRANCH  20  23
BRANCH  22  27
HETATM   27  C22 UNL     1      15.048  17.550   4.460  1.00  0.00     0.210 C
HETATM   28  O4  UNL     1      14.849  16.469   3.998  1.00  0.00    -0.644 OA
HETATM   29  O5  UNL     1      14.139  18.557   4.069  1.00  0.00    -0.644 OA
ENDBRANCH  22  27
ENDBRANCH   6  18
BRANCH   3  30
HETATM   30  C12 UNL     1      16.076  12.251   8.347  1.00  0.00     0.179 C
HETATM   31  O1  UNL     1      16.682  12.505   9.378  1.00  0.00    -0.648 OA
HETATM   32  O2  UNL     1      16.096  10.960   7.872  1.00  0.00    -0.648 OA
ENDBRANCH   3  30
TORSDOF 7
ENDMDL