MODEL 1
REMARK VINA RESULT: -8.787119830      0.000      0.000
REMARK  10 active torsions:
REMARK  status: ('A' for Active; 'I' for Inactive)
REMARK    1  A    between atoms: C2_2  and  N1_3
REMARK    2  A    between atoms: C4_5  and  C5_6
REMARK    3  A    between atoms: C5_6  and  N2_7
REMARK       I    between atoms: N2_7  and  C6_9
REMARK    4  A    between atoms: C6_9  and  C7_11
REMARK    5  A    between atoms: C7_11  and  C8_12
REMARK    6  A    between atoms: C9_15  and  C11_17
REMARK    7  A    between atoms: C13_22  and  N3_23
REMARK       I    between atoms: N3_23  and  C14_25
REMARK    8  A    between atoms: C14_25  and  C15_27
REMARK    9  A    between atoms: N4_30  and  C18_31
REMARK   10  A    between atoms: C18_31  and  C19_32
ROOT
HETATM    1  N1  UNL     1     -19.431  -3.872  -2.343  1.00  0.00    -0.369 N
HETATM    2  C3  UNL     1     -18.447  -2.840  -2.092  1.00  0.00     0.161 C
HETATM    3  C4  UNL     1     -18.894  -1.514  -2.651  1.00  0.00    -0.029 C
HETATM    4  C9  UNL     1     -20.217  -1.116  -2.040  1.00  0.00     0.084 C
HETATM    5  C10 UNL     1     -20.160  -0.973  -0.547  1.00  0.00     0.029 C
HETATM    6  C12 UNL     1     -21.211  -2.203  -2.395  1.00  0.00     0.070 C
HETATM    7  C13 UNL     1     -20.754  -3.588  -1.966  1.00  0.00     0.187 C
ENDROOT
BRANCH   7   8
HETATM    8  N3  UNL     1     -21.724  -4.549  -2.485  1.00  0.00    -0.339 N
HETATM    9  C14 UNL     1     -22.363  -5.467  -1.643  1.00  0.00     0.223 C
HETATM   10  O4  UNL     1     -22.107  -5.477  -0.407  1.00  0.00    -0.273 OA
ATOM     11  H3  UNL     1     -21.939  -4.552  -3.482  1.00  0.00     0.164 HD
BRANCH   9  12
HETATM   12  C15 UNL     1     -23.359  -6.465  -2.118  1.00  0.00     0.084 C
HETATM   13  C16 UNL     1     -24.455  -5.878  -2.927  1.00  0.00     0.058 C
HETATM   14  C17 UNL     1     -25.797  -6.480  -2.744  1.00  0.00     0.059 C
HETATM   15  N4  UNL     1     -25.891  -7.713  -2.098  1.00  0.00    -0.393 N
HETATM   16  C25 UNL     1     -24.756  -8.348  -1.572  1.00  0.00     0.122 C
HETATM   17  C26 UNL     1     -23.849  -7.279  -0.944  1.00  0.00     0.034 C
BRANCH  15  18
HETATM   18  C18 UNL     1     -27.140  -8.052  -1.517  1.00  0.00     0.126 C
BRANCH  18  19
HETATM   19  C19 UNL     1     -28.069  -8.550  -2.619  1.00  0.00     0.007 C
HETATM   20  C20 UNL     1     -27.476  -9.761  -3.287  1.00  0.00     0.036 C
HETATM   21  C21 UNL     1     -28.544 -10.596  -3.982  1.00  0.00     0.272 C
HETATM   22  N5  UNL     1     -29.336 -11.245  -2.944  1.00  0.00     0.084 N
HETATM   23  C22 UNL     1     -28.782 -12.570  -2.683  1.00  0.00     0.309 C
HETATM   24  C23 UNL     1     -29.336 -10.466  -1.716  1.00  0.00     0.272 C
HETATM   25  C24 UNL     1     -29.409  -8.971  -2.043  1.00  0.00     0.036 C
ENDBRANCH  18  19
ENDBRANCH  15  18
ENDBRANCH   9  12
ENDBRANCH   7   8
BRANCH   1  26
HETATM   26  C2  UNL     1     -18.940  -5.148  -2.029  1.00  0.00     0.056 C
HETATM   27  C1  UNL     1     -18.575  -5.223  -0.565  1.00  0.00     0.054 C
ENDBRANCH   1  26
BRANCH   4  28
HETATM   28  C11 UNL     1     -20.769   0.147  -2.646  1.00  0.00     0.399 C
HETATM   29  F1  UNL     1     -20.688   0.120  -4.041  1.00  0.00    -0.170 F
HETATM   30  F2  UNL     1     -22.174   0.143  -2.427  1.00  0.00    -0.170 F
HETATM   31  F3  UNL     1     -20.342   1.303  -2.088  1.00  0.00    -0.170 F
ENDBRANCH   4  28
BRANCH   3  32
HETATM   32  C5  UNL     1     -17.890  -0.466  -2.826  1.00  0.00     0.096 C
BRANCH  32  33
HETATM   33  N2  UNL     1     -16.546  -0.601  -2.484  1.00  0.00    -0.336 N
HETATM   34  C6  UNL     1     -15.795  -0.099  -1.436  1.00  0.00     0.231 C
HETATM   35  O1  UNL     1     -16.258   0.616  -0.539  1.00  0.00    -0.273 OA
ATOM     36  H2  UNL     1     -16.013  -1.183  -3.131  1.00  0.00     0.168 HD
BRANCH  34  37
HETATM   37  C7  UNL     1     -14.320  -0.393  -1.305  1.00  0.00     0.216 C
BRANCH  37  38
HETATM   38  C8  UNL     1     -13.962  -1.736  -1.758  1.00  0.00     0.181 C
HETATM   39  O2  UNL     1     -14.740  -2.710  -1.897  1.00  0.00    -0.648 OA
HETATM   40  O3  UNL     1     -12.627  -1.981  -2.073  1.00  0.00    -0.648 OA
ENDBRANCH  37  38
ENDBRANCH  34  37
ENDBRANCH  32  33
ENDBRANCH   3  32
TORSDOF 10
ENDMDL