MODEL 2
REMARK VINA RESULT: -9.905316306      3.046      6.989
REMARK  9 active torsions:
REMARK  status: ('A' for Active; 'I' for Inactive)
REMARK    1  A    between atoms: C2_2  and  C3_3
REMARK    2  A    between atoms: C3_3  and  C4_5
REMARK    3  A    between atoms: C9_13  and  C10_14
REMARK       I    between atoms: C10_14  and  N2_16
REMARK    4  A    between atoms: N2_16  and  C11_18
REMARK    5  A    between atoms: C11_18  and  C12_19
REMARK    6  A    between atoms: C11_18  and  C19_26
REMARK    7  A    between atoms: C12_19  and  C13_20
REMARK    8  A    between atoms: C19_26  and  C20_28
REMARK       I    between atoms: C20_28  and  N3_30
REMARK    9  A    between atoms: N3_30  and  C21_32
ROOT
HETATM    1  C10 UNL     1     -20.441  -6.146  -2.313  1.00  0.00     0.225 C
HETATM    2  O2  UNL     1     -21.107  -7.210  -2.343  1.00  0.00    -0.273 OA
HETATM    3  N2  UNL     1     -19.138  -6.197  -1.782  1.00  0.00    -0.349 N
ATOM      4  H2  UNL     1     -18.577  -5.345  -1.748  1.00  0.00     0.163 HD
ENDROOT
BRANCH   3   5
HETATM    5  C11 UNL     1     -18.572  -7.449  -1.277  1.00  0.00     0.164 C
BRANCH   5   6
HETATM    6  C12 UNL     1     -18.532  -7.422   0.241  1.00  0.00     0.038 C
BRANCH   6   7
HETATM    7  C13 UNL     1     -19.569  -8.386   0.836  1.00  0.00    -0.012 C
HETATM    8  C14 UNL     1     -20.805  -7.616   1.169  1.00  0.00     0.005 C
HETATM    9  C15 UNL     1     -22.059  -8.224   0.571  1.00  0.00     0.000 C
HETATM   10  C16 UNL     1     -22.083  -9.696   0.829  1.00  0.00     0.000 C
HETATM   11  C17 UNL     1     -20.940 -10.367   0.141  1.00  0.00     0.000 C
HETATM   12  C18 UNL     1     -19.801  -9.462  -0.196  1.00  0.00     0.005 C
ENDBRANCH   6   7
ENDBRANCH   5   6
BRANCH   5  13
HETATM   13  C19 UNL     1     -17.160  -7.471  -1.748  1.00  0.00     0.238 C
HETATM   14  O3  UNL     1     -16.407  -8.492  -1.604  1.00  0.00    -0.285 OA
BRANCH  13  15
HETATM   15  C20 UNL     1     -16.620  -6.287  -2.393  1.00  0.00     0.289 C
HETATM   16  O4  UNL     1     -16.963  -5.916  -3.532  1.00  0.00    -0.264 OA
HETATM   17  N3  UNL     1     -15.643  -5.495  -1.703  1.00  0.00    -0.347 N
ATOM     18  H3  UNL     1     -15.331  -5.758  -0.768  1.00  0.00     0.163 HD
BRANCH  17  19
HETATM   19  C21 UNL     1     -15.111  -4.324  -2.345  1.00  0.00     0.118 C
HETATM   20  C22 UNL     1     -16.053  -3.130  -2.187  1.00  0.00     0.204 C
HETATM   21  O5  UNL     1     -15.181  -2.028  -2.046  1.00  0.00    -0.319 OA
HETATM   22  C23 UNL     1     -13.928  -2.419  -1.614  1.00  0.00     0.260 C
HETATM   23  O6  UNL     1     -13.021  -1.653  -1.165  1.00  0.00    -0.265 OA
HETATM   24  C24 UNL     1     -13.811  -3.882  -1.761  1.00  0.00     0.138 C
ENDBRANCH  17  19
ENDBRANCH  13  15
ENDBRANCH   5  13
ENDBRANCH   3   5
BRANCH   1  25
HETATM   25  C9  UNL     1     -21.036  -4.915  -2.822  1.00  0.00     0.115 C
HETATM   26  C6  UNL     1     -22.480  -4.693  -2.414  1.00  0.00     0.200 C
HETATM   27  C5  UNL     1     -22.638  -3.209  -2.744  1.00  0.00     0.046 C
HETATM   28  N1  UNL     1     -22.324  -4.843  -0.966  1.00  0.00    -0.070 N
HETATM   29  C4  UNL     1     -21.263  -2.626  -2.734  1.00  0.00     0.065 C
HETATM   30  C8  UNL     1     -20.497  -3.714  -2.003  1.00  0.00     0.037 C
HETATM   31  C7  UNL     1     -21.158  -3.980  -0.698  1.00  0.00     0.239 C
ATOM     32  H12 UNL     1     -23.156  -4.630  -0.416  1.00  0.00     0.277 HD
ATOM     33  H11 UNL     1     -22.236  -5.805  -0.637  1.00  0.00     0.277 HD
BRANCH  29  34
HETATM   34  C3  UNL     1     -21.075  -1.349  -2.068  1.00  0.00     0.145 C
HETATM   35  O1  UNL     1     -21.990  -0.979  -1.299  1.00  0.00    -0.296 OA
BRANCH  34  36
HETATM   36  C2  UNL     1     -19.955  -0.411  -2.160  1.00  0.00     0.083 C
HETATM   37  C1  UNL     1     -19.817   0.303  -3.497  1.00  0.00     0.030 C
HETATM   38  C25 UNL     1     -18.617  -0.834  -1.606  1.00  0.00     0.029 C
HETATM   39  C26 UNL     1     -18.393   0.673  -1.327  1.00  0.00     0.081 C
HETATM   40  C27 UNL     1     -19.919   0.695  -1.086  1.00  0.00     0.257 C
HETATM   41  F1  UNL     1     -20.529   1.840  -1.518  1.00  0.00    -0.205 F
HETATM   42  F2  UNL     1     -20.217   0.287   0.176  1.00  0.00    -0.205 F
ENDBRANCH  34  36
ENDBRANCH  29  34
ENDBRANCH   1  25
TORSDOF 9
ENDMDL