MODEL 1
REMARK VINA RESULT: -9.082187957      0.000      0.000
REMARK  12 active torsions:
REMARK  status: ('A' for Active; 'I' for Inactive)
REMARK    1  A    between atoms: C2_2  and  C4_4
REMARK    2  A    between atoms: C4_4  and  N1_5
REMARK    3  A    between atoms: C4_4  and  C11_16
REMARK       I    between atoms: N1_5  and  C5_7
REMARK    4  A    between atoms: C5_7  and  C6_9
REMARK       I    between atoms: C11_16  and  N2_18
REMARK    5  A    between atoms: N2_18  and  C12_20
REMARK    6  A    between atoms: C12_20  and  C13_21
REMARK    7  A    between atoms: C12_20  and  C16_24
REMARK    8  A    between atoms: C16_24  and  C18_26
REMARK    9  A    between atoms: C18_26  and  S1_27
REMARK   10  A    between atoms: S1_27  and  C19_28
REMARK   11  A    between atoms: C19_28  and  O3_29
REMARK   12  A    between atoms: C19_28  and  N3_31
REMARK       I    between atoms: N4_34  and  C22_35
ROOT
HETATM    1  C12 UNL     1     -15.209  -3.748  -2.197  1.00  0.00     0.092 C
ENDROOT
BRANCH   1   2
HETATM    2  N2  UNL     1     -16.211  -2.722  -1.989  1.00  0.00    -0.354 N
HETATM    3  C11 UNL     1     -16.458  -1.628  -2.834  1.00  0.00     0.241 C
HETATM    4  O2  UNL     1     -15.719  -1.548  -3.882  1.00  0.00    -0.271 OA
ATOM      5  H2  UNL     1     -16.788  -2.801  -1.152  1.00  0.00     0.162 HD
BRANCH   3   6
HETATM    6  C4  UNL     1     -17.439  -0.557  -2.688  1.00  0.00     0.180 C
BRANCH   6   7
HETATM    7  C2  UNL     1     -17.498  -0.092  -1.235  1.00  0.00     0.009 C
HETATM    8  C1  UNL     1     -18.749   0.679  -0.909  1.00  0.00     0.012 C
HETATM    9  C3  UNL     1     -16.304   0.735  -0.839  1.00  0.00     0.012 C
ENDBRANCH   6   7
BRANCH   6  10
HETATM   10  N1  UNL     1     -18.778  -0.984  -3.061  1.00  0.00    -0.347 N
HETATM   11  C5  UNL     1     -19.436  -0.410  -4.168  1.00  0.00     0.222 C
HETATM   12  O1  UNL     1     -18.796   0.494  -4.805  1.00  0.00    -0.273 OA
ATOM     13  H1  UNL     1     -19.246  -1.707  -2.516  1.00  0.00     0.163 HD
BRANCH  11  14
HETATM   14  C6  UNL     1     -20.772  -0.753  -4.647  1.00  0.00     0.084 C
HETATM   15  C7  UNL     1     -21.613  -1.503  -3.655  1.00  0.00     0.020 C
HETATM   16  C8  UNL     1     -22.621  -0.462  -3.145  1.00  0.00     0.080 C
HETATM   17  C9  UNL     1     -22.878   0.420  -4.361  1.00  0.00     0.244 C
HETATM   18  F1  UNL     1     -23.822  -0.106  -5.210  1.00  0.00    -0.206 F
HETATM   19  F2  UNL     1     -23.259   1.684  -3.919  1.00  0.00    -0.206 F
HETATM   20  C10 UNL     1     -21.544   0.484  -5.020  1.00  0.00     0.093 C
ENDBRANCH  11  14
ENDBRANCH   6  10
ENDBRANCH   3   6
ENDBRANCH   1   2
BRANCH   1  21
HETATM   21  C13 UNL     1     -14.008  -3.503  -1.299  1.00  0.00     0.001 C
HETATM   22  C14 UNL     1     -13.452  -2.129  -1.407  1.00  0.00     0.011 C
HETATM   23  C15 UNL     1     -12.905  -4.449  -1.809  1.00  0.00     0.011 C
ENDBRANCH   1  21
BRANCH   1  24
HETATM   24  C16 UNL     1     -15.782  -5.129  -2.041  1.00  0.00     0.014 C
HETATM   25  C17 UNL     1     -16.282  -5.435  -0.673  1.00  0.00     0.012 C
BRANCH  24  26
HETATM   26  C18 UNL     1     -16.792  -5.469  -3.128  1.00  0.00     0.089 C
BRANCH  26  27
HETATM   27  S1  UNL     1     -18.337  -6.021  -2.493  1.00  0.00    -0.086 SA
BRANCH  27  28
HETATM   28  C19 UNL     1     -19.535  -4.913  -1.963  1.00  0.00     0.177 C
BRANCH  28  29
HETATM   29  O3  UNL     1     -19.200  -3.634  -2.158  1.00  0.00    -0.341 OA
ATOM     30  H3  UNL     1     -18.629  -3.502  -2.906  1.00  0.00     0.220 HD
ENDBRANCH  28  29
BRANCH  28  31
HETATM   31  N3  UNL     1     -20.768  -5.133  -1.373  1.00  0.00    -0.353 N
HETATM   32  C20 UNL     1     -21.826  -4.185  -1.277  1.00  0.00     0.145 C
HETATM   33  C21 UNL     1     -22.885  -4.657  -2.295  1.00  0.00     0.147 C
HETATM   34  N4  UNL     1     -23.299  -5.953  -1.827  1.00  0.00    -0.333 N
HETATM   35  C22 UNL     1     -24.546  -6.438  -2.319  1.00  0.00     0.330 C
HETATM   36  C23 UNL     1     -22.554  -6.758  -0.921  1.00  0.00     0.147 C
HETATM   37  N5  UNL     1     -25.358  -5.708  -3.219  1.00  0.00    -0.040 NA
HETATM   38  O4  UNL     1     -24.996  -7.574  -1.965  1.00  0.00    -0.251 OA
HETATM   39  C24 UNL     1     -21.099  -6.463  -0.797  1.00  0.00     0.145 C
ENDBRANCH  28  31
ENDBRANCH  27  28
ENDBRANCH  26  27
ENDBRANCH  24  26
ENDBRANCH   1  24
TORSDOF 12
ENDMDL