MODEL 1
REMARK VINA RESULT: -7.765094820      0.000      0.000
REMARK  11 active torsions:
REMARK  status: ('A' for Active; 'I' for Inactive)
REMARK    1  A    between atoms: C2_3  and  C3_5
REMARK    2  A    between atoms: C4_6  and  C5_7
REMARK    3  A    between atoms: C5_7  and  O2_8
REMARK    4  A    between atoms: C5_7  and  N2_10
REMARK    5  A    between atoms: N2_10  and  C6_11
REMARK    6  A    between atoms: N2_10  and  C13_23
REMARK    7  A    between atoms: C6_11  and  C7_12
REMARK       I    between atoms: C7_12  and  N3_14
REMARK    8  A    between atoms: N3_14  and  C8_16
REMARK    9  A    between atoms: C8_16  and  C9_17
REMARK   10  A    between atoms: C8_16  and  C10_20
REMARK   11  A    between atoms: C13_23  and  C14_24
ROOT
HETATM    1  C1  UNL     1     -16.740  -8.423  -0.685  1.00  0.00     0.232 C
HETATM    2  N1  UNL     1     -17.903  -8.618  -1.345  1.00  0.00    -0.395 NA
HETATM    3  C2  UNL     1     -19.095  -8.817  -2.022  1.00  0.00     0.296 C
HETATM    4  O1  UNL     1     -19.224  -9.162  -3.204  1.00  0.00    -0.257 OA
ENDROOT
BRANCH   3   5
HETATM    5  C3  UNL     1     -20.439  -8.618  -1.335  1.00  0.00     0.125 C
HETATM    6  C4  UNL     1     -20.437  -7.244  -0.634  1.00  0.00     0.095 C
HETATM    7  C17 UNL     1     -21.841  -6.873  -0.322  1.00  0.00     0.023 C
HETATM    8  C18 UNL     1     -22.031  -6.739   1.172  1.00  0.00     0.028 C
HETATM    9  C19 UNL     1     -22.309  -5.644  -1.013  1.00  0.00     0.028 C
HETATM   10  S1  UNL     1     -23.066  -8.139  -0.787  1.00  0.00    -0.087 SA
HETATM   11  S2  UNL     1     -22.331  -9.951   0.048  1.00  0.00    -0.086 SA
HETATM   12  C20 UNL     1     -20.580  -9.794  -0.488  1.00  0.00     0.025 C
HETATM   13  C21 UNL     1     -19.741  -9.860   0.744  1.00  0.00     0.028 C
HETATM   14  C22 UNL     1     -20.338 -11.100  -1.232  1.00  0.00     0.028 C
BRANCH   6  15
HETATM   15  C5  UNL     1     -19.862  -6.295  -1.571  1.00  0.00     0.124 C
BRANCH  15  16
HETATM   16  O2  UNL     1     -20.191  -6.589  -2.813  1.00  0.00    -0.349 OA
ATOM     17  H2  UNL     1     -21.070  -6.293  -3.017  1.00  0.00     0.219 HD
ENDBRANCH  15  16
BRANCH  15  18
HETATM   18  N2  UNL     1     -19.033  -5.144  -1.515  1.00  0.00    -0.334 N
BRANCH  18  19
HETATM   19  C6  UNL     1     -19.734  -3.976  -2.104  1.00  0.00     0.232 C
BRANCH  19  20
HETATM   20  C7  UNL     1     -19.896  -2.785  -1.337  1.00  0.00     0.236 C
HETATM   21  O3  UNL     1     -20.412  -2.689  -0.212  1.00  0.00    -0.272 OA
HETATM   22  N3  UNL     1     -19.438  -1.555  -1.894  1.00  0.00    -0.346 N
ATOM     23  H3  UNL     1     -18.988  -1.583  -2.809  1.00  0.00     0.163 HD
BRANCH  22  24
HETATM   24  C8  UNL     1     -19.570  -0.266  -1.243  1.00  0.00     0.177 C
BRANCH  24  25
HETATM   25  C9  UNL     1     -20.867   0.356  -1.695  1.00  0.00     0.254 C
HETATM   26  N4  UNL     1     -21.542   1.350  -0.961  1.00  0.00    -0.060 NA
HETATM   27  O4  UNL     1     -21.406  -0.006  -2.781  1.00  0.00    -0.275 OA
ENDBRANCH  24  25
BRANCH  24  28
HETATM   28  C10 UNL     1     -18.433   0.594  -1.736  1.00  0.00     0.009 C
HETATM   29  C11 UNL     1     -17.623  -0.109  -2.796  1.00  0.00     0.012 C
HETATM   30  C12 UNL     1     -17.494   0.973  -0.611  1.00  0.00     0.012 C
ENDBRANCH  24  28
ENDBRANCH  22  24
ENDBRANCH  19  20
ENDBRANCH  18  19
BRANCH  18  31
HETATM   31  C13 UNL     1     -17.724  -4.947  -1.075  1.00  0.00     0.091 C
BRANCH  31  32
HETATM   32  C14 UNL     1     -16.485  -4.714  -1.769  1.00  0.00     0.062 C
HETATM   33  C15 UNL     1     -16.620  -5.591  -3.102  1.00  0.00     0.038 C
HETATM   34  C16 UNL     1     -16.198  -3.369  -2.371  1.00  0.00     0.038 C
HETATM   35 CL1  UNL     1     -14.993  -5.430  -1.130  1.00  0.00    -0.114 Cl
ENDBRANCH  31  32
ENDBRANCH  18  31
ENDBRANCH  15  18
ENDBRANCH   6  15
ENDBRANCH   3   5
TORSDOF 10
ENDMDL