MODEL 4
REMARK VINA RESULT: -6.951774042      3.305      6.444
REMARK  15 active torsions:
REMARK  status: ('A' for Active; 'I' for Inactive)
REMARK    1  A    between atoms: C5_5  and  C6_6
REMARK    2  A    between atoms: C5_5  and  C9_15
REMARK    3  A    between atoms: C6_6  and  C7_7
REMARK    4  A    between atoms: C6_6  and  N1_9
REMARK    5  A    between atoms: N1_9  and  S1_11
REMARK    6  A    between atoms: C9_15  and  O3_16
REMARK    7  A    between atoms: C9_15  and  C15_23
REMARK    8  A    between atoms: O3_16  and  C10_17
REMARK    9  A    between atoms: C10_17  and  C11_19
REMARK   10  A    between atoms: C15_23  and  N2_25
REMARK   11  A    between atoms: N2_25  and  C17_26
REMARK   12  A    between atoms: C17_26  and  O5_27
REMARK   13  A    between atoms: C17_26  and  C18_29
REMARK   14  A    between atoms: C18_29  and  C20_32
REMARK       I    between atoms: C20_32  and  N3_34
REMARK   15  A    between atoms: N3_34  and  C21_36
ROOT
HETATM    1  C1  UNL     1     -23.918  -5.635  -3.267  1.00  0.00     0.102 C
HETATM    2  C2  UNL     1     -23.207  -4.706  -2.898  1.00  0.00    -0.153 C
HETATM    3  C3  UNL     1     -22.386  -3.567  -2.469  1.00  0.00    -0.011 C
HETATM    4  C4  UNL     1     -22.850  -2.237  -2.900  1.00  0.00     0.058 C
HETATM    5  C5  UNL     1     -21.298  -3.802  -1.770  1.00  0.00     0.014 C
ENDROOT
BRANCH   5   6
HETATM    6  C6  UNL     1     -20.458  -2.659  -1.322  1.00  0.00     0.158 C
BRANCH   6   7
HETATM    7  C7  UNL     1     -20.667  -2.260   0.089  1.00  0.00     0.252 C
HETATM    8  F1  UNL     1     -20.723  -0.893   0.196  1.00  0.00    -0.253 F
ENDBRANCH   6   7
BRANCH   6   9
HETATM    9  N1  UNL     1     -19.078  -2.744  -1.643  1.00  0.00    -0.308 N
ATOM     10  H1  UNL     1     -18.496  -3.545  -1.395  1.00  0.00     0.172 HD
BRANCH   9  11
HETATM   11  S1  UNL     1     -18.479  -1.376  -2.485  1.00  0.00     0.223 S
HETATM   12  C8  UNL     1     -19.552  -0.988  -3.838  1.00  0.00     0.185 C
HETATM   13  O1  UNL     1     -17.078  -1.618  -2.975  1.00  0.00    -0.206 OA
HETATM   14  O2  UNL     1     -18.426  -0.176  -1.580  1.00  0.00    -0.206 OA
ENDBRANCH   9  11
ENDBRANCH   6   9
ENDBRANCH   5   6
BRANCH   5  15
HETATM   15  C9  UNL     1     -20.898  -5.199  -1.472  1.00  0.00     0.101 C
BRANCH  15  16
HETATM   16  O3  UNL     1     -19.560  -5.463  -1.350  1.00  0.00    -0.279 OA
BRANCH  16  17
HETATM   17  C10 UNL     1     -18.743  -6.304  -2.067  1.00  0.00     0.271 C
HETATM   18  O4  UNL     1     -19.313  -7.096  -2.873  1.00  0.00    -0.264 OA
BRANCH  17  19
HETATM   19  C11 UNL     1     -17.273  -6.244  -1.874  1.00  0.00     0.037 C
HETATM   20  C12 UNL     1     -16.690  -5.474  -3.037  1.00  0.00     0.025 C
HETATM   21  C13 UNL     1     -17.020  -5.515  -0.558  1.00  0.00     0.025 C
HETATM   22  C14 UNL     1     -16.746  -7.653  -1.802  1.00  0.00     0.025 C
ENDBRANCH  17  19
ENDBRANCH  16  17
ENDBRANCH  15  16
BRANCH  15  23
HETATM   23  C15 UNL     1     -21.749  -5.900  -0.409  1.00  0.00     0.219 C
HETATM   24  C16 UNL     1     -21.177  -5.758   0.966  1.00  0.00     0.055 C
BRANCH  23  25
HETATM   25  N2  UNL     1     -21.889  -7.259  -0.719  1.00  0.00    -0.413 NA
BRANCH  25  26
HETATM   26  C17 UNL     1     -22.025  -8.563  -1.026  1.00  0.00     0.235 C
BRANCH  26  27
HETATM   27  O5  UNL     1     -21.142  -9.321  -1.639  1.00  0.00    -0.336 OA
ATOM     28  H5  UNL     1     -20.815  -9.209  -2.523  1.00  0.00     0.220 HD
ENDBRANCH  26  27
BRANCH  26  29
HETATM   29  C18 UNL     1     -23.250  -9.361  -0.720  1.00  0.00     0.256 C
HETATM   30  C19 UNL     1     -22.966 -10.152   0.603  1.00  0.00     0.073 C
HETATM   31  F2  UNL     1     -23.390 -10.341  -1.657  1.00  0.00    -0.223 F
BRANCH  29  32
HETATM   32  C20 UNL     1     -24.490  -8.608  -0.510  1.00  0.00     0.267 C
HETATM   33  O6  UNL     1     -24.738  -8.110   0.642  1.00  0.00    -0.269 OA
HETATM   34  N3  UNL     1     -25.432  -8.395  -1.538  1.00  0.00    -0.350 N
ATOM     35  H3  UNL     1     -25.263  -8.802  -2.458  1.00  0.00     0.163 HD
BRANCH  34  36
HETATM   36  C21 UNL     1     -26.621  -7.623  -1.327  1.00  0.00     0.022 C
HETATM   37  C22 UNL     1     -27.246  -7.355  -2.694  1.00  0.00     0.037 C
HETATM   38  C23 UNL     1     -26.436  -6.310  -0.652  1.00  0.00     0.037 C
HETATM   39  C24 UNL     1     -27.631  -8.416  -0.508  1.00  0.00     0.037 C
ENDBRANCH  34  36
ENDBRANCH  29  32
ENDBRANCH  26  29
ENDBRANCH  25  26
ENDBRANCH  23  25
ENDBRANCH  15  23
ENDBRANCH   5  15
TORSDOF 15
ENDMDL