MODEL 5
REMARK VINA RESULT: -8.768659193      2.329      6.963
REMARK  14 active torsions:
REMARK  status: ('A' for Active; 'I' for Inactive)
REMARK    1  A    between atoms: C2_2  and  O1_3
REMARK    2  A    between atoms: O1_3  and  C3_4
REMARK       I    between atoms: C3_4  and  N1_6
REMARK    3  A    between atoms: N1_6  and  C4_8
REMARK    4  A    between atoms: C4_8  and  C5_9
REMARK    5  A    between atoms: C4_8  and  C7_11
REMARK    6  A    between atoms: C7_11  and  O3_12
REMARK    7  A    between atoms: C7_11  and  C8_14
REMARK    8  A    between atoms: C8_14  and  C9_17
REMARK    9  A    between atoms: C9_17  and  C10_19
REMARK   10  A    between atoms: N2_23  and  C14_24
REMARK   11  A    between atoms: C14_24  and  O5_25
REMARK   12  A    between atoms: C14_24  and  C15_27
REMARK   13  A    between atoms: C15_27  and  N3_28
REMARK   14  A    between atoms: C15_27  and  C22_38
REMARK       I    between atoms: N3_28  and  C16_30
REMARK       I    between atoms: C16_30  and  N4_32
ROOT
HETATM    1  C10 UNL     1     -20.495  -5.125  -2.024  1.00  0.00     0.162 C
HETATM    2  C11 UNL     1     -21.256  -5.292  -3.339  1.00  0.00     0.035 C
HETATM    3  C12 UNL     1     -22.684  -5.300  -2.830  1.00  0.00     0.022 C
HETATM    4  C13 UNL     1     -22.551  -5.103  -1.282  1.00  0.00     0.126 C
HETATM    5  N2  UNL     1     -21.409  -4.205  -1.298  1.00  0.00    -0.348 N
ENDROOT
BRANCH   1   6
HETATM    6  C9  UNL     1     -19.108  -4.886  -2.116  1.00  0.00     0.223 C
HETATM    7  O4  UNL     1     -18.549  -4.122  -2.841  1.00  0.00    -0.289 OA
BRANCH   6   8
HETATM    8  C8  UNL     1     -18.207  -5.713  -1.172  1.00  0.00     0.332 C
HETATM    9  F1  UNL     1     -18.701  -7.033  -1.237  1.00  0.00    -0.195 F
HETATM   10  F2  UNL     1     -18.293  -5.264   0.082  1.00  0.00    -0.195 F
BRANCH   8  11
HETATM   11  C7  UNL     1     -16.822  -5.751  -1.687  1.00  0.00     0.221 C
BRANCH  11  12
HETATM   12  C4  UNL     1     -15.827  -5.723  -0.546  1.00  0.00     0.121 C
BRANCH  12  13
HETATM   13  N1  UNL     1     -15.342  -7.095  -0.314  1.00  0.00    -0.330 N
HETATM   14  C3  UNL     1     -15.704  -7.820   0.870  1.00  0.00     0.360 C
HETATM   15  O2  UNL     1     -16.437  -7.326   1.764  1.00  0.00    -0.239 OA
ATOM     16  H1  UNL     1     -14.739  -7.538  -1.008  1.00  0.00     0.165 HD
BRANCH  14  17
HETATM   17  O1  UNL     1     -15.261  -9.111   1.086  1.00  0.00    -0.304 OA
BRANCH  17  18
HETATM   18  C2  UNL     1     -15.370 -10.176   0.207  1.00  0.00     0.176 C
HETATM   19  C1  UNL     1     -16.768 -10.465  -0.235  1.00  0.00     0.034 C
ENDBRANCH  17  18
ENDBRANCH  14  17
ENDBRANCH  12  13
BRANCH  12  20
HETATM   20  C5  UNL     1     -14.628  -4.876  -0.734  1.00  0.00     0.023 C
HETATM   21  C6  UNL     1     -13.780  -5.203  -1.934  1.00  0.00     0.007 C
ENDBRANCH  12  20
ENDBRANCH  11  12
BRANCH  11  22
HETATM   22  O3  UNL     1     -16.611  -7.005  -2.333  1.00  0.00    -0.387 OA
ATOM     23  H3  UNL     1     -15.684  -7.184  -2.228  1.00  0.00     0.210 HD
ENDBRANCH  11  22
ENDBRANCH   8  11
ENDBRANCH   6   8
ENDBRANCH   1   6
BRANCH   5  24
HETATM   24  C14 UNL     1     -21.078  -2.922  -0.941  1.00  0.00     0.163 C
BRANCH  24  25
HETATM   25  O5  UNL     1     -20.697  -2.736   0.339  1.00  0.00    -0.345 OA
ATOM     26  H5  UNL     1     -21.327  -2.981   1.007  1.00  0.00     0.219 HD
ENDBRANCH  24  25
BRANCH  24  27
HETATM   27  C15 UNL     1     -21.004  -1.587  -1.588  1.00  0.00     0.072 C
BRANCH  27  28
HETATM   28  N3  UNL     1     -19.627  -1.254  -1.705  1.00  0.00    -0.308 N
HETATM   29  C16 UNL     1     -18.745  -0.275  -1.345  1.00  0.00     0.322 C
HETATM   30  O6  UNL     1     -19.040   0.762  -0.719  1.00  0.00    -0.247 OA
HETATM   31  N4  UNL     1     -17.351  -0.361  -1.680  1.00  0.00    -0.334 N
HETATM   32  C17 UNL     1     -16.545   0.811  -1.492  1.00  0.00     0.127 C
HETATM   33  C21 UNL     1     -16.862  -1.653  -2.097  1.00  0.00     0.127 C
HETATM   34  C18 UNL     1     -15.115   0.690  -1.863  1.00  0.00     0.020 C
HETATM   35  C19 UNL     1     -14.858  -0.460  -2.844  1.00  0.00     0.003 C
HETATM   36  C20 UNL     1     -15.350  -1.719  -2.112  1.00  0.00     0.020 C
ATOM     37  H3  UNL     1     -19.140  -1.981  -2.228  1.00  0.00     0.170 HD
ENDBRANCH  27  28
BRANCH  27  38
HETATM   38  C22 UNL     1     -21.942  -1.343  -2.689  1.00  0.00    -0.004 C
HETATM   39  C23 UNL     1     -21.950   0.187  -2.945  1.00  0.00     0.021 C
HETATM   40  C24 UNL     1     -21.283  -1.822  -4.049  1.00  0.00     0.021 C
HETATM   41  C25 UNL     1     -23.280  -1.904  -2.728  1.00  0.00     0.021 C
ENDBRANCH  27  38
ENDBRANCH  24  27
ENDBRANCH   5  24
TORSDOF 14
ENDMDL