MODEL 2
REMARK VINA RESULT: -8.765750214      2.766      5.680
REMARK  12 active torsions:
REMARK  status: ('A' for Active; 'I' for Inactive)
REMARK    1  A    between atoms: S1_2  and  C1_4
REMARK    2  A    between atoms: S1_2  and  N2_22
REMARK    3  A    between atoms: C1_4  and  C2_5
REMARK    4  A    between atoms: C2_5  and  C3_6
REMARK    5  A    between atoms: C6_9  and  N1_10
REMARK    6  A    between atoms: C9_13  and  O3_14
REMARK    7  A    between atoms: C16_25  and  C17_26
REMARK    8  A    between atoms: C17_26  and  C18_27
REMARK    9  A    between atoms: C18_27  and  N3_28
REMARK   10  A    between atoms: C21_31  and  O4_32
REMARK   11  A    between atoms: C21_31  and  C22_34
REMARK   12  A    between atoms: C22_34  and  O5_35
ROOT
HETATM    1  O1  UNL     1     -20.746   0.751  -3.082  1.00  0.00    -0.211 OA
HETATM    2  S1  UNL     1     -21.397   0.291  -1.793  1.00  0.00     0.211 S
HETATM    3  O2  UNL     1     -22.153   1.421  -1.151  1.00  0.00    -0.211 OA
ENDROOT
BRANCH   2   4
HETATM    4  C1  UNL     1     -20.076  -0.256  -0.704  1.00  0.00     0.158 C
BRANCH   4   5
HETATM    5  C2  UNL     1     -18.995   0.787  -0.854  1.00  0.00     0.021 C
BRANCH   5   6
HETATM    6  C3  UNL     1     -17.806   0.378  -1.639  1.00  0.00    -0.008 C
HETATM    7  C4  UNL     1     -17.920  -0.974  -2.229  1.00  0.00     0.007 C
HETATM    8  C5  UNL     1     -16.715  -1.837  -2.215  1.00  0.00     0.042 C
HETATM    9  C6  UNL     1     -15.415  -1.128  -2.283  1.00  0.00     0.294 C
HETATM   10  C12 UNL     1     -15.328   0.205  -1.630  1.00  0.00     0.274 C
HETATM   11  F1  UNL     1     -14.238   0.328  -0.790  1.00  0.00    -0.204 F
HETATM   12  F2  UNL     1     -15.182   1.238  -2.567  1.00  0.00    -0.204 F
HETATM   13  C13 UNL     1     -16.539   0.559  -0.815  1.00  0.00     0.086 C
BRANCH   9  14
HETATM   14  N1  UNL     1     -14.311  -1.924  -1.794  1.00  0.00     0.099 N
HETATM   15  C7  UNL     1     -13.120  -1.816  -2.625  1.00  0.00     0.275 C
HETATM   16  C8  UNL     1     -11.958  -2.206  -1.728  1.00  0.00     0.062 C
HETATM   17  C9  UNL     1     -12.253  -3.520  -1.034  1.00  0.00     0.121 C
HETATM   18  C10 UNL     1     -13.434  -4.192  -1.724  1.00  0.00     0.062 C
HETATM   19  C11 UNL     1     -14.654  -3.292  -1.522  1.00  0.00     0.275 C
BRANCH  17  20
HETATM   20  O3  UNL     1     -12.665  -3.326   0.301  1.00  0.00    -0.395 OA
ATOM     21  H3  UNL     1     -13.365  -2.688   0.365  1.00  0.00     0.210 HD
ENDBRANCH  17  20
ENDBRANCH   9  14
ENDBRANCH   5   6
ENDBRANCH   4   5
ENDBRANCH   2   4
BRANCH   2  22
HETATM   22  N2  UNL     1     -22.396  -1.052  -2.120  1.00  0.00    -0.210 NA
HETATM   23  C14 UNL     1     -22.526  -1.325  -3.530  1.00  0.00     0.107 C
HETATM   24  C15 UNL     1     -21.612  -2.525  -3.803  1.00  0.00     0.021 C
HETATM   25  C16 UNL     1     -20.988  -2.853  -2.508  1.00  0.00     0.002 C
HETATM   26  C25 UNL     1     -21.976  -2.282  -1.476  1.00  0.00     0.112 C
BRANCH  25  27
HETATM   27  C17 UNL     1     -20.792  -4.327  -2.296  1.00  0.00     0.036 C
BRANCH  27  28
HETATM   28  C18 UNL     1     -19.292  -4.638  -2.347  1.00  0.00     0.272 C
BRANCH  28  29
HETATM   29  N3  UNL     1     -19.042  -6.026  -2.533  1.00  0.00     0.088 N
HETATM   30  C19 UNL     1     -17.702  -6.287  -2.973  1.00  0.00     0.275 C
HETATM   31  C20 UNL     1     -16.673  -6.036  -1.894  1.00  0.00     0.070 C
HETATM   32  C21 UNL     1     -16.992  -6.838  -0.680  1.00  0.00     0.082 C
HETATM   33  C23 UNL     1     -18.395  -6.528  -0.229  1.00  0.00     0.070 C
HETATM   34  C24 UNL     1     -19.380  -6.793  -1.338  1.00  0.00     0.275 C
BRANCH  32  35
HETATM   35  O4  UNL     1     -16.929  -8.192  -0.993  1.00  0.00    -0.388 OA
ATOM     36  H4  UNL     1     -17.650  -8.646  -0.573  1.00  0.00     0.210 HD
ENDBRANCH  32  35
BRANCH  32  37
HETATM   37  C22 UNL     1     -16.025  -6.522   0.465  1.00  0.00     0.201 C
BRANCH  37  38
HETATM   38  O5  UNL     1     -16.479  -6.968   1.687  1.00  0.00    -0.398 OA
ATOM     39  H5  UNL     1     -15.925  -6.693   2.408  1.00  0.00     0.209 HD
ENDBRANCH  37  38
ENDBRANCH  32  37
ENDBRANCH  28  29
ENDBRANCH  27  28
ENDBRANCH  25  27
ENDBRANCH   2  22
TORSDOF 12
ENDMDL