MODEL 3
REMARK VINA RESULT: -8.748656225      3.573      6.463
REMARK  10 active torsions:
REMARK  status: ('A' for Active; 'I' for Inactive)
REMARK    1  A    between atoms: N1_2  and  S1_4
REMARK    2  A    between atoms: S1_4  and  N2_7
REMARK    3  A    between atoms: N2_7  and  C3_9
REMARK    4  A    between atoms: C3_9  and  C4_10
REMARK    5  A    between atoms: C4_10  and  C5_13
REMARK    6  A    between atoms: C6_15  and  C7_16
REMARK       I    between atoms: C7_16  and  N3_18
REMARK    7  A    between atoms: N3_18  and  C8_20
REMARK    8  A    between atoms: C8_20  and  C9_21
REMARK    9  A    between atoms: C8_20  and  C18_34
REMARK       I    between atoms: C9_21  and  N4_23
REMARK   10  A    between atoms: N4_23  and  C10_25
ROOT
HETATM    1  C7  UNL     1     -16.464  -5.021  -2.613  1.00  0.00     0.250 C
HETATM    2  O4  UNL     1     -16.671  -5.764  -3.657  1.00  0.00    -0.271 OA
HETATM    3  N3  UNL     1     -16.624  -5.722  -1.392  1.00  0.00    -0.345 N
ATOM      4  H3  UNL     1     -16.474  -5.238  -0.506  1.00  0.00     0.163 HD
ENDROOT
BRANCH   3   5
HETATM    5  C8  UNL     1     -17.005  -7.146  -1.393  1.00  0.00     0.184 C
BRANCH   5   6
HETATM    6  C9  UNL     1     -18.486  -7.195  -1.249  1.00  0.00     0.241 C
HETATM    7  O5  UNL     1     -19.156  -8.021  -1.906  1.00  0.00    -0.271 OA
HETATM    8  N4  UNL     1     -19.160  -6.293  -0.348  1.00  0.00    -0.350 N
ATOM      9  H4  UNL     1     -18.633  -5.612   0.197  1.00  0.00     0.163 HD
BRANCH   8  10
HETATM   10  C10 UNL     1     -20.623  -6.379  -0.234  1.00  0.00     0.128 C
HETATM   11  C11 UNL     1     -21.021  -5.810   1.148  1.00  0.00     0.109 C
HETATM   12  S2  UNL     1     -20.743  -4.037   0.679  1.00  0.00    -0.127 SA
HETATM   13  C12 UNL     1     -21.455  -4.247  -0.977  1.00  0.00     0.009 A
HETATM   14  C13 UNL     1     -22.059  -3.349  -1.836  1.00  0.00     0.019 A
HETATM   15  C17 UNL     1     -21.315  -5.581  -1.252  1.00  0.00    -0.018 A
HETATM   16  C14 UNL     1     -22.559  -3.769  -3.035  1.00  0.00     0.001 A
HETATM   17  C15 UNL     1     -22.436  -5.118  -3.351  1.00  0.00     0.001 A
HETATM   18  C16 UNL     1     -21.840  -5.997  -2.499  1.00  0.00     0.011 A
ENDBRANCH   8  10
ENDBRANCH   5   6
BRANCH   5  19
HETATM   19  C18 UNL     1     -16.325  -7.895  -0.279  1.00  0.00    -0.022 C
HETATM   20  C19 UNL     1     -15.125  -8.660  -0.819  1.00  0.00     0.017 C
HETATM   21  C20 UNL     1     -15.806  -6.939   0.765  1.00  0.00     0.017 C
HETATM   22  C21 UNL     1     -17.233  -8.940   0.331  1.00  0.00     0.017 C
ENDBRANCH   5  19
ENDBRANCH   3   5
BRANCH   1  23
HETATM   23  C6  UNL     1     -16.111  -3.646  -2.860  1.00  0.00     0.249 A
HETATM   24  C5  UNL     1     -16.793  -2.409  -2.708  1.00  0.00     0.234 A
HETATM   25  O3  UNL     1     -16.147  -2.897  -1.590  1.00  0.00    -0.359 OA
BRANCH  24  26
HETATM   26  C4  UNL     1     -18.256  -2.116  -2.769  1.00  0.00     0.288 C
HETATM   27  F1  UNL     1     -18.427  -1.295  -3.930  1.00  0.00    -0.202 F
HETATM   28  F2  UNL     1     -19.109  -3.153  -2.828  1.00  0.00    -0.202 F
BRANCH  26  29
HETATM   29  C3  UNL     1     -18.613  -1.109  -1.651  1.00  0.00     0.215 C
BRANCH  29  30
HETATM   30  N2  UNL     1     -19.202   0.082  -2.229  1.00  0.00    -0.301 N
ATOM     31  H2  UNL     1     -18.809   0.639  -2.988  1.00  0.00     0.173 HD
BRANCH  30  32
HETATM   32  S1  UNL     1     -20.687   0.386  -1.402  1.00  0.00     0.298 S
HETATM   33  O1  UNL     1     -20.764   1.795  -0.893  1.00  0.00    -0.188 OA
HETATM   34  O2  UNL     1     -20.863  -0.545  -0.238  1.00  0.00    -0.188 OA
BRANCH  32  35
HETATM   35  N1  UNL     1     -21.955   0.049  -2.536  1.00  0.00    -0.202 NA
HETATM   36  C1  UNL     1     -23.034   1.021  -2.418  1.00  0.00     0.130 C
HETATM   37  C2  UNL     1     -21.454   0.010  -3.881  1.00  0.00     0.130 C
ENDBRANCH  32  35
ENDBRANCH  30  32
ENDBRANCH  29  30
ENDBRANCH  26  29
ENDBRANCH  24  26
ENDBRANCH   1  23
TORSDOF 10
ENDMDL