MODEL 2
REMARK VINA RESULT: -9.080183344      3.307      8.638
REMARK  10 active torsions:
REMARK  status: ('A' for Active; 'I' for Inactive)
REMARK    1  A    between atoms: N1_2  and  C2_3
REMARK    2  A    between atoms: N1_2  and  C20_34
REMARK    3  A    between atoms: C2_3  and  C3_4
REMARK    4  A    between atoms: C3_4  and  C4_5
REMARK    5  A    between atoms: C4_5  and  C5_6
REMARK    6  A    between atoms: C5_6  and  C6_7
REMARK    7  A    between atoms: C6_7  and  N2_8
REMARK    8  A    between atoms: C6_7  and  C7_12
REMARK       I    between atoms: C7_12  and  N3_14
REMARK    9  A    between atoms: C12_19  and  C13_20
REMARK       I    between atoms: C13_20  and  N4_22
REMARK   10  A    between atoms: C18_29  and  C19_30
ROOT
HETATM    1  C7  UNL     1     -17.121  -3.604  -2.329  1.00  0.00     0.266 C
HETATM    2  O1  UNL     1     -16.431  -4.376  -3.042  1.00  0.00    -0.270 OA
HETATM    3  N3  UNL     1     -16.672  -2.300  -2.137  1.00  0.00    -0.263 N
HETATM    4  C8  UNL     1     -15.413  -1.881  -2.741  1.00  0.00     0.148 C
HETATM    5  C9  UNL     1     -14.680  -1.052  -1.718  1.00  0.00     0.022 C
HETATM    6  C10 UNL     1     -15.414   0.162  -1.273  1.00  0.00     0.004 C
HETATM    7  C11 UNL     1     -16.516   0.636  -2.160  1.00  0.00     0.033 C
HETATM    8  C12 UNL     1     -17.738  -0.259  -2.184  1.00  0.00     0.191 C
HETATM    9  N5  UNL     1     -17.487  -1.464  -1.386  1.00  0.00    -0.122 NA
ENDROOT
BRANCH   1  10
HETATM   10  C6  UNL     1     -18.381  -4.065  -1.710  1.00  0.00     0.276 C
BRANCH  10  11
HETATM   11  C5  UNL     1     -18.194  -5.029  -0.575  1.00  0.00     0.043 C
BRANCH  11  12
HETATM   12  C4  UNL     1     -18.387  -6.458  -0.844  1.00  0.00     0.004 C
BRANCH  12  13
HETATM   13  C3  UNL     1     -19.240  -7.243   0.131  1.00  0.00     0.030 C
BRANCH  13  14
HETATM   14  C2  UNL     1     -20.409  -6.460   0.602  1.00  0.00     0.272 C
BRANCH  14  15
HETATM   15  N1  UNL     1     -21.690  -7.175   0.679  1.00  0.00     0.088 N
HETATM   16  C1  UNL     1     -21.174  -8.600   0.735  1.00  0.00     0.310 C
BRANCH  15  17
HETATM   17  C20 UNL     1     -22.442  -7.094  -0.564  1.00  0.00     0.222 C
HETATM   18  C21 UNL     1     -23.953  -7.279  -0.250  1.00  0.00     0.036 C
HETATM   19  C22 UNL     1     -24.587  -7.511  -1.623  1.00  0.00     0.002 C
HETATM   20  C23 UNL     1     -24.993  -6.209  -2.244  1.00  0.00     0.000 C
HETATM   21  C24 UNL     1     -23.962  -5.616  -3.149  1.00  0.00     0.000 C
HETATM   22  C25 UNL     1     -22.539  -5.779  -2.683  1.00  0.00     0.002 C
HETATM   23  C26 UNL     1     -22.414  -5.703  -1.174  1.00  0.00     0.036 C
ENDBRANCH  15  17
ENDBRANCH  14  15
ENDBRANCH  13  14
ENDBRANCH  12  13
ENDBRANCH  11  12
ENDBRANCH  10  11
BRANCH  10  24
HETATM   24  N2  UNL     1     -19.252  -4.610  -2.747  1.00  0.00    -0.066 N
ATOM     25  H23 UNL     1     -19.198  -4.059  -3.604  1.00  0.00     0.275 HD
ATOM     26  H22 UNL     1     -18.895  -5.496  -3.104  1.00  0.00     0.275 HD
ATOM     27  H21 UNL     1     -20.215  -4.701  -2.425  1.00  0.00     0.275 HD
ENDBRANCH  10  24
ENDBRANCH   1  10
BRANCH   8  28
HETATM   28  C13 UNL     1     -18.950   0.430  -1.687  1.00  0.00     0.241 C
HETATM   29  O2  UNL     1     -18.868   0.971  -0.524  1.00  0.00    -0.271 OA
HETATM   30  N4  UNL     1     -20.163   0.527  -2.391  1.00  0.00    -0.336 N
HETATM   31  C14 UNL     1     -21.251   1.294  -1.761  1.00  0.00     0.133 C
HETATM   32  C18 UNL     1     -20.373  -0.111  -3.657  1.00  0.00     0.193 C
HETATM   33  C15 UNL     1     -22.598   0.680  -2.023  1.00  0.00     0.099 C
HETATM   34  C16 UNL     1     -22.825   0.391  -3.485  1.00  0.00     0.247 C
HETATM   35  F1  UNL     1     -23.287  -0.895  -3.665  1.00  0.00    -0.206 F
HETATM   36  F2  UNL     1     -23.785   1.231  -4.045  1.00  0.00    -0.206 F
HETATM   37  C17 UNL     1     -21.561   0.596  -4.301  1.00  0.00     0.115 C
BRANCH  32  38
HETATM   38  C19 UNL     1     -20.714  -1.566  -3.484  1.00  0.00     0.197 C
HETATM   39  O3  UNL     1     -20.784  -2.282  -4.495  1.00  0.00    -0.646 OA
HETATM   40  O4  UNL     1     -20.948  -2.120  -2.239  1.00  0.00    -0.646 OA
ENDBRANCH  32  38
ENDBRANCH   8  28
TORSDOF 10
ENDMDL