MODEL 3
REMARK VINA RESULT: -7.483459058      2.011      3.518
REMARK  15 active torsions:
REMARK  status: ('A' for Active; 'I' for Inactive)
REMARK    1  A    between atoms: C2_2  and  C3_3
REMARK    2  A    between atoms: C3_3  and  C4_4
REMARK    3  A    between atoms: C8_10  and  C9_11
REMARK       I    between atoms: C9_11  and  N1_13
REMARK    4  A    between atoms: N1_13  and  C10_15
REMARK    5  A    between atoms: C10_15  and  C11_16
REMARK    6  A    between atoms: C11_16  and  N2_17
REMARK    7  A    between atoms: N3_20  and  C14_21
REMARK    8  A    between atoms: C14_21  and  O2_22
REMARK    9  A    between atoms: C14_21  and  C15_24
REMARK   10  A    between atoms: C15_24  and  O3_25
REMARK   11  A    between atoms: C15_24  and  C16_27
REMARK   12  A    between atoms: C16_27  and  C17_28
REMARK   13  A    between atoms: C16_27  and  C23_38
REMARK   14  A    between atoms: C17_28  and  C18_30
REMARK       I    between atoms: C18_30  and  N4_32
REMARK   15  A    between atoms: N4_32  and  C19_34
ROOT
HETATM    1  C14 UNL     1     -20.436  -3.431  -2.514  1.00  0.00     0.148 C
ENDROOT
BRANCH   1   2
HETATM    2  N3  UNL     1     -20.057  -2.085  -2.520  1.00  0.00    -0.323 N
HETATM    3  C4  UNL     1     -20.741  -1.085  -3.317  1.00  0.00     0.097 C
HETATM    4  C5  UNL     1     -20.640   0.307  -2.788  1.00  0.00     0.105 C
HETATM    5  C6  UNL     1     -20.266   0.400  -1.327  1.00  0.00     0.251 C
HETATM    6  F1  UNL     1     -20.238   1.719  -0.945  1.00  0.00    -0.206 F
HETATM    7  F2  UNL     1     -21.284  -0.203  -0.618  1.00  0.00    -0.206 F
HETATM    8  C7  UNL     1     -19.004  -0.357  -1.039  1.00  0.00     0.142 C
HETATM    9  C8  UNL     1     -18.906  -1.663  -1.705  1.00  0.00     0.087 C
BRANCH   3  10
HETATM   10  C3  UNL     1     -20.394  -1.222  -4.775  1.00  0.00     0.026 C
BRANCH  10  11
HETATM   11  C2  UNL     1     -19.550  -0.173  -5.399  1.00  0.00    -0.002 C
HETATM   12  C1  UNL     1     -20.210   0.989  -6.036  1.00  0.00     0.005 C
ENDBRANCH  10  11
ENDBRANCH   3  10
BRANCH   9  13
HETATM   13  C9  UNL     1     -17.597  -1.973  -2.311  1.00  0.00     0.264 C
HETATM   14  O1  UNL     1     -17.171  -1.100  -3.147  1.00  0.00    -0.266 OA
HETATM   15  N1  UNL     1     -16.781  -3.089  -2.082  1.00  0.00    -0.354 N
ATOM     16  H1  UNL     1     -17.125  -3.785  -1.419  1.00  0.00     0.162 HD
BRANCH  15  17
HETATM   17  C10 UNL     1     -15.500  -3.348  -2.694  1.00  0.00     0.153 C
BRANCH  17  18
HETATM   18  C11 UNL     1     -14.411  -3.148  -1.709  1.00  0.00     0.291 C
BRANCH  18  19
HETATM   19  N2  UNL     1     -13.572  -2.003  -1.994  1.00  0.00     0.081 N
HETATM   20  C12 UNL     1     -14.032  -0.804  -1.333  1.00  0.00     0.309 C
HETATM   21  C13 UNL     1     -12.176  -2.271  -1.740  1.00  0.00     0.309 C
ENDBRANCH  18  19
ENDBRANCH  17  18
ENDBRANCH  15  17
ENDBRANCH   9  13
ENDBRANCH   1   2
BRANCH   1  22
HETATM   22  O2  UNL     1     -19.524  -4.237  -2.998  1.00  0.00    -0.347 OA
ATOM     23  H2  UNL     1     -18.715  -4.240  -2.501  1.00  0.00     0.219 HD
ENDBRANCH   1  22
BRANCH   1  24
HETATM   24  C15 UNL     1     -21.631  -4.079  -2.083  1.00  0.00     0.205 C
BRANCH  24  25
HETATM   25  O3  UNL     1     -22.649  -3.195  -1.775  1.00  0.00    -0.387 OA
ATOM     26  H3  UNL     1     -23.329  -3.163  -2.436  1.00  0.00     0.210 HD
ENDBRANCH  24  25
BRANCH  24  27
HETATM   27  C16 UNL     1     -21.451  -5.008  -0.901  1.00  0.00     0.109 C
BRANCH  27  28
HETATM   28  C17 UNL     1     -20.214  -4.836  -0.159  1.00  0.00     0.224 C
HETATM   29  O4  UNL     1     -20.169  -3.856   0.681  1.00  0.00    -0.287 OA
BRANCH  28  30
HETATM   30  C18 UNL     1     -19.039  -5.630  -0.251  1.00  0.00     0.288 C
HETATM   31  O5  UNL     1     -18.081  -5.303  -0.986  1.00  0.00    -0.264 OA
HETATM   32  N4  UNL     1     -18.901  -6.843   0.499  1.00  0.00    -0.346 N
ATOM     33  H4  UNL     1     -19.667  -7.132   1.106  1.00  0.00     0.163 HD
BRANCH  32  34
HETATM   34  C19 UNL     1     -17.735  -7.665   0.430  1.00  0.00     0.022 C
HETATM   35  C20 UNL     1     -18.052  -9.088   0.833  1.00  0.00     0.037 C
HETATM   36  C21 UNL     1     -17.152  -7.729  -0.978  1.00  0.00     0.037 C
HETATM   37  C22 UNL     1     -16.613  -7.185   1.327  1.00  0.00     0.037 C
ENDBRANCH  32  34
ENDBRANCH  28  30
ENDBRANCH  27  28
BRANCH  27  38
HETATM   38  C23 UNL     1     -21.811  -6.416  -1.223  1.00  0.00    -0.038 C
HETATM   39  C24 UNL     1     -22.249  -7.260  -0.047  1.00  0.00     0.015 C
HETATM   40  C25 UNL     1     -23.064  -6.300  -2.160  1.00  0.00     0.015 C
HETATM   41  C26 UNL     1     -20.833  -7.195  -2.035  1.00  0.00     0.015 C
ENDBRANCH  27  38
ENDBRANCH  24  27
ENDBRANCH   1  24
TORSDOF 15
ENDMDL