MODEL 2
REMARK VINA RESULT: -9.400792423      1.077      1.367
REMARK  10 active torsions:
REMARK  status: ('A' for Active; 'I' for Inactive)
REMARK    1  A    between atoms: C2_2  and  C5_5
REMARK    2  A    between atoms: C5_5  and  N1_6
REMARK    3  A    between atoms: C5_5  and  C14_27
REMARK       I    between atoms: N1_6  and  C6_8
REMARK    4  A    between atoms: C6_8  and  C7_10
REMARK       I    between atoms: N2_17  and  C11_18
REMARK    5  A    between atoms: C11_18  and  C12_20
REMARK    6  A    between atoms: C12_20  and  N3_21
REMARK    7  A    between atoms: N3_21  and  S2_23
REMARK    8  A    between atoms: C14_27  and  C15_28
REMARK    9  A    between atoms: C14_27  and  C22_35
REMARK   10  A    between atoms: C15_28  and  C16_29
ROOT
HETATM    1  N1  UNL     1       2.845  -4.744  -2.392  1.00  0.00    -0.353 N
ATOM      2  H1  UNL     1       2.763  -5.025  -3.369  1.00  0.00     0.163 HD
HETATM    3  C6  UNL     1       2.338  -5.630  -1.456  1.00  0.00     0.242 C
HETATM    4  O1  UNL     1       2.338  -5.422  -0.233  1.00  0.00    -0.271 OA
ENDROOT
BRANCH   3   5
HETATM    5  C7  UNL     1       1.755  -6.929  -1.890  1.00  0.00     0.197 C
HETATM    6  C8  UNL     1       2.593  -8.126  -1.706  1.00  0.00     0.115 C
HETATM    7  C9  UNL     1       2.934  -8.609  -0.363  1.00  0.00     0.256 C
HETATM    8  F1  UNL     1       4.071  -7.994   0.132  1.00  0.00    -0.205 F
HETATM    9  F2  UNL     1       3.339  -9.961  -0.528  1.00  0.00    -0.205 F
HETATM   10  C10 UNL     1       1.890  -8.635   0.684  1.00  0.00     0.176 C
HETATM   11  S1  UNL     1       0.274  -8.048   0.102  1.00  0.00    -0.044 SA
HETATM   12  N2  UNL     1       0.429  -7.174  -1.405  1.00  0.00    -0.276 N
HETATM   13  C11 UNL     1      -0.712  -6.740  -2.094  1.00  0.00     0.248 C
HETATM   14  O2  UNL     1      -0.639  -6.097  -3.200  1.00  0.00    -0.271 OA
BRANCH  13  15
HETATM   15  C12 UNL     1      -2.091  -6.993  -1.589  1.00  0.00     0.235 C
BRANCH  15  16
HETATM   16  N3  UNL     1      -2.799  -5.791  -1.290  1.00  0.00    -0.311 N
ATOM     17  H3  UNL     1      -2.553  -4.869  -1.650  1.00  0.00     0.172 HD
BRANCH  16  18
HETATM   18  S2  UNL     1      -4.128  -6.107  -0.238  1.00  0.00     0.223 S
HETATM   19  C13 UNL     1      -4.192  -7.856   0.133  1.00  0.00     0.185 C
HETATM   20  O3  UNL     1      -3.893  -5.429   1.106  1.00  0.00    -0.206 OA
HETATM   21  O4  UNL     1      -5.434  -5.646  -0.764  1.00  0.00    -0.206 OA
ENDBRANCH  16  18
ENDBRANCH  15  16
ENDBRANCH  13  15
ENDBRANCH   3   5
BRANCH   1  22
HETATM   22  C5  UNL     1       3.502  -3.419  -2.135  1.00  0.00     0.104 C
BRANCH  22  23
HETATM   23  C2  UNL     1       2.581  -2.420  -2.664  1.00  0.00    -0.030 C
HETATM   24  C1  UNL     1       1.122  -2.921  -2.744  1.00  0.00     0.016 C
HETATM   25  C3  UNL     1       2.850  -1.660  -3.892  1.00  0.00     0.016 C
HETATM   26  C4  UNL     1       2.450  -1.297  -1.578  1.00  0.00     0.016 C
ENDBRANCH  22  23
BRANCH  22  27
HETATM   27  C14 UNL     1       4.902  -3.533  -2.547  1.00  0.00     0.099 C
BRANCH  27  28
HETATM   28  C15 UNL     1       6.035  -2.728  -2.123  1.00  0.00     0.020 C
BRANCH  28  29
HETATM   29  C16 UNL     1       6.713  -1.656  -2.825  1.00  0.00    -0.014 C
HETATM   30  C17 UNL     1       5.846  -0.379  -2.577  1.00  0.00     0.005 C
HETATM   31  C18 UNL     1       6.154   0.241  -1.251  1.00  0.00     0.000 C
HETATM   32  C19 UNL     1       7.583   0.728  -1.198  1.00  0.00     0.000 C
HETATM   33  C20 UNL     1       8.341   0.188  -2.379  1.00  0.00     0.000 C
HETATM   34  C21 UNL     1       8.105  -1.328  -2.380  1.00  0.00     0.005 C
ENDBRANCH  28  29
ENDBRANCH  27  28
BRANCH  27  35
HETATM   35  C22 UNL     1       5.355  -4.970  -2.275  1.00  0.00     0.237 C
HETATM   36  N4  UNL     1       5.448  -5.939  -3.300  1.00  0.00    -0.062 NA
HETATM   37  O5  UNL     1       5.647  -5.270  -1.121  1.00  0.00    -0.276 OA
ENDBRANCH  27  35
ENDBRANCH  22  27
ENDBRANCH   1  22
TORSDOF 10
ENDMDL