MODEL 1
REMARK VINA RESULT: -10.820022179      0.000      0.000
REMARK  9 active torsions:
REMARK  status: ('A' for Active; 'I' for Inactive)
REMARK    1  A    between atoms: N1_1  and  C1_5
REMARK    2  A    between atoms: C1_5  and  C2_6
REMARK    3  A    between atoms: C1_5  and  C4_10
REMARK    4  A    between atoms: C2_6  and  C3_7
REMARK    5  A    between atoms: C4_10  and  C5_12
REMARK    6  A    between atoms: C5_12  and  N2_13
REMARK    7  A    between atoms: C5_12  and  C21_34
REMARK       I    between atoms: N2_13  and  C6_15
REMARK    8  A    between atoms: C6_15  and  C7_17
REMARK       I    between atoms: N3_21  and  C10_22
REMARK    9  A    between atoms: C10_22  and  C11_24
ROOT
HETATM    1  N2  UNL     1       3.256  -2.307  -3.100  1.00  0.00    -0.343 N
ATOM      2  H2  UNL     1       3.729  -2.545  -3.972  1.00  0.00     0.163 HD
HETATM    3  C6  UNL     1       2.551  -3.320  -2.389  1.00  0.00     0.251 C
HETATM    4  O4  UNL     1       1.989  -2.984  -1.332  1.00  0.00    -0.270 OA
ENDROOT
BRANCH   1   5
HETATM    5  C5  UNL     1       3.314  -0.938  -2.604  1.00  0.00     0.190 C
BRANCH   5   6
HETATM    6  C4  UNL     1       2.934   0.018  -3.695  1.00  0.00     0.184 C
HETATM    7  O3  UNL     1       3.793   0.264  -4.532  1.00  0.00    -0.293 OA
BRANCH   6   8
HETATM    8  C1  UNL     1       1.615   0.666  -3.816  1.00  0.00     0.265 C
BRANCH   8   9
HETATM    9  N1  UNL     1       1.091   0.366  -5.183  1.00  0.00    -0.068 N
ATOM     10  H13 UNL     1       0.272   0.918  -5.439  1.00  0.00     0.275 HD
ATOM     11  H12 UNL     1       1.695   0.694  -5.936  1.00  0.00     0.275 HD
ATOM     12  H11 UNL     1       0.928  -0.640  -5.193  1.00  0.00     0.275 HD
ENDBRANCH   8   9
BRANCH   8  13
HETATM   13  C2  UNL     1       0.564   0.185  -2.879  1.00  0.00     0.153 C
BRANCH  13  14
HETATM   14  C3  UNL     1       0.203   1.057  -1.778  1.00  0.00     0.174 C
HETATM   15  O1  UNL     1      -0.936   1.339  -1.379  1.00  0.00    -0.648 OA
HETATM   16  O2  UNL     1       1.246   1.678  -1.049  1.00  0.00    -0.648 OA
ENDBRANCH  13  14
ENDBRANCH   8  13
ENDBRANCH   6   8
ENDBRANCH   5   6
BRANCH   5  17
HETATM   17  C21 UNL     1       4.753  -0.705  -2.273  1.00  0.00    -0.025 A
HETATM   18  C22 UNL     1       5.729  -1.483  -2.842  1.00  0.00     0.013 A
HETATM   19  C23 UNL     1       7.082  -1.302  -2.545  1.00  0.00     0.046 A
HETATM   20  C24 UNL     1       7.448  -0.321  -1.659  1.00  0.00     0.154 A
HETATM   21  F1  UNL     1       8.755  -0.099  -1.333  1.00  0.00    -0.203 F
HETATM   22  C25 UNL     1       6.473   0.455  -1.091  1.00  0.00     0.155 A
HETATM   23  F2  UNL     1       6.829   1.433  -0.209  1.00  0.00    -0.203 F
HETATM   24  C26 UNL     1       5.129   0.272  -1.389  1.00  0.00     0.055 A
ENDBRANCH   5  17
ENDBRANCH   1   5
BRANCH   3  25
HETATM   25  C7  UNL     1       2.558  -4.677  -2.987  1.00  0.00     0.241 C
HETATM   26  S1  UNL     1       0.856  -5.303  -3.104  1.00  0.00    -0.133 SA
HETATM   27  C8  UNL     1       1.047  -6.497  -1.701  1.00  0.00     0.096 C
HETATM   28  C9  UNL     1       2.497  -6.874  -2.100  1.00  0.00     0.138 C
HETATM   29  N3  UNL     1       3.252  -5.683  -2.231  1.00  0.00    -0.329 N
HETATM   30  C10 UNL     1       4.595  -5.523  -1.707  1.00  0.00     0.230 C
HETATM   31  O5  UNL     1       5.129  -4.384  -2.019  1.00  0.00    -0.272 OA
BRANCH  30  32
HETATM   32  C11 UNL     1       5.385  -6.448  -0.907  1.00  0.00     0.042 C
HETATM   33  C12 UNL     1       4.623  -7.197   0.154  1.00  0.00     0.024 C
HETATM   34  C13 UNL     1       5.450  -8.336   0.708  1.00  0.00    -0.013 C
HETATM   35  C14 UNL     1       6.647  -7.712   1.403  1.00  0.00     0.009 C
HETATM   36  C18 UNL     1       5.908  -9.319  -0.315  1.00  0.00     0.009 C
HETATM   37  C15 UNL     1       7.440  -6.986   0.363  1.00  0.00    -0.013 C
HETATM   38  C16 UNL     1       7.941  -7.973  -0.672  1.00  0.00     0.009 C
HETATM   39  C20 UNL     1       6.642  -5.901  -0.318  1.00  0.00     0.024 C
HETATM   40  C17 UNL     1       6.737  -8.554  -1.335  1.00  0.00    -0.013 C
HETATM   41  C19 UNL     1       5.863  -7.523  -1.934  1.00  0.00     0.024 C
ENDBRANCH  30  32
ENDBRANCH   3  25
TORSDOF 9
ENDMDL