MODEL 2
REMARK VINA RESULT: -10.567270676      1.575      2.042
REMARK  10 active torsions:
REMARK  status: ('A' for Active; 'I' for Inactive)
REMARK    1  A    between atoms: C3_4  and  N1_5
REMARK       I    between atoms: N1_5  and  C4_7
REMARK    2  A    between atoms: C4_7  and  C5_9
REMARK    3  A    between atoms: C5_9  and  C6_12
REMARK       I    between atoms: C6_12  and  N2_14
REMARK    4  A    between atoms: N2_14  and  C7_16
REMARK    5  A    between atoms: C7_16  and  C8_17
REMARK    6  A    between atoms: C7_16  and  C20_31
REMARK    7  A    between atoms: C8_17  and  C9_18
REMARK       I    between atoms: C9_18  and  N3_20
REMARK    8  A    between atoms: C12_23  and  C13_24
REMARK    9  A    between atoms: C20_31  and  C21_32
REMARK   10  A    between atoms: C27_38  and  O5_39
ROOT
HETATM    1  C7  UNL     1       0.597  -5.529  -2.502  1.00  0.00     0.093 C
ENDROOT
BRANCH   1   2
HETATM    2  N2  UNL     1       1.509  -6.662  -2.392  1.00  0.00    -0.350 N
HETATM    3  C6  UNL     1       1.489  -7.567  -1.319  1.00  0.00     0.300 C
HETATM    4  O3  UNL     1       0.618  -7.360  -0.411  1.00  0.00    -0.266 OA
ATOM      5  H2  UNL     1       2.196  -6.804  -3.133  1.00  0.00     0.163 HD
BRANCH   3   6
HETATM    6  C5  UNL     1       2.430  -8.705  -1.243  1.00  0.00     0.400 C
HETATM    7  F1  UNL     1       2.534  -9.198   0.051  1.00  0.00    -0.184 F
HETATM    8  F2  UNL     1       2.085  -9.744  -2.079  1.00  0.00    -0.184 F
BRANCH   6   9
HETATM    9  C4  UNL     1       3.777  -8.228  -1.635  1.00  0.00     0.300 C
HETATM   10  N1  UNL     1       4.597  -7.478  -0.745  1.00  0.00    -0.346 N
ATOM     11  H1  UNL     1       4.231  -7.271   0.185  1.00  0.00     0.163 HD
HETATM   12  O2  UNL     1       4.274  -8.461  -2.785  1.00  0.00    -0.266 OA
BRANCH  10  13
HETATM   13  C3  UNL     1       5.902  -6.997  -1.075  1.00  0.00     0.149 C
HETATM   14  C2  UNL     1       6.327  -5.828  -0.179  1.00  0.00     0.141 C
HETATM   15  C1  UNL     1       7.804  -5.921  -0.244  1.00  0.00     0.263 C
HETATM   16  O1  UNL     1       8.643  -5.005  -0.050  1.00  0.00    -0.265 OA
HETATM   17  O6  UNL     1       8.171  -7.219  -0.565  1.00  0.00    -0.288 OA
HETATM   18  C27 UNL     1       6.994  -7.991  -0.808  1.00  0.00     0.289 C
BRANCH  18  19
HETATM   19  O5  UNL     1       7.262  -8.802  -1.906  1.00  0.00    -0.369 OA
ATOM     20  H5  UNL     1       8.148  -9.145  -1.900  1.00  0.00     0.212 HD
ENDBRANCH  18  19
ENDBRANCH  10  13
ENDBRANCH   6   9
ENDBRANCH   3   6
ENDBRANCH   1   2
BRANCH   1  21
HETATM   21  C8  UNL     1       1.399  -4.324  -2.922  1.00  0.00     0.128 C
BRANCH  21  22
HETATM   22  C9  UNL     1       2.534  -3.959  -2.089  1.00  0.00     0.221 C
HETATM   23  O4  UNL     1       2.853  -4.599  -1.056  1.00  0.00    -0.273 OA
HETATM   24  N3  UNL     1       3.339  -2.832  -2.432  1.00  0.00    -0.351 N
HETATM   25  C10 UNL     1       3.123  -1.991  -3.574  1.00  0.00     0.126 C
HETATM   26  C19 UNL     1       4.482  -2.386  -1.670  1.00  0.00     0.135 C
HETATM   27  C11 UNL     1       4.055  -0.807  -3.417  1.00  0.00     0.031 C
HETATM   28  C12 UNL     1       4.688  -0.933  -2.047  1.00  0.00     0.038 C
BRANCH  28  29
HETATM   29  C13 UNL     1       6.120  -0.633  -2.039  1.00  0.00    -0.052 A
HETATM   30  C14 UNL     1       6.598   0.594  -1.654  1.00  0.00     0.007 A
HETATM   31  C15 UNL     1       7.958   0.871  -1.649  1.00  0.00     0.001 A
HETATM   32  C16 UNL     1       8.865  -0.106  -2.039  1.00  0.00     0.000 A
HETATM   33  C17 UNL     1       8.394  -1.336  -2.424  1.00  0.00     0.001 A
HETATM   34  C18 UNL     1       7.053  -1.581  -2.420  1.00  0.00     0.007 A
ENDBRANCH  28  29
ENDBRANCH  21  22
ENDBRANCH   1  21
BRANCH   1  35
HETATM   35  C20 UNL     1      -0.510  -5.795  -3.452  1.00  0.00     0.030 C
BRANCH  35  36
HETATM   36  C21 UNL     1      -1.897  -5.791  -2.982  1.00  0.00    -0.013 C
HETATM   37  C22 UNL     1      -2.979  -5.367  -3.905  1.00  0.00     0.005 C
HETATM   38  C23 UNL     1      -4.089  -4.751  -3.028  1.00  0.00     0.000 C
HETATM   39  C24 UNL     1      -4.036  -5.310  -1.639  1.00  0.00     0.000 C
HETATM   40  C25 UNL     1      -3.591  -6.720  -1.520  1.00  0.00     0.000 C
HETATM   41  C26 UNL     1      -2.359  -7.081  -2.319  1.00  0.00     0.005 C
ENDBRANCH  35  36
ENDBRANCH   1  35
TORSDOF 10
ENDMDL