MODEL 4
REMARK VINA RESULT: -8.747785880      1.536      1.950
REMARK  9 active torsions:
REMARK  status: ('A' for Active; 'I' for Inactive)
REMARK    1  A    between atoms: C2_2  and  C3_5
REMARK    2  A    between atoms: C3_5  and  C4_6
REMARK    3  A    between atoms: C4_6  and  C5_7
REMARK       I    between atoms: C5_7  and  N1_9
REMARK    4  A    between atoms: N1_9  and  C6_11
REMARK    5  A    between atoms: C6_11  and  C7_12
REMARK    6  A    between atoms: C6_11  and  C11_22
REMARK       I    between atoms: C7_12  and  N2_14
REMARK    7  A    between atoms: N2_14  and  S1_16
REMARK    8  A    between atoms: S1_16  and  C8_19
REMARK    9  A    between atoms: C16_28  and  C18_30
ROOT
HETATM    1  C6  UNL     1       5.155  -4.258  -2.485  1.00  0.00     0.186 C
ENDROOT
BRANCH   1   2
HETATM    2  N1  UNL     1       6.376  -3.884  -1.729  1.00  0.00    -0.347 N
HETATM    3  C5  UNL     1       7.439  -3.176  -2.412  1.00  0.00     0.218 C
HETATM    4  O1  UNL     1       7.288  -2.905  -3.616  1.00  0.00    -0.274 OA
ATOM      5  H1  UNL     1       6.465  -4.122  -0.741  1.00  0.00     0.163 HD
BRANCH   3   6
HETATM    6  C4  UNL     1       8.645  -2.802  -1.685  1.00  0.00     0.108 C
BRANCH   6   7
HETATM    7  C3  UNL     1       9.120  -1.401  -1.816  1.00  0.00     0.088 C
BRANCH   7   8
HETATM    8  C2  UNL     1       8.163  -0.310  -1.472  1.00  0.00     0.240 C
HETATM    9  C1  UNL     1       8.261   0.725  -2.617  1.00  0.00     0.090 C
HETATM   10  F1  UNL     1       6.893  -0.711  -1.308  1.00  0.00    -0.207 F
HETATM   11  F2  UNL     1       8.578   0.398  -0.342  1.00  0.00    -0.207 F
ENDBRANCH   7   8
ENDBRANCH   6   7
ENDBRANCH   3   6
ENDBRANCH   1   2
BRANCH   1  12
HETATM   12  C7  UNL     1       4.203  -3.140  -2.358  1.00  0.00     0.254 C
HETATM   13  O2  UNL     1       3.295  -3.189  -1.493  1.00  0.00    -0.270 OA
HETATM   14  N2  UNL     1       4.287  -2.003  -3.185  1.00  0.00    -0.252 N
ATOM     15  H2  UNL     1       5.018  -1.932  -3.893  1.00  0.00     0.181 HD
BRANCH  14  16
HETATM   16  S1  UNL     1       3.138  -0.732  -2.989  1.00  0.00     0.237 S
HETATM   17  O3  UNL     1       1.769  -1.248  -3.387  1.00  0.00    -0.205 OA
HETATM   18  O4  UNL     1       3.449   0.384  -3.958  1.00  0.00    -0.205 OA
BRANCH  16  19
HETATM   19  C8  UNL     1       3.091  -0.084  -1.357  1.00  0.00     0.130 A
HETATM   20  C9  UNL     1       2.578   1.284  -1.115  1.00  0.00     0.023 A
HETATM   21  C10 UNL     1       4.057   0.941  -0.898  1.00  0.00     0.023 A
ENDBRANCH  16  19
ENDBRANCH  14  16
ENDBRANCH   1  12
BRANCH   1  22
HETATM   22  C11 UNL     1       4.732  -5.551  -1.910  1.00  0.00     0.056 C
HETATM   23  C12 UNL     1       3.986  -6.401  -2.921  1.00  0.00     0.014 C
HETATM   24  C13 UNL     1       3.358  -7.464  -2.072  1.00  0.00     0.027 C
HETATM   25  C14 UNL     1       4.281  -8.254  -1.198  1.00  0.00     0.092 C
HETATM   26  N3  UNL     1       5.444  -7.608  -0.791  1.00  0.00    -0.369 N
HETATM   27  C22 UNL     1       3.353  -8.759  -0.091  1.00  0.00    -0.027 C
HETATM   28  C15 UNL     1       5.880  -6.464  -1.481  1.00  0.00     0.067 C
HETATM   29  C16 UNL     1       6.409  -8.285  -0.064  1.00  0.00     0.117 C
HETATM   30  C17 UNL     1       6.357  -7.762   1.392  1.00  0.00     0.050 C
HETATM   31  C19 UNL     1       6.309  -9.798  -0.060  1.00  0.00     0.042 C
HETATM   32  C20 UNL     1       5.058 -10.453   0.193  1.00  0.00     0.004 C
HETATM   33  C21 UNL     1       3.966  -9.716   0.859  1.00  0.00     0.011 C
HETATM   34  C23 UNL     1       2.287  -9.550  -0.881  1.00  0.00     0.017 C
HETATM   35  C24 UNL     1       2.596  -7.663   0.590  1.00  0.00     0.017 C
BRANCH  29  36
HETATM   36  C18 UNL     1       7.826  -8.094  -0.465  1.00  0.00     0.202 C
HETATM   37  O5  UNL     1       8.551  -8.887  -1.075  1.00  0.00    -0.646 OA
HETATM   38  O6  UNL     1       8.494  -6.880  -0.143  1.00  0.00    -0.646 OA
ENDBRANCH  29  36
ENDBRANCH   1  22
TORSDOF 9
ENDMDL