MODEL 3
REMARK VINA RESULT: -8.131496959      3.435      7.284
REMARK  11 active torsions:
REMARK  status: ('A' for Active; 'I' for Inactive)
REMARK       I    between atoms: C2_2  and  N1_4
REMARK    1  A    between atoms: N1_4  and  C3_6
REMARK    2  A    between atoms: C6_9  and  S1_10
REMARK    3  A    between atoms: S1_10  and  N2_13
REMARK    4  A    between atoms: N2_13  and  C7_15
REMARK    5  A    between atoms: C7_15  and  C8_16
REMARK    6  A    between atoms: C7_15  and  C19_34
REMARK       I    between atoms: C8_16  and  N3_18
REMARK    7  A    between atoms: N3_18  and  C9_20
REMARK    8  A    between atoms: C9_20  and  C10_21
REMARK    9  A    between atoms: C9_20  and  C15_30
REMARK       I    between atoms: C10_21  and  N4_23
REMARK   10  A    between atoms: N4_23  and  C11_24
REMARK   11  A    between atoms: N4_23  and  C14_27
ROOT
HETATM    1  C7  UNL     1       3.101  -1.945  -1.670  1.00  0.00     0.192 C
ENDROOT
BRANCH   1   2
HETATM    2  N2  UNL     1       4.313  -1.812  -2.478  1.00  0.00    -0.301 N
ATOM      3  H2  UNL     1       4.594  -2.516  -3.161  1.00  0.00     0.173 HD
BRANCH   2   4
HETATM    4  S1  UNL     1       5.213  -0.412  -2.201  1.00  0.00     0.259 S
HETATM    5  O2  UNL     1       4.758   0.248  -0.916  1.00  0.00    -0.201 OA
HETATM    6  O3  UNL     1       5.134   0.583  -3.326  1.00  0.00    -0.201 OA
BRANCH   4   7
HETATM    7  C6  UNL     1       6.904  -0.798  -2.004  1.00  0.00     0.079 A
HETATM    8  C5  UNL     1       7.780   0.089  -1.399  1.00  0.00     0.027 A
HETATM    9  C4  UNL     1       9.109  -0.184  -1.236  1.00  0.00     0.031 A
HETATM   10  C3  UNL     1       9.659  -1.390  -1.677  1.00  0.00     0.034 A
HETATM   11  C24 UNL     1       8.806  -2.258  -2.268  1.00  0.00     0.031 A
HETATM   12  C23 UNL     1       7.444  -1.979  -2.437  1.00  0.00     0.027 A
BRANCH  10  13
HETATM   13  N1  UNL     1      11.033  -1.621  -1.505  1.00  0.00    -0.328 N
HETATM   14  C2  UNL     1      11.613  -2.878  -1.278  1.00  0.00     0.218 C
HETATM   15  C1  UNL     1      13.132  -2.973  -1.114  1.00  0.00     0.117 C
HETATM   16  O1  UNL     1      11.024  -3.966  -1.191  1.00  0.00    -0.274 OA
ATOM     17  H1  UNL     1      11.656  -0.814  -1.547  1.00  0.00     0.169 HD
ENDBRANCH  10  13
ENDBRANCH   4   7
ENDBRANCH   2   4
ENDBRANCH   1   2
BRANCH   1  18
HETATM   18  C8  UNL     1       3.114  -3.315  -1.116  1.00  0.00     0.242 C
HETATM   19  O4  UNL     1       2.614  -3.532   0.000  1.00  0.00    -0.271 OA
HETATM   20  N3  UNL     1       3.675  -4.389  -1.814  1.00  0.00    -0.345 N
ATOM     21  H3  UNL     1       4.082  -4.223  -2.735  1.00  0.00     0.163 HD
BRANCH  20  22
HETATM   22  C9  UNL     1       3.695  -5.760  -1.256  1.00  0.00     0.184 C
BRANCH  22  23
HETATM   23  C10 UNL     1       4.969  -6.421  -1.628  1.00  0.00     0.247 C
HETATM   24  O5  UNL     1       5.473  -6.166  -2.798  1.00  0.00    -0.271 OA
HETATM   25  N4  UNL     1       5.718  -7.308  -0.842  1.00  0.00    -0.290 N
BRANCH  25  26
HETATM   26  C11 UNL     1       5.368  -7.704   0.488  1.00  0.00     0.084 C
HETATM   27  C12 UNL     1       6.616  -7.659   1.400  1.00  0.00     0.032 C
HETATM   28  C13 UNL     1       4.765  -9.092   0.540  1.00  0.00     0.032 C
ENDBRANCH  25  26
BRANCH  25  29
HETATM   29  C14 UNL     1       6.946  -7.868  -1.437  1.00  0.00     0.463 C
HETATM   30  F1  UNL     1       8.064  -7.302  -0.906  1.00  0.00    -0.191 F
HETATM   31  F2  UNL     1       6.989  -9.242  -1.276  1.00  0.00    -0.191 F
ENDBRANCH  25  29
ENDBRANCH  22  23
BRANCH  22  32
HETATM   32  C15 UNL     1       2.476  -6.499  -1.760  1.00  0.00    -0.022 C
HETATM   33  C16 UNL     1       1.485  -6.596  -0.615  1.00  0.00     0.017 C
HETATM   34  C17 UNL     1       2.846  -7.899  -2.131  1.00  0.00     0.017 C
HETATM   35  C18 UNL     1       1.853  -5.849  -2.971  1.00  0.00     0.017 C
ENDBRANCH  22  32
ENDBRANCH  20  22
ENDBRANCH   1  18
BRANCH   1  36
HETATM   36  C19 UNL     1       1.884  -1.808  -2.563  1.00  0.00    -0.022 C
HETATM   37  C20 UNL     1       0.816  -2.838  -2.337  1.00  0.00     0.017 C
HETATM   38  C21 UNL     1       2.275  -1.909  -4.028  1.00  0.00     0.017 C
HETATM   39  C22 UNL     1       1.257  -0.444  -2.370  1.00  0.00     0.017 C
ENDBRANCH   1  36
TORSDOF 11
ENDMDL