MODEL 3
REMARK VINA RESULT: -8.042834157      1.296      1.443
REMARK  13 active torsions:
REMARK  status: ('A' for Active; 'I' for Inactive)
REMARK    1  A    between atoms: C2_2  and  C3_3
REMARK    2  A    between atoms: C2_2  and  N3_33
REMARK    3  A    between atoms: C3_3  and  O1_4
REMARK    4  A    between atoms: C3_3  and  C4_6
REMARK    5  A    between atoms: C4_6  and  C5_8
REMARK    6  A    between atoms: C5_8  and  C6_9
REMARK    7  A    between atoms: C6_9  and  C7_10
REMARK    8  A    between atoms: C6_9  and  C20_29
REMARK    9  A    between atoms: C7_10  and  C8_12
REMARK   10  A    between atoms: C8_12  and  N1_13
REMARK   11  A    between atoms: C8_12  and  C16_25
REMARK   12  A    between atoms: C10_15  and  C11_16
REMARK       I    between atoms: C11_16  and  N2_18
REMARK   13  A    between atoms: N2_18  and  C12_20
ROOT
HETATM    1  C6  UNL     1       5.915  -6.778  -1.700  1.00  0.00     0.075 C
ENDROOT
BRANCH   1   2
HETATM    2  C5  UNL     1       6.348  -5.482  -1.116  1.00  0.00     0.094 C
BRANCH   2   3
HETATM    3  C4  UNL     1       7.348  -4.649  -1.785  1.00  0.00     0.158 C
HETATM    4  O2  UNL     1       7.314  -4.678  -3.038  1.00  0.00    -0.295 OA
BRANCH   3   5
HETATM    5  C3  UNL     1       8.375  -3.786  -1.174  1.00  0.00     0.209 C
BRANCH   5   6
HETATM    6  C2  UNL     1       8.688  -2.620  -2.038  1.00  0.00     0.111 C
HETATM    7  C1  UNL     1      10.121  -2.171  -1.819  1.00  0.00     0.035 C
BRANCH   6   8
HETATM    8  N3  UNL     1       7.823  -1.517  -1.924  1.00  0.00    -0.400 N
HETATM    9  C24 UNL     1       8.361  -0.256  -1.577  1.00  0.00     0.123 C
HETATM   10  C25 UNL     1       7.248   0.733  -1.900  1.00  0.00     0.100 C
HETATM   11  C26 UNL     1       6.037  -0.140  -2.229  1.00  0.00     0.260 C
HETATM   12  F1  UNL     1       5.375  -0.537  -1.108  1.00  0.00    -0.204 F
HETATM   13  F2  UNL     1       5.193   0.416  -3.130  1.00  0.00    -0.204 F
HETATM   14  C27 UNL     1       6.792  -1.332  -2.877  1.00  0.00     0.196 C
ENDBRANCH   6   8
ENDBRANCH   5   6
BRANCH   5  15
HETATM   15  O1  UNL     1       9.564  -4.559  -1.068  1.00  0.00    -0.386 OA
ATOM     16  H1  UNL     1       9.555  -5.185  -1.783  1.00  0.00     0.210 HD
ENDBRANCH   5  15
ENDBRANCH   3   5
ENDBRANCH   2   3
ENDBRANCH   1   2
BRANCH   1  17
HETATM   17  C7  UNL     1       4.483  -6.628  -2.115  1.00  0.00     0.172 C
HETATM   18  O3  UNL     1       4.328  -6.783  -3.318  1.00  0.00    -0.291 OA
BRANCH  17  19
HETATM   19  C8  UNL     1       3.317  -6.342  -1.278  1.00  0.00     0.043 C
BRANCH  19  20
HETATM   20  N1  UNL     1       2.854  -4.994  -1.358  1.00  0.00    -0.266 NA
HETATM   21  C9  UNL     1       2.842  -4.106  -0.256  1.00  0.00     0.126 A
HETATM   22  C10 UNL     1       3.629  -3.849  -1.534  1.00  0.00     0.168 A
BRANCH  22  23
HETATM   23  C11 UNL     1       3.127  -2.610  -2.209  1.00  0.00     0.237 C
HETATM   24  O4  UNL     1       3.354  -2.414  -3.466  1.00  0.00    -0.272 OA
HETATM   25  N2  UNL     1       2.403  -1.589  -1.567  1.00  0.00    -0.353 N
ATOM     26  H2  UNL     1       2.167  -1.718  -0.583  1.00  0.00     0.163 HD
BRANCH  25  27
HETATM   27  C12 UNL     1       1.979  -0.386  -2.202  1.00  0.00     0.110 C
HETATM   28  C13 UNL     1       0.498  -0.393  -2.618  1.00  0.00     0.053 C
HETATM   29  C14 UNL     1       0.407   1.110  -2.983  1.00  0.00     0.169 C
HETATM   30  O5  UNL     1       0.949   1.664  -1.837  1.00  0.00    -0.389 OA
HETATM   31  C15 UNL     1       2.037   0.873  -1.431  1.00  0.00     0.192 C
ENDBRANCH  25  27
ENDBRANCH  22  23
ENDBRANCH  19  20
BRANCH  19  32
HETATM   32  C16 UNL     1       2.256  -7.411  -1.234  1.00  0.00    -0.010 C
HETATM   33  C17 UNL     1       2.659  -8.766  -1.706  1.00  0.00     0.021 C
HETATM   34  C18 UNL     1       1.873  -7.653   0.266  1.00  0.00     0.021 C
HETATM   35  C19 UNL     1       0.975  -6.876  -1.858  1.00  0.00     0.021 C
ENDBRANCH  19  32
ENDBRANCH  17  19
ENDBRANCH   1  17
BRANCH   1  36
HETATM   36  C20 UNL     1       6.156  -8.022  -0.949  1.00  0.00    -0.040 C
HETATM   37  C21 UNL     1       7.674  -8.148  -0.654  1.00  0.00     0.015 C
HETATM   38  C22 UNL     1       5.559  -7.923   0.453  1.00  0.00     0.015 C
HETATM   39  C23 UNL     1       5.747  -9.294  -1.570  1.00  0.00     0.015 C
ENDBRANCH   1  36
TORSDOF 13
ENDMDL