MODEL 1
REMARK VINA RESULT: -10.035767249      0.000      0.000
REMARK  10 active torsions:
REMARK  status: ('A' for Active; 'I' for Inactive)
REMARK       I    between atoms: C1_2  and  N1_3
REMARK    1  A    between atoms: C1_2  and  C10_20
REMARK    2  A    between atoms: N1_3  and  C2_5
REMARK    3  A    between atoms: C5_8  and  N2_9
REMARK    4  A    between atoms: N2_9  and  S1_11
REMARK    5  A    between atoms: S1_11  and  C6_14
REMARK    6  A    between atoms: C6_14  and  C7_15
REMARK    7  A    between atoms: C10_20  and  C11_22
REMARK    8  A    between atoms: C19_31  and  C20_32
REMARK    9  A    between atoms: C20_32  and  O6_33
REMARK   10  A    between atoms: C20_32  and  C21_35
ROOT
HETATM    1  C10 UNL     1       2.215  -4.485  -2.139  1.00  0.00     0.222 C
HETATM    2  O4  UNL     1       1.419  -5.146  -2.853  1.00  0.00    -0.287 OA
ENDROOT
BRANCH   1   3
HETATM    3  C1  UNL     1       2.933  -5.098  -1.034  1.00  0.00     0.288 C
HETATM    4  O1  UNL     1       2.766  -4.793   0.172  1.00  0.00    -0.264 OA
HETATM    5  N1  UNL     1       3.884  -6.101  -1.312  1.00  0.00    -0.350 N
ATOM      6  H1  UNL     1       4.040  -6.368  -2.284  1.00  0.00     0.163 HD
BRANCH   5   7
HETATM    7  C2  UNL     1       4.654  -6.774  -0.273  1.00  0.00     0.085 C
HETATM    8  C3  UNL     1       4.247  -8.218  -0.194  1.00  0.00     0.027 C
HETATM    9  C4  UNL     1       5.324  -9.061   0.407  1.00  0.00     0.028 C
HETATM   10  C5  UNL     1       6.554  -9.161  -0.436  1.00  0.00     0.093 C
HETATM   11  C8  UNL     1       6.553  -7.955  -1.386  1.00  0.00     0.028 C
HETATM   12  C9  UNL     1       6.108  -6.711  -0.670  1.00  0.00     0.027 C
BRANCH  10  13
HETATM   13  N2  UNL     1       7.731  -9.156   0.370  1.00  0.00    -0.315 N
ATOM     14  H2  UNL     1       8.094  -8.296   0.781  1.00  0.00     0.172 HD
BRANCH  13  15
HETATM   15  S1  UNL     1       8.496 -10.643   0.612  1.00  0.00     0.232 S
HETATM   16  O2  UNL     1       9.890 -10.634  -0.017  1.00  0.00    -0.206 OA
HETATM   17  O3  UNL     1       8.787 -10.748   2.111  1.00  0.00    -0.206 OA
BRANCH  15  18
HETATM   18  C6  UNL     1       7.624 -12.070   0.101  1.00  0.00     0.234 C
BRANCH  18  19
HETATM   19  C7  UNL     1       7.934 -12.576  -1.264  1.00  0.00     0.368 C
HETATM   20  F1  UNL     1       7.846 -11.578  -2.232  1.00  0.00    -0.213 F
HETATM   21  F2  UNL     1       9.046 -13.352  -1.385  1.00  0.00    -0.213 F
ENDBRANCH  18  19
ENDBRANCH  15  18
ENDBRANCH  13  15
ENDBRANCH  10  13
ENDBRANCH   5   7
ENDBRANCH   1   3
BRANCH   1  22
HETATM   22  C11 UNL     1       2.442  -3.044  -2.412  1.00  0.00     0.090 C
HETATM   23  C12 UNL     1       1.947  -2.609  -3.776  1.00  0.00     0.188 C
HETATM   24  O5  UNL     1       1.698  -1.193  -3.723  1.00  0.00    -0.350 OA
HETATM   25  C13 UNL     1       1.964  -0.308  -2.688  1.00  0.00     0.075 A
HETATM   26  C14 UNL     1       0.997   0.675  -2.497  1.00  0.00     0.037 A
HETATM   27  C18 UNL     1       3.078  -0.346  -1.876  1.00  0.00    -0.018 A
HETATM   28  C15 UNL     1       1.147   1.613  -1.495  1.00  0.00     0.003 A
HETATM   29  C16 UNL     1       2.251   1.593  -0.672  1.00  0.00     0.001 A
HETATM   30  C17 UNL     1       3.198   0.620  -0.870  1.00  0.00     0.010 A
HETATM   31  C19 UNL     1       4.200  -1.281  -1.929  1.00  0.00     0.055 C
HETATM   32  C27 UNL     1       3.872  -2.712  -2.161  1.00  0.00     0.027 C
BRANCH  31  33
HETATM   33  C20 UNL     1       5.262  -0.903  -2.964  1.00  0.00     0.159 C
BRANCH  33  34
HETATM   34  O6  UNL     1       4.966   0.273  -3.623  1.00  0.00    -0.390 OA
ATOM     35  H6  UNL     1       5.605   0.487  -4.293  1.00  0.00     0.210 HD
ENDBRANCH  33  34
BRANCH  33  36
HETATM   36  C21 UNL     1       6.634  -0.905  -2.411  1.00  0.00    -0.029 A
HETATM   37  C22 UNL     1       7.105   0.186  -1.715  1.00  0.00     0.010 A
HETATM   38  C23 UNL     1       8.372   0.196  -1.200  1.00  0.00     0.001 A
HETATM   39  C24 UNL     1       9.209  -0.873  -1.357  1.00  0.00     0.000 A
HETATM   40  C25 UNL     1       8.776  -1.978  -2.043  1.00  0.00     0.001 A
HETATM   41  C26 UNL     1       7.492  -1.977  -2.560  1.00  0.00     0.010 A
ENDBRANCH  33  36
ENDBRANCH  31  33
ENDBRANCH   1  22
TORSDOF 10
ENDMDL