MODEL 1
REMARK VINA RESULT: -9.834508417      0.000      0.000
REMARK  11 active torsions:
REMARK  status: ('A' for Active; 'I' for Inactive)
REMARK    1  A    between atoms: N1_2  and  N2_4
REMARK       I    between atoms: N2_4  and  C3_6
REMARK    2  A    between atoms: C3_6  and  C4_8
REMARK    3  A    between atoms: C4_8  and  N3_9
REMARK    4  A    between atoms: N3_9  and  C5_11
REMARK    5  A    between atoms: C5_11  and  C6_12
REMARK    6  A    between atoms: C5_11  and  C8_17
REMARK    7  A    between atoms: C6_12  and  O2_13
REMARK    8  A    between atoms: O2_13  and  C7_14
REMARK    9  A    between atoms: C8_17  and  C9_19
REMARK   10  A    between atoms: C23_33  and  O5_34
REMARK   11  A    between atoms: O5_34  and  C24_35
ROOT
HETATM    1  C9  UNL     1       7.813  -0.100  -1.210  1.00  0.00     0.062 C
HETATM    2  C10 UNL     1       7.460   1.356  -1.376  1.00  0.00     0.013 C
HETATM    3  C11 UNL     1       5.956   1.309  -0.962  1.00  0.00     0.006 C
HETATM    4  C12 UNL     1       5.512   0.249  -1.883  1.00  0.00    -0.005 C
HETATM    5  C13 UNL     1       6.628  -0.809  -1.719  1.00  0.00     0.001 C
HETATM    6  C14 UNL     1       6.670  -1.470  -3.044  1.00  0.00     0.006 C
HETATM    7  C15 UNL     1       5.256  -1.513  -3.642  1.00  0.00     0.006 C
HETATM    8  C16 UNL     1       4.169  -1.587  -2.569  1.00  0.00    -0.003 C
HETATM    9  C17 UNL     1       4.281  -0.526  -1.527  1.00  0.00    -0.005 C
HETATM   10  C18 UNL     1       3.097   0.317  -1.271  1.00  0.00     0.006 C
HETATM   11  C19 UNL     1       2.283   0.613  -2.479  1.00  0.00     0.016 C
HETATM   12  C20 UNL     1       1.957  -0.575  -3.295  1.00  0.00     0.031 A
HETATM   13  C21 UNL     1       1.518  -0.126  -4.687  1.00  0.00     0.022 C
HETATM   14  C22 UNL     1       2.867  -1.729  -3.252  1.00  0.00     0.039 A
HETATM   15  C23 UNL     1       1.837  -2.607  -2.579  1.00  0.00     0.200 A
HETATM   16  C27 UNL     1       0.891  -1.427  -2.593  1.00  0.00     0.277 A
HETATM   17  F1  UNL     1       0.481  -0.979  -1.374  1.00  0.00    -0.203 F
HETATM   18  F2  UNL     1      -0.234  -1.611  -3.393  1.00  0.00    -0.203 F
ENDROOT
BRANCH   1  19
HETATM   19  C8  UNL     1       9.124  -0.538  -1.623  1.00  0.00     0.156 C
HETATM   20  O4  UNL     1       9.740   0.165  -2.404  1.00  0.00    -0.295 OA
BRANCH  19  21
HETATM   21  C5  UNL     1       9.804  -1.790  -1.184  1.00  0.00     0.175 C
BRANCH  21  22
HETATM   22  N3  UNL     1      11.232  -1.675  -1.254  1.00  0.00    -0.381 N
ATOM     23  H3  UNL     1      11.684  -0.762  -1.296  1.00  0.00     0.160 HD
BRANCH  22  24
HETATM   24  C4  UNL     1      11.990  -2.860  -1.262  1.00  0.00     0.160 C
BRANCH  24  25
HETATM   25  C3  UNL     1      13.390  -2.573  -1.678  1.00  0.00     0.270 C
HETATM   26  N2  UNL     1      14.023  -1.336  -1.278  1.00  0.00    -0.285 N
ATOM     27  H2  UNL     1      13.509  -0.665  -0.708  1.00  0.00     0.184 HD
HETATM   28  O1  UNL     1      14.093  -3.347  -2.375  1.00  0.00    -0.266 OA
BRANCH  26  29
HETATM   29  N1  UNL     1      15.316  -1.060  -1.663  1.00  0.00    -0.237 NA
HETATM   30  C1  UNL     1      15.289  -0.044  -2.690  1.00  0.00     0.135 C
HETATM   31  C2  UNL     1      16.152  -0.680  -0.546  1.00  0.00     0.135 C
ENDBRANCH  26  29
ENDBRANCH  24  25
ENDBRANCH  22  24
ENDBRANCH  21  22
BRANCH  21  32
HETATM   32  C6  UNL     1       9.384  -3.001  -1.928  1.00  0.00     0.213 C
BRANCH  32  33
HETATM   33  O2  UNL     1       8.485  -3.825  -1.214  1.00  0.00    -0.304 OA
BRANCH  33  34
HETATM   34  C7  UNL     1       8.862  -5.141  -1.010  1.00  0.00     0.372 C
HETATM   35  N4  UNL     1       9.843  -5.722  -1.816  1.00  0.00    -0.032 NA
HETATM   36  O3  UNL     1       8.313  -5.807  -0.099  1.00  0.00    -0.242 OA
ENDBRANCH  33  34
ENDBRANCH  32  33
ENDBRANCH  21  32
ENDBRANCH  19  21
ENDBRANCH   1  19
BRANCH  15  37
HETATM   37  O5  UNL     1       1.310  -3.623  -3.354  1.00  0.00    -0.374 OA
BRANCH  37  38
HETATM   38  C24 UNL     1       1.524  -4.899  -2.840  1.00  0.00     0.122 A
HETATM   39  C25 UNL     1       2.905  -5.453  -2.784  1.00  0.00     0.034 A
HETATM   40  C26 UNL     1       2.262  -4.920  -1.523  1.00  0.00     0.034 A
ENDBRANCH  37  38
ENDBRANCH  15  37
TORSDOF 11
ENDMDL