MODEL 2
REMARK VINA RESULT: -8.880322357      3.610      8.701
REMARK  10 active torsions:
REMARK  status: ('A' for Active; 'I' for Inactive)
REMARK    1  A    between atoms: C2_2  and  C4_4
REMARK    2  A    between atoms: C4_4  and  N1_5
REMARK    3  A    between atoms: C4_4  and  C13_15
REMARK    4  A    between atoms: N1_5  and  C5_7
REMARK       I    between atoms: C13_15  and  N2_17
REMARK    5  A    between atoms: C16_21  and  O3_22
REMARK    6  A    between atoms: C19_26  and  C20_27
REMARK       I    between atoms: C20_27  and  N3_29
REMARK    7  A    between atoms: N3_29  and  C21_31
REMARK    8  A    between atoms: C21_31  and  C22_32
REMARK    9  A    between atoms: C21_31  and  C25_38
REMARK   10  A    between atoms: C22_32  and  C23_34
ROOT
HETATM    1  C13 UNL     1       1.687  -3.991  -2.395  1.00  0.00     0.267 C
HETATM    2  O1  UNL     1       0.767  -4.278  -3.238  1.00  0.00    -0.269 OA
HETATM    3  N2  UNL     1       2.351  -5.038  -1.779  1.00  0.00    -0.210 N
HETATM    4  O2  UNL     1       3.343  -4.845  -0.887  1.00  0.00    -0.269 OA
HETATM    5  C14 UNL     1       4.534  -5.317  -1.396  1.00  0.00     0.161 A
HETATM    6  C15 UNL     1       5.543  -5.592  -0.297  1.00  0.00     0.067 A
HETATM    7  C16 UNL     1       5.426  -7.053  -0.586  1.00  0.00     0.127 A
HETATM    8  C17 UNL     1       4.466  -6.798  -1.722  1.00  0.00     0.048 A
HETATM    9  C18 UNL     1       3.073  -7.337  -1.451  1.00  0.00     0.047 C
HETATM   10  C19 UNL     1       2.017  -6.429  -2.066  1.00  0.00     0.210 C
ENDROOT
BRANCH   1  11
HETATM   11  C4  UNL     1       1.932  -2.504  -2.183  1.00  0.00     0.175 C
BRANCH  11  12
HETATM   12  C2  UNL     1       1.026  -1.724  -3.062  1.00  0.00     0.009 C
HETATM   13  C1  UNL     1       0.202  -0.687  -2.327  1.00  0.00     0.012 C
HETATM   14  C3  UNL     1       1.679  -1.010  -4.221  1.00  0.00     0.012 C
ENDBRANCH  11  12
BRANCH  11  15
HETATM   15  N1  UNL     1       3.312  -2.278  -2.335  1.00  0.00    -0.404 N
ATOM     16  H1  UNL     1       3.765  -2.795  -3.088  1.00  0.00     0.154 HD
BRANCH  15  17
HETATM   17  C5  UNL     1       4.130  -1.450  -1.601  1.00  0.00     0.085 C
HETATM   18  C6  UNL     1       3.590  -0.159  -1.139  1.00  0.00     0.025 C
HETATM   19  C7  UNL     1       4.607   0.897  -0.753  1.00  0.00     0.002 C
HETATM   20  C8  UNL     1       5.738   1.065  -1.698  1.00  0.00     0.001 C
HETATM   21  C9  UNL     1       6.370  -0.306  -1.860  1.00  0.00     0.011 C
HETATM   22  C10 UNL     1       5.422  -1.277  -2.463  1.00  0.00    -0.028 C
HETATM   23  C11 UNL     1       5.063  -0.819  -3.847  1.00  0.00     0.017 C
HETATM   24  C12 UNL     1       6.108  -2.622  -2.560  1.00  0.00     0.017 C
ENDBRANCH  15  17
ENDBRANCH  11  15
ENDBRANCH   1  11
BRANCH  10  25
HETATM   25  C20 UNL     1       0.709  -6.840  -1.498  1.00  0.00     0.243 C
HETATM   26  O4  UNL     1       0.788  -7.293  -0.303  1.00  0.00    -0.271 OA
HETATM   27  N3  UNL     1      -0.508  -6.751  -2.186  1.00  0.00    -0.347 N
ATOM     28  H3  UNL     1      -0.492  -6.380  -3.136  1.00  0.00     0.163 HD
BRANCH  27  29
HETATM   29  C21 UNL     1      -1.802  -7.156  -1.629  1.00  0.00     0.164 C
BRANCH  29  30
HETATM   30  C22 UNL     1      -2.722  -6.056  -1.982  1.00  0.00     0.220 C
HETATM   31  O5  UNL     1      -3.435  -5.614  -1.058  1.00  0.00    -0.289 OA
BRANCH  30  32
HETATM   32  C23 UNL     1      -2.896  -5.432  -3.302  1.00  0.00     0.301 C
HETATM   33  C24 UNL     1      -3.274  -3.963  -3.179  1.00  0.00     0.099 C
HETATM   34  F1  UNL     1      -1.894  -5.627  -4.180  1.00  0.00    -0.198 F
HETATM   35  F2  UNL     1      -4.037  -6.029  -3.887  1.00  0.00    -0.198 F
ENDBRANCH  30  32
ENDBRANCH  29  30
BRANCH  29  36
HETATM   36  C25 UNL     1      -2.191  -8.510  -2.106  1.00  0.00     0.008 C
HETATM   37  C26 UNL     1      -1.567  -9.675  -1.402  1.00  0.00     0.012 C
HETATM   38  C27 UNL     1      -3.706  -8.659  -1.904  1.00  0.00     0.012 C
ENDBRANCH  29  36
ENDBRANCH  27  29
ENDBRANCH  10  25
BRANCH   7  39
HETATM   39  O3  UNL     1       4.841  -7.737   0.491  1.00  0.00    -0.395 OA
ATOM     40  H3  UNL     1       3.956  -7.433   0.650  1.00  0.00     0.210 HD
ENDBRANCH   7  39
TORSDOF 10
ENDMDL