MODEL 5
REMARK VINA RESULT: -8.720474674      1.656      1.950
REMARK  14 active torsions:
REMARK  status: ('A' for Active; 'I' for Inactive)
REMARK    1  A    between atoms: C2_2  and  C3_3
REMARK    2  A    between atoms: C3_3  and  O1_4
REMARK    3  A    between atoms: C3_3  and  C4_6
REMARK    4  A    between atoms: C4_6  and  N1_7
REMARK    5  A    between atoms: C4_6  and  C5_11
REMARK       I    between atoms: C5_11  and  N2_13
REMARK    6  A    between atoms: N2_13  and  C6_15
REMARK    7  A    between atoms: C6_15  and  C7_16
REMARK    8  A    between atoms: C6_15  and  C14_27
REMARK       I    between atoms: C7_16  and  N3_18
REMARK    9  A    between atoms: C8_20  and  C9_21
REMARK   10  A    between atoms: N5_30  and  C17_31
REMARK   11  A    between atoms: C17_31  and  O4_32
REMARK   12  A    between atoms: C17_31  and  C18_34
REMARK   13  A    between atoms: C18_34  and  C19_37
REMARK   14  A    between atoms: C21_39  and  C22_40
ROOT
HETATM    1  C6  UNL     1       2.412  -6.617  -1.925  1.00  0.00     0.181 C
ENDROOT
BRANCH   1   2
HETATM    2  N2  UNL     1       3.205  -7.462  -1.041  1.00  0.00    -0.346 N
HETATM    3  C5  UNL     1       4.285  -8.270  -1.475  1.00  0.00     0.251 C
HETATM    4  O2  UNL     1       4.575  -8.251  -2.694  1.00  0.00    -0.271 OA
ATOM      5  H2  UNL     1       2.968  -7.472  -0.049  1.00  0.00     0.163 HD
BRANCH   3   6
HETATM    6  C4  UNL     1       5.054  -9.108  -0.552  1.00  0.00     0.303 C
BRANCH   6   7
HETATM    7  C3  UNL     1       6.445  -8.573  -0.358  1.00  0.00     0.157 C
BRANCH   7   8
HETATM    8  C2  UNL     1       6.544  -7.369   0.519  1.00  0.00     0.030 C
HETATM    9  C1  UNL     1       7.656  -6.493  -0.058  1.00  0.00     0.007 C
ENDBRANCH   7   8
BRANCH   7  10
HETATM   10  O1  UNL     1       7.139  -8.406  -1.555  1.00  0.00    -0.393 OA
ATOM     11  H1  UNL     1       6.668  -8.771  -2.294  1.00  0.00     0.210 HD
ENDBRANCH   7  10
ENDBRANCH   6   7
BRANCH   6  12
HETATM   12  N1  UNL     1       5.215 -10.468  -1.069  1.00  0.00    -0.064 N
ATOM     13  H13 UNL     1       5.713 -10.509  -1.958  1.00  0.00     0.275 HD
ATOM     14  H12 UNL     1       5.874 -11.032  -0.533  1.00  0.00     0.275 HD
ATOM     15  H11 UNL     1       4.276 -10.865  -1.109  1.00  0.00     0.275 HD
ENDBRANCH   6  12
ENDBRANCH   3   6
ENDBRANCH   1   2
BRANCH   1  16
HETATM   16  C7  UNL     1       1.031  -7.111  -1.842  1.00  0.00     0.244 C
HETATM   17  O3  UNL     1       0.796  -8.152  -1.176  1.00  0.00    -0.271 OA
HETATM   18  N3  UNL     1      -0.092  -6.509  -2.458  1.00  0.00    -0.335 N
HETATM   19  C8  UNL     1      -1.289  -6.597  -1.931  1.00  0.00     0.103 C
ATOM     20  H3  UNL     1       0.033  -5.995  -3.330  1.00  0.00     0.168 HD
BRANCH  19  21
HETATM   21  C9  UNL     1      -2.428  -5.986  -2.558  1.00  0.00    -0.004 A
HETATM   22  C10 UNL     1      -2.395  -5.381  -3.808  1.00  0.00     0.031 A
HETATM   23  C11 UNL     1      -3.690  -4.931  -4.016  1.00  0.00     0.091 A
HETATM   24  N4  UNL     1      -4.431  -5.266  -2.930  1.00  0.00    -0.370 N
HETATM   25  C12 UNL     1      -5.844  -4.965  -2.767  1.00  0.00     0.154 C
HETATM   26  C13 UNL     1      -3.695  -5.906  -2.029  1.00  0.00     0.102 A
ENDBRANCH  19  21
ENDBRANCH   1  16
BRANCH   1  27
HETATM   27  C14 UNL     1       2.541  -5.167  -1.518  1.00  0.00     0.021 C
HETATM   28  C15 UNL     1       3.779  -4.970  -0.633  1.00  0.00     0.027 C
HETATM   29  C16 UNL     1       4.901  -4.417  -1.418  1.00  0.00     0.126 C
HETATM   30  N5  UNL     1       4.561  -3.030  -2.001  1.00  0.00    -0.355 N
HETATM   31  C21 UNL     1       3.184  -2.876  -2.031  1.00  0.00     0.094 C
HETATM   32  C26 UNL     1       2.654  -4.218  -2.683  1.00  0.00     0.033 C
BRANCH  30  33
HETATM   33  C17 UNL     1       5.741  -2.382  -2.308  1.00  0.00     0.188 C
BRANCH  33  34
HETATM   34  O4  UNL     1       6.796  -3.208  -2.220  1.00  0.00    -0.345 OA
ATOM     35  H4  UNL     1       6.700  -3.960  -2.793  1.00  0.00     0.219 HD
ENDBRANCH  33  34
BRANCH  33  36
HETATM   36  C18 UNL     1       6.189  -1.061  -2.692  1.00  0.00     0.306 C
HETATM   37  F1  UNL     1       5.392  -0.285  -3.474  1.00  0.00    -0.197 F
HETATM   38  F2  UNL     1       7.363  -1.192  -3.538  1.00  0.00    -0.197 F
BRANCH  36  39
HETATM   39  C19 UNL     1       6.761  -0.218  -1.555  1.00  0.00     0.084 C
HETATM   40  C20 UNL     1       5.764   0.847  -1.183  1.00  0.00     0.012 C
ENDBRANCH  36  39
ENDBRANCH  33  36
ENDBRANCH  30  33
BRANCH  31  41
HETATM   41  C22 UNL     1       2.393  -1.795  -2.624  1.00  0.00    -0.031 C
HETATM   42  C23 UNL     1       0.906  -2.273  -2.450  1.00  0.00     0.016 C
HETATM   43  C24 UNL     1       2.508  -1.624  -4.117  1.00  0.00     0.016 C
HETATM   44  C25 UNL     1       2.414  -0.520  -1.856  1.00  0.00     0.016 C
ENDBRANCH  31  41
ENDBRANCH   1  27
TORSDOF 14
ENDMDL