MODEL 4
REMARK VINA RESULT: -7.919001498      2.949      5.106
REMARK  12 active torsions:
REMARK  status: ('A' for Active; 'I' for Inactive)
REMARK    1  A    between atoms: O1_2  and  C2_3
REMARK    2  A    between atoms: C8_9  and  O2_10
REMARK    3  A    between atoms: O2_10  and  C9_11
REMARK    4  A    between atoms: C9_11  and  C10_13
REMARK    5  A    between atoms: C10_13  and  C12_15
REMARK    6  A    between atoms: C13_16  and  C14_17
REMARK    7  A    between atoms: N1_18  and  O4_20
REMARK    8  A    between atoms: C15_22  and  O5_23
REMARK    9  A    between atoms: C24_36  and  O6_37
REMARK   10  A    between atoms: O6_37  and  C25_38
REMARK   11  A    between atoms: C25_38  and  C26_40
REMARK   12  A    between atoms: C26_40  and  N3_41
ROOT
HETATM    1  C2  UNL     1     -20.539   5.013   1.349  1.00  0.00     0.155 C
HETATM    2  C3  UNL     1     -19.800   5.476   2.586  1.00  0.00     0.023 C
HETATM    3  C4  UNL     1     -19.979   7.002   2.452  1.00  0.00     0.022 C
HETATM    4  C5  UNL     1     -19.014   6.772   1.280  1.00  0.00     0.023 C
HETATM    5  C6  UNL     1     -18.388   5.775   2.162  1.00  0.00     0.008 C
HETATM    6  C7  UNL     1     -17.575   4.732   1.515  1.00  0.00     0.041 C
HETATM    7  C8  UNL     1     -16.193   5.378   1.279  1.00  0.00     0.161 C
HETATM    8  C15 UNL     1     -16.347   6.331   0.146  1.00  0.00     0.158 C
HETATM    9  C16 UNL     1     -16.787   7.713   0.571  1.00  0.00     0.017 C
HETATM   10  C17 UNL     1     -15.984   8.188   1.740  1.00  0.00     0.020 C
HETATM   11  C18 UNL     1     -16.381   8.658  -0.576  1.00  0.00    -0.004 C
HETATM   12  C19 UNL     1     -16.833   8.178  -1.901  1.00  0.00     0.011 C
HETATM   13  C20 UNL     1     -16.848  10.059  -0.303  1.00  0.00     0.037 C
HETATM   14  C21 UNL     1     -18.165  10.177   0.373  1.00  0.00     0.182 C
HETATM   15  C22 UNL     1     -18.271  11.533   1.043  1.00  0.00     0.040 C
HETATM   16  N2  UNL     1     -18.476   9.178   1.344  1.00  0.00    -0.065 N
ATOM     17  H21 UNL     1     -19.412   9.287   1.736  1.00  0.00     0.278 HD
ATOM     18  H22 UNL     1     -17.951   9.293   2.211  1.00  0.00     0.278 HD
HETATM   19  C23 UNL     1     -18.269   7.860   0.723  1.00  0.00     0.208 C
HETATM   20  C24 UNL     1     -19.969   5.995   0.354  1.00  0.00     0.172 C
ENDROOT
BRANCH   7  21
HETATM   21  O2  UNL     1     -15.184   4.414   1.120  1.00  0.00    -0.313 OA
BRANCH  21  22
HETATM   22  C9  UNL     1     -14.116   4.246   1.946  1.00  0.00     0.266 C
HETATM   23  O3  UNL     1     -13.363   5.212   2.196  1.00  0.00    -0.265 OA
BRANCH  22  24
HETATM   24  C10 UNL     1     -13.849   2.920   2.545  1.00  0.00     0.104 C
HETATM   25  C11 UNL     1     -12.736   2.204   1.807  1.00  0.00     0.025 C
BRANCH  24  26
HETATM   26  C12 UNL     1     -15.042   2.051   2.538  1.00  0.00    -0.011 C
HETATM   27  C13 UNL     1     -14.910   0.751   2.565  1.00  0.00     0.016 C
BRANCH  27  28
HETATM   28  C14 UNL     1     -16.085  -0.148   2.558  1.00  0.00     0.113 C
HETATM   29  N1  UNL     1     -15.957  -1.422   2.535  1.00  0.00    -0.281 N
ATOM     30  H1  UNL     1     -15.010  -1.800   2.521  1.00  0.00     0.193 HD
BRANCH  29  31
HETATM   31  O4  UNL     1     -16.981  -2.305   2.528  1.00  0.00    -0.290 OA
ATOM     32  H4  UNL     1     -17.213  -2.865   1.797  1.00  0.00     0.244 HD
ENDBRANCH  29  31
ENDBRANCH  27  28
ENDBRANCH  24  26
ENDBRANCH  22  24
ENDBRANCH  21  22
ENDBRANCH   7  21
BRANCH   8  33
HETATM   33  O5  UNL     1     -15.159   6.488  -0.599  1.00  0.00    -0.392 OA
ATOM     34  H5  UNL     1     -14.735   7.324  -0.440  1.00  0.00     0.210 HD
ENDBRANCH   8  33
BRANCH   1  35
HETATM   35  O1  UNL     1     -20.154   3.718   1.146  1.00  0.00    -0.388 OA
HETATM   36  C1  UNL     1     -21.047   2.756   1.537  1.00  0.00     0.202 C
ENDBRANCH   1  35
BRANCH  20  37
HETATM   37  O6  UNL     1     -20.848   6.959  -0.097  1.00  0.00    -0.311 OA
BRANCH  37  38
HETATM   38  C25 UNL     1     -22.037   6.646  -0.723  1.00  0.00     0.284 C
HETATM   39  O7  UNL     1     -21.906   5.913  -1.719  1.00  0.00    -0.263 OA
BRANCH  38  40
HETATM   40  C26 UNL     1     -23.362   7.137  -0.251  1.00  0.00     0.340 C
BRANCH  40  41
HETATM   41  N3  UNL     1     -23.825   6.289   0.808  1.00  0.00    -0.070 N
ATOM     42  H33 UNL     1     -24.713   5.840   0.585  1.00  0.00     0.274 HD
ATOM     43  H32 UNL     1     -23.259   5.446   0.905  1.00  0.00     0.274 HD
ATOM     44  H31 UNL     1     -23.870   6.830   1.672  1.00  0.00     0.274 HD
ENDBRANCH  40  41
ENDBRANCH  38  40
ENDBRANCH  37  38
ENDBRANCH  20  37
TORSDOF 12
ENDMDL