MODEL 5
REMARK VINA RESULT: -7.475152271      1.841      5.408
REMARK  10 active torsions:
REMARK  status: ('A' for Active; 'I' for Inactive)
REMARK    1  A    between atoms: C2_2  and  N1_3
REMARK    2  A    between atoms: N1_3  and  C4_5
REMARK    3  A    between atoms: C4_5  and  C5_6
REMARK    4  A    between atoms: C5_6  and  C6_7
REMARK    5  A    between atoms: C6_7  and  C7_8
REMARK    6  A    between atoms: C7_8  and  C8_9
REMARK    7  A    between atoms: C9_10  and  O1_11
REMARK    8  A    between atoms: C15_19  and  O3_20
REMARK    9  A    between atoms: C16_22  and  O4_23
REMARK   10  A    between atoms: C25_36  and  O8_37
ROOT
HETATM    1  C8  UNL     1     -18.163   3.761   2.523  1.00  0.00     0.044 C
HETATM    2  C9  UNL     1     -17.937   2.455   3.153  1.00  0.00     0.127 C
HETATM    3  C10 UNL     1     -18.991   1.384   2.935  1.00  0.00     0.073 C
HETATM    4  C11 UNL     1     -20.227   1.782   3.578  1.00  0.00     0.096 A
HETATM    5  O2  UNL     1     -20.034   2.100   4.872  1.00  0.00    -0.368 OA
HETATM    6  C12 UNL     1     -20.853   1.094   4.807  1.00  0.00     0.164 A
HETATM    7  C13 UNL     1     -20.833  -0.318   4.442  1.00  0.00     0.045 C
HETATM    8  C14 UNL     1     -21.227  -1.146   5.675  1.00  0.00     0.015 C
HETATM    9  C15 UNL     1     -21.926  -0.488   3.411  1.00  0.00     0.153 C
HETATM   10  C16 UNL     1     -22.120   0.606   2.455  1.00  0.00     0.154 C
HETATM   11  C17 UNL     1     -21.333   1.886   2.654  1.00  0.00     0.055 C
HETATM   12  C18 UNL     1     -21.018   2.367   1.264  1.00  0.00     0.023 C
HETATM   13  C19 UNL     1     -20.263   3.589   1.101  1.00  0.00     0.083 C
HETATM   14  C20 UNL     1     -19.569   4.209   2.263  1.00  0.00     0.141 C
HETATM   15  O5  UNL     1     -19.374   5.527   1.731  1.00  0.00    -0.349 OA
HETATM   16  C21 UNL     1     -20.613   5.911   1.265  1.00  0.00     0.326 C
HETATM   17  O6  UNL     1     -21.438   6.437   2.220  1.00  0.00    -0.320 OA
HETATM   18  C22 UNL     1     -22.667   5.853   1.944  1.00  0.00     0.164 C
HETATM   19  C23 UNL     1     -23.448   6.626   0.906  1.00  0.00     0.078 C
HETATM   20  C24 UNL     1     -23.540   5.791   3.187  1.00  0.00     0.078 C
HETATM   21  O7  UNL     1     -22.412   4.575   1.461  1.00  0.00    -0.314 OA
HETATM   22  C25 UNL     1     -21.246   4.704   0.687  1.00  0.00     0.223 C
ENDROOT
BRANCH   1  23
HETATM   23  C7  UNL     1     -17.547   4.844   3.382  1.00  0.00     0.010 C
BRANCH  23  24
HETATM   24  C6  UNL     1     -16.250   5.398   2.968  1.00  0.00     0.006 C
BRANCH  24  25
HETATM   25  C5  UNL     1     -15.794   5.082   1.568  1.00  0.00     0.044 C
BRANCH  25  26
HETATM   26  C4  UNL     1     -14.990   6.220   0.967  1.00  0.00     0.062 C
BRANCH  26  27
HETATM   27  N1  UNL     1     -15.735   7.244   0.367  1.00  0.00    -0.379 N
HETATM   28  C3  UNL     1     -15.554   8.573   0.800  1.00  0.00     0.154 C
BRANCH  27  29
HETATM   29  C2  UNL     1     -16.866   6.928  -0.411  1.00  0.00     0.058 C
HETATM   30  C1  UNL     1     -17.944   7.968  -0.476  1.00  0.00     0.055 C
ENDBRANCH  27  29
ENDBRANCH  26  27
ENDBRANCH  25  26
ENDBRANCH  24  25
ENDBRANCH  23  24
ENDBRANCH   1  23
BRANCH   2  31
HETATM   31  O1  UNL     1     -16.772   1.890   2.630  1.00  0.00    -0.395 OA
ATOM     32  H1  UNL     1     -16.743   0.969   2.859  1.00  0.00     0.210 HD
ENDBRANCH   2  31
BRANCH  22  33
HETATM   33  O8  UNL     1     -21.581   4.723  -0.617  1.00  0.00    -0.356 OA
HETATM   34  C26 UNL     1     -21.420   5.861  -1.335  1.00  0.00     0.205 C
ENDBRANCH  22  33
BRANCH  10  35
HETATM   35  O4  UNL     1     -23.499   0.937   2.414  1.00  0.00    -0.393 OA
ATOM     36  H4  UNL     1     -23.664   1.641   3.031  1.00  0.00     0.210 HD
ENDBRANCH  10  35
BRANCH   9  37
HETATM   37  O3  UNL     1     -21.674  -1.732   2.785  1.00  0.00    -0.393 OA
ATOM     38  H3  UNL     1     -22.103  -1.687   1.939  1.00  0.00     0.210 HD
ENDBRANCH   9  37
TORSDOF 10
ENDMDL