MODEL 1
REMARK VINA RESULT: -10.105975813      0.000      0.000
REMARK  10 active torsions:
REMARK  status: ('A' for Active; 'I' for Inactive)
REMARK    1  A    between atoms: C2_2  and  C3_3
REMARK    2  A    between atoms: C2_2  and  C4_6
REMARK    3  A    between atoms: C4_6  and  O2_7
REMARK    4  A    between atoms: C4_6  and  C5_9
REMARK    5  A    between atoms: C5_9  and  C6_10
REMARK    6  A    between atoms: C6_10  and  C7_11
REMARK    7  A    between atoms: C12_17  and  O4_18
REMARK    8  A    between atoms: O4_18  and  C13_19
REMARK    9  A    between atoms: C13_19  and  C14_21
REMARK   10  A    between atoms: C21_31  and  O9_32
ROOT
HETATM    1  C7  UNL     1     -20.828   0.249   2.382  1.00  0.00     0.064 C
HETATM    2  C8  UNL     1     -22.253  -0.073   2.582  1.00  0.00     0.132 C
HETATM    3  O3  UNL     1     -22.803  -1.140   2.491  1.00  0.00    -0.298 OA
HETATM    4  C9  UNL     1     -23.018   1.184   2.943  1.00  0.00     0.084 C
HETATM    5  C10 UNL     1     -22.043   2.242   2.484  1.00  0.00     0.004 C
HETATM    6  C11 UNL     1     -22.220   3.579   3.085  1.00  0.00     0.038 C
HETATM    7  C12 UNL     1     -21.053   4.493   2.979  1.00  0.00     0.132 C
HETATM    8  C23 UNL     1     -19.718   3.899   2.834  1.00  0.00     0.033 C
HETATM    9  C24 UNL     1     -19.633   2.461   2.491  1.00  0.00     0.013 C
HETATM   10  C25 UNL     1     -20.742   1.630   3.021  1.00  0.00    -0.029 C
HETATM   11  C26 UNL     1     -20.754   1.453   4.494  1.00  0.00     0.016 C
ENDROOT
BRANCH   7  12
HETATM   12  O4  UNL     1     -21.286   5.342   1.856  1.00  0.00    -0.316 OA
BRANCH  12  13
HETATM   13  C13 UNL     1     -20.505   6.420   1.517  1.00  0.00     0.265 C
HETATM   14  O5  UNL     1     -21.086   7.492   1.204  1.00  0.00    -0.265 OA
BRANCH  13  15
HETATM   15  C14 UNL     1     -19.005   6.326   1.520  1.00  0.00     0.114 C
HETATM   16  C15 UNL     1     -18.464   7.499   2.289  1.00  0.00     0.186 C
HETATM   17  O6  UNL     1     -17.767   8.376   1.451  1.00  0.00    -0.350 OA
HETATM   18  C16 UNL     1     -16.643   7.762   0.943  1.00  0.00     0.220 C
HETATM   19  C17 UNL     1     -15.807   8.834   0.265  1.00  0.00     0.085 C
HETATM   20  O7  UNL     1     -15.918   7.050   1.869  1.00  0.00    -0.315 OA
HETATM   21  C21 UNL     1     -17.077   6.697  -0.030  1.00  0.00     0.223 C
HETATM   22  C18 UNL     1     -15.383   5.940   1.219  1.00  0.00     0.164 C
HETATM   23  C19 UNL     1     -15.411   4.787   2.200  1.00  0.00     0.078 C
HETATM   24  C20 UNL     1     -13.974   6.149   0.768  1.00  0.00     0.078 C
HETATM   25  O8  UNL     1     -16.247   5.621   0.186  1.00  0.00    -0.314 OA
HETATM   26  C22 UNL     1     -18.531   6.350   0.091  1.00  0.00     0.091 C
BRANCH  21  27
HETATM   27  O9  UNL     1     -16.806   7.176  -1.323  1.00  0.00    -0.361 OA
ATOM     28  H9  UNL     1     -17.636   7.429  -1.710  1.00  0.00     0.213 HD
ENDBRANCH  21  27
ENDBRANCH  13  15
ENDBRANCH  12  13
ENDBRANCH   7  12
BRANCH   1  29
HETATM   29  C6  UNL     1     -19.844  -0.682   2.984  1.00  0.00     0.015 C
BRANCH  29  30
HETATM   30  C5  UNL     1     -18.624  -0.872   2.159  1.00  0.00     0.033 C
BRANCH  30  31
HETATM   31  C4  UNL     1     -17.346  -0.730   3.003  1.00  0.00     0.130 C
BRANCH  31  32
HETATM   32  C2  UNL     1     -16.520   0.433   2.492  1.00  0.00     0.099 C
HETATM   33  C1  UNL     1     -16.467   1.519   3.529  1.00  0.00     0.022 C
BRANCH  32  34
HETATM   34  C3  UNL     1     -15.129   0.028   2.194  1.00  0.00     0.237 C
HETATM   35  N1  UNL     1     -14.081   0.660   2.915  1.00  0.00    -0.062 NA
HETATM   36  O1  UNL     1     -14.810  -0.840   1.344  1.00  0.00    -0.276 OA
ENDBRANCH  32  34
ENDBRANCH  31  32
BRANCH  31  37
HETATM   37  O2  UNL     1     -16.605  -1.906   3.004  1.00  0.00    -0.395 OA
ATOM     38  H2  UNL     1     -17.168  -2.664   3.106  1.00  0.00     0.210 HD
ENDBRANCH  31  37
ENDBRANCH  30  31
ENDBRANCH  29  30
ENDBRANCH   1  29
TORSDOF 10
ENDMDL