MODEL 5
REMARK VINA RESULT: -8.217298246      2.382      3.571
REMARK  11 active torsions:
REMARK  status: ('A' for Active; 'I' for Inactive)
REMARK    1  A    between atoms: C4_4  and  O1_5
REMARK    2  A    between atoms: O1_5  and  C5_6
REMARK    3  A    between atoms: C8_10  and  O3_11
REMARK    4  A    between atoms: O3_11  and  C9_12
REMARK    5  A    between atoms: C9_12  and  C10_14
REMARK    6  A    between atoms: C12_16  and  O5_18
REMARK    7  A    between atoms: C15_21  and  O6_22
REMARK    8  A    between atoms: C18_26  and  O7_27
REMARK    9  A    between atoms: N1_34  and  C23_35
REMARK   10  A    between atoms: C23_35  and  C24_36
REMARK   11  A    between atoms: C24_36  and  C25_37
ROOT
HETATM    1  C5  UNL     1     -15.554   5.767   2.184  1.00  0.00     0.295 C
HETATM    2  O2  UNL     1     -16.806   5.179   2.314  1.00  0.00    -0.351 OA
HETATM    3  C6  UNL     1     -16.838   3.998   2.989  1.00  0.00     0.151 C
HETATM    4  C7  UNL     1     -18.237   3.408   2.802  1.00  0.00     0.042 C
HETATM    5  C8  UNL     1     -15.874   2.954   2.459  1.00  0.00     0.170 C
HETATM    6  C14 UNL     1     -14.501   3.624   2.566  1.00  0.00     0.086 C
HETATM    7  C15 UNL     1     -13.423   2.834   1.917  1.00  0.00     0.128 C
HETATM    8  C16 UNL     1     -12.421   3.888   1.506  1.00  0.00     0.035 C
HETATM    9  C17 UNL     1     -13.182   5.219   1.549  1.00  0.00     0.046 C
HETATM   10  C18 UNL     1     -14.614   4.806   1.565  1.00  0.00     0.116 C
ENDROOT
BRANCH   1  11
HETATM   11  O1  UNL     1     -15.739   6.855   1.331  1.00  0.00    -0.348 OA
BRANCH  11  12
HETATM   12  C4  UNL     1     -16.997   7.254   1.169  1.00  0.00     0.160 C
HETATM   13  C3  UNL     1     -17.231   8.657   1.575  1.00  0.00     0.003 C
HETATM   14  C2  UNL     1     -16.377   9.616   1.755  1.00  0.00    -0.021 C
HETATM   15  C22 UNL     1     -18.704   9.016   1.736  1.00  0.00     0.392 C
HETATM   16  C1  UNL     1     -14.913   9.490   1.579  1.00  0.00     0.036 C
HETATM   17  O8  UNL     1     -19.043   9.974   0.770  1.00  0.00    -0.352 OA
HETATM   18  N1  UNL     1     -19.412   7.862   1.219  1.00  0.00     0.128 N
HETATM   19  C21 UNL     1     -18.793   9.321  -0.457  1.00  0.00     0.207 C
HETATM   20  C20 UNL     1     -18.953   7.843  -0.183  1.00  0.00     0.253 C
HETATM   21  C19 UNL     1     -17.572   7.188  -0.252  1.00  0.00     0.074 C
BRANCH  18  22
HETATM   22  C23 UNL     1     -20.810   8.142   1.227  1.00  0.00     0.277 C
BRANCH  22  23
HETATM   23  C24 UNL     1     -21.605   6.889   1.489  1.00  0.00     0.030 C
BRANCH  23  24
HETATM   24  C25 UNL     1     -20.809   5.887   2.301  1.00  0.00    -0.003 C
HETATM   25  C26 UNL     1     -21.801   4.981   3.011  1.00  0.00     0.005 C
ENDBRANCH  23  24
ENDBRANCH  22  23
ENDBRANCH  18  22
ENDBRANCH  11  12
ENDBRANCH   1  11
BRANCH  10  26
HETATM   26  O7  UNL     1     -15.062   4.239   0.380  1.00  0.00    -0.384 OA
ATOM     27  H7  UNL     1     -15.152   3.294   0.402  1.00  0.00     0.210 HD
ENDBRANCH  10  26
BRANCH   5  28
HETATM   28  O3  UNL     1     -15.953   1.827   3.299  1.00  0.00    -0.312 OA
BRANCH  28  29
HETATM   29  C9  UNL     1     -15.940   0.517   2.862  1.00  0.00     0.266 C
HETATM   30  O4  UNL     1     -14.937  -0.171   3.134  1.00  0.00    -0.265 OA
BRANCH  29  31
HETATM   31  C10 UNL     1     -17.105   0.003   2.104  1.00  0.00     0.122 A
HETATM   32  C11 UNL     1     -17.518  -1.402   2.456  1.00  0.00     0.056 A
HETATM   33  C12 UNL     1     -18.406  -0.226   2.777  1.00  0.00     0.068 A
HETATM   34  C13 UNL     1     -18.580   0.063   4.245  1.00  0.00     0.047 C
BRANCH  33  35
HETATM   35  O5  UNL     1     -19.566  -0.127   2.007  1.00  0.00    -0.389 OA
ATOM     36  H5  UNL     1     -20.262  -0.753   2.171  1.00  0.00     0.210 HD
ENDBRANCH  33  35
ENDBRANCH  29  31
ENDBRANCH  28  29
ENDBRANCH   5  28
BRANCH   7  37
HETATM   37  O6  UNL     1     -12.858   1.879   2.761  1.00  0.00    -0.395 OA
ATOM     38  H6  UNL     1     -12.052   2.172   3.172  1.00  0.00     0.210 HD
ENDBRANCH   7  37
TORSDOF 11
ENDMDL