MODEL 2
REMARK VINA RESULT: -7.886646440      2.088      9.143
REMARK  11 active torsions:
REMARK  status: ('A' for Active; 'I' for Inactive)
REMARK    1  A    between atoms: N1_2  and  C2_5
REMARK    2  A    between atoms: C3_6  and  O1_7
REMARK    3  A    between atoms: C4_9  and  C6_11
REMARK    4  A    between atoms: C7_12  and  C8_13
REMARK    5  A    between atoms: C9_15  and  C10_16
REMARK    6  A    between atoms: C10_16  and  O4_18
REMARK    7  A    between atoms: C13_21  and  O5_22
REMARK    8  A    between atoms: C20_31  and  C22_33
REMARK    9  A    between atoms: C22_33  and  C23_34
REMARK   10  A    between atoms: C23_34  and  C24_35
REMARK   11  A    between atoms: C26_37  and  O7_38
ROOT
HETATM    1  C2  UNL     1     -18.778   6.323   0.613  1.00  0.00     0.235 C
HETATM    2  C3  UNL     1     -19.583   7.200  -0.233  1.00  0.00     0.167 C
HETATM    3  C4  UNL     1     -21.073   7.219  -0.080  1.00  0.00     0.059 C
HETATM    4  C5  UNL     1     -21.639   6.505  -1.345  1.00  0.00     0.028 C
HETATM    5  C14 UNL     1     -21.615   6.524   1.083  1.00  0.00     0.193 C
HETATM    6  O6  UNL     1     -22.482   7.195   1.938  1.00  0.00    -0.314 OA
HETATM    7  C15 UNL     1     -23.235   6.025   2.022  1.00  0.00     0.186 C
HETATM    8  C16 UNL     1     -24.709   6.221   2.139  1.00  0.00     0.084 C
HETATM    9  C17 UNL     1     -22.654   5.051   3.010  1.00  0.00     0.037 C
HETATM   10  C18 UNL     1     -21.332   4.958   2.967  1.00  0.00    -0.014 C
HETATM   11  C19 UNL     1     -20.644   5.817   1.969  1.00  0.00     0.094 C
HETATM   12  C20 UNL     1     -19.479   5.161   1.300  1.00  0.00     0.055 C
HETATM   13  C21 UNL     1     -19.885   4.141   0.235  1.00  0.00     0.031 C
HETATM   14  O8  UNL     1     -22.723   5.670   0.797  1.00  0.00    -0.314 OA
ENDROOT
BRANCH   3  15
HETATM   15  C6  UNL     1     -21.547   8.597  -0.238  1.00  0.00    -0.011 C
HETATM   16  C7  UNL     1     -22.187   9.261  -1.142  1.00  0.00     0.004 C
BRANCH  16  17
HETATM   17  C8  UNL     1     -22.483  10.734  -0.898  1.00  0.00     0.174 C
HETATM   18  O2  UNL     1     -23.615  10.964  -0.187  1.00  0.00    -0.364 OA
HETATM   19  C9  UNL     1     -24.154  12.165  -0.644  1.00  0.00     0.224 C
HETATM   20  C12 UNL     1     -23.808  12.266  -2.108  1.00  0.00     0.077 C
HETATM   21  C13 UNL     1     -22.578  11.446  -2.234  1.00  0.00     0.153 C
BRANCH  19  22
HETATM   22  C10 UNL     1     -23.513  13.275   0.129  1.00  0.00     0.287 C
HETATM   23  O3  UNL     1     -23.200  14.357  -0.420  1.00  0.00    -0.262 OA
BRANCH  22  24
HETATM   24  O4  UNL     1     -23.259  13.114   1.501  1.00  0.00    -0.324 OA
HETATM   25  C11 UNL     1     -21.934  13.217   1.971  1.00  0.00     0.213 C
ENDBRANCH  22  24
ENDBRANCH  19  22
BRANCH  21  26
HETATM   26  O5  UNL     1     -22.628  10.530  -3.292  1.00  0.00    -0.393 OA
ATOM     27  H5  UNL     1     -22.996  10.928  -4.071  1.00  0.00     0.210 HD
ENDBRANCH  21  26
ENDBRANCH  16  17
ENDBRANCH   3  15
BRANCH   2  28
HETATM   28  O1  UNL     1     -19.086   8.520  -0.027  1.00  0.00    -0.392 OA
ATOM     29  H1  UNL     1     -19.481   9.061  -0.701  1.00  0.00     0.210 HD
ENDBRANCH   2  28
BRANCH   1  30
HETATM   30  N1  UNL     1     -17.643   5.806  -0.098  1.00  0.00    -0.071 N
HETATM   31  C1  UNL     1     -16.412   6.484   0.208  1.00  0.00     0.267 C
ATOM     32  H12 UNL     1     -17.816   5.810  -1.104  1.00  0.00     0.277 HD
ATOM     33  H11 UNL     1     -17.549   4.802   0.054  1.00  0.00     0.277 HD
ENDBRANCH   1  30
BRANCH  12  34
HETATM   34  C22 UNL     1     -18.629   4.516   2.271  1.00  0.00    -0.142 C
BRANCH  34  35
HETATM   35  C23 UNL     1     -17.889   3.956   3.107  1.00  0.00     0.060 C
BRANCH  35  36
HETATM   36  C24 UNL     1     -17.542   2.506   3.131  1.00  0.00    -0.033 C
HETATM   37  C25 UNL     1     -18.611   1.508   3.149  1.00  0.00     0.050 C
HETATM   38  C26 UNL     1     -16.290   2.102   3.191  1.00  0.00     0.141 C
BRANCH  38  39
HETATM   39  O7  UNL     1     -15.771   0.866   3.221  1.00  0.00    -0.367 OA
HETATM   40  C27 UNL     1     -14.816   0.222   2.494  1.00  0.00     0.208 C
ENDBRANCH  38  39
ENDBRANCH  35  36
ENDBRANCH  34  35
ENDBRANCH  12  34
TORSDOF 11
ENDMDL