MODEL 3
REMARK VINA RESULT: -6.963615254      3.757      7.753
REMARK  13 active torsions:
REMARK  status: ('A' for Active; 'I' for Inactive)
REMARK    1  A    between atoms: C2_2  and  C3_3
REMARK    2  A    between atoms: C2_2  and  C6_11
REMARK    3  A    between atoms: C3_3  and  O1_4
REMARK    4  A    between atoms: C3_3  and  O2_6
REMARK    5  A    between atoms: O2_6  and  C4_7
REMARK    6  A    between atoms: C4_7  and  C5_8
REMARK    7  A    between atoms: C8_13  and  O5_14
REMARK    8  A    between atoms: O5_14  and  C9_15
REMARK    9  A    between atoms: C13_20  and  O7_21
REMARK   10  A    between atoms: O7_21  and  C14_22
REMARK   11  A    between atoms: C18_27  and  O9_28
REMARK   12  A    between atoms: C18_27  and  C19_30
REMARK   13  A    between atoms: C22_33  and  O10_34
ROOT
HETATM    1  C6  UNL     1     -19.464   8.825   0.261  1.00  0.00    -0.037 C
HETATM    2  C7  UNL     1     -20.467   9.868   0.113  1.00  0.00     0.041 C
HETATM    3  C8  UNL     1     -21.802   9.989   0.729  1.00  0.00     0.057 C
HETATM    4  C11 UNL     1     -22.638   8.724   0.892  1.00  0.00     0.073 C
HETATM    5  C12 UNL     1     -21.714   7.592   0.965  1.00  0.00     0.034 C
HETATM    6  C13 UNL     1     -21.926   6.443   1.911  1.00  0.00     0.169 C
HETATM    7  C16 UNL     1     -20.590   5.716   1.719  1.00  0.00    -0.013 A
HETATM    8  C17 UNL     1     -19.841   4.625   1.739  1.00  0.00     0.023 A
HETATM    9  C18 UNL     1     -18.605   5.324   1.300  1.00  0.00     0.115 A
HETATM   10  C22 UNL     1     -19.408   6.525   1.310  1.00  0.00     0.127 A
HETATM   11  C23 UNL     1     -19.661   7.353   0.032  1.00  0.00     0.070 C
HETATM   12  C24 UNL     1     -21.160   7.081  -0.313  1.00  0.00    -0.030 C
HETATM   13  C25 UNL     1     -21.440   7.947  -1.548  1.00  0.00     0.016 C
HETATM   14  C26 UNL     1     -21.494   5.766  -0.801  1.00  0.00     0.016 C
ENDROOT
BRANCH   1  15
HETATM   15  C2  UNL     1     -18.196   9.386  -0.303  1.00  0.00    -0.006 C
HETATM   16  C1  UNL     1     -18.324  10.501  -1.047  1.00  0.00     0.024 C
BRANCH  15  17
HETATM   17  C3  UNL     1     -16.827   8.846  -0.147  1.00  0.00     0.291 C
BRANCH  17  18
HETATM   18  O1  UNL     1     -16.572   7.786  -1.030  1.00  0.00    -0.367 OA
ATOM     19  H1  UNL     1     -15.712   7.407  -0.895  1.00  0.00     0.213 HD
ENDBRANCH  17  18
BRANCH  17  20
HETATM   20  O2  UNL     1     -16.489   8.583   1.159  1.00  0.00    -0.347 OA
BRANCH  20  21
HETATM   21  C4  UNL     1     -16.059   9.627   1.917  1.00  0.00     0.284 C
BRANCH  21  22
HETATM   22  C5  UNL     1     -14.830  10.232   1.444  1.00  0.00     0.197 C
HETATM   23  O3  UNL     1     -13.725   9.671   1.566  1.00  0.00    -0.646 OA
HETATM   24  O4  UNL     1     -14.904  11.486   0.834  1.00  0.00    -0.646 OA
ENDBRANCH  21  22
ENDBRANCH  20  21
ENDBRANCH  17  20
ENDBRANCH  15  17
ENDBRANCH   1  15
BRANCH   3  25
HETATM   25  O5  UNL     1     -21.891  10.845   1.846  1.00  0.00    -0.284 OA
BRANCH  25  26
HETATM   26  C9  UNL     1     -22.598  11.973   2.004  1.00  0.00     0.259 C
HETATM   27  C10 UNL     1     -24.030  12.015   2.320  1.00  0.00     0.126 C
HETATM   28  O6  UNL     1     -21.943  13.007   1.859  1.00  0.00    -0.265 OA
ENDBRANCH  25  26
ENDBRANCH   3  25
BRANCH  10  29
HETATM   29  O10 UNL     1     -18.961   7.277   2.423  1.00  0.00    -0.381 OA
ATOM     30  H10 UNL     1     -18.079   7.585   2.251  1.00  0.00     0.211 HD
ENDBRANCH  10  29
BRANCH   9  31
HETATM   31  O9  UNL     1     -18.106   4.877   0.066  1.00  0.00    -0.382 OA
ATOM     32  H9  UNL     1     -18.113   5.539  -0.615  1.00  0.00     0.211 HD
ENDBRANCH   9  31
BRANCH   9  33
HETATM   33  C19 UNL     1     -17.550   5.021   2.329  1.00  0.00     0.019 C
HETATM   34  C20 UNL     1     -17.515   3.682   2.932  1.00  0.00     0.013 C
HETATM   35  C21 UNL     1     -16.204   5.228   1.611  1.00  0.00     0.013 C
ENDBRANCH   9  33
BRANCH   6  36
HETATM   36  O7  UNL     1     -23.022   5.654   1.724  1.00  0.00    -0.311 OA
BRANCH  36  37
HETATM   37  C14 UNL     1     -24.245   5.818   2.369  1.00  0.00     0.255 C
HETATM   38  C15 UNL     1     -25.394   6.526   1.803  1.00  0.00     0.126 C
HETATM   39  O8  UNL     1     -24.350   5.313   3.517  1.00  0.00    -0.266 OA
ENDBRANCH  36  37
ENDBRANCH   6  36
TORSDOF 13
ENDMDL