MODEL 2
REMARK VINA RESULT: -8.572318397      0.784      1.070
REMARK  12 active torsions:
REMARK  status: ('A' for Active; 'I' for Inactive)
REMARK    1  A    between atoms: C2_2  and  C3_3
REMARK    2  A    between atoms: C3_3  and  C4_4
REMARK    3  A    between atoms: C5_5  and  C6_6
REMARK    4  A    between atoms: C7_7  and  C8_8
REMARK    5  A    between atoms: C8_8  and  O2_10
REMARK    6  A    between atoms: O2_10  and  C9_11
REMARK    7  A    between atoms: C10_12  and  O3_13
REMARK    8  A    between atoms: C11_15  and  O4_16
REMARK    9  A    between atoms: C15_20  and  O5_21
REMARK   10  A    between atoms: C16_23  and  O6_24
REMARK   11  A    between atoms: C24_34  and  O8_35
REMARK   12  A    between atoms: O8_35  and  C25_36
ROOT
HETATM    1  C9  UNL     1     -17.617   7.143   1.117  1.00  0.00     0.186 C
HETATM    2  C10 UNL     1     -16.605   7.175   0.025  1.00  0.00     0.143 C
HETATM    3  C11 UNL     1     -15.222   7.607   0.468  1.00  0.00     0.183 C
HETATM    4  C13 UNL     1     -15.284   8.988   0.984  1.00  0.00     0.007 C
HETATM    5  C14 UNL     1     -16.234   9.795   0.540  1.00  0.00     0.012 C
HETATM    6  C15 UNL     1     -17.269   9.426  -0.456  1.00  0.00     0.109 C
HETATM    7  C16 UNL     1     -16.988   8.096  -1.120  1.00  0.00     0.196 C
HETATM    8  C17 UNL     1     -18.594   9.290   0.234  1.00  0.00     0.049 C
HETATM    9  C18 UNL     1     -18.781  10.003   1.532  1.00  0.00     0.020 C
HETATM   10  C19 UNL     1     -19.896  11.058   1.513  1.00  0.00     0.013 C
HETATM   11  C20 UNL     1     -19.276   8.676   2.113  1.00  0.00     0.141 C
HETATM   12  O7  UNL     1     -20.627   8.655   2.198  1.00  0.00    -0.372 OA
HETATM   13  C21 UNL     1     -21.133   7.677   1.368  1.00  0.00     0.082 C
HETATM   14  C22 UNL     1     -21.498   6.465   2.205  1.00  0.00     0.048 C
HETATM   15  C23 UNL     1     -22.381   8.224   0.719  1.00  0.00     0.048 C
HETATM   16  C24 UNL     1     -20.062   7.319   0.370  1.00  0.00     0.179 C
HETATM   17  C27 UNL     1     -18.838   7.968   0.866  1.00  0.00     0.053 C
ENDROOT
BRANCH   1  18
HETATM   18  O2  UNL     1     -17.963   5.782   1.343  1.00  0.00    -0.308 OA
BRANCH  18  19
HETATM   19  C8  UNL     1     -17.816   5.151   2.569  1.00  0.00     0.283 C
HETATM   20  O1  UNL     1     -17.108   5.724   3.406  1.00  0.00    -0.260 OA
BRANCH  19  21
HETATM   21  C7  UNL     1     -18.470   3.901   2.806  1.00  0.00     0.082 C
HETATM   22  C6  UNL     1     -17.992   2.716   3.022  1.00  0.00     0.006 C
BRANCH  22  23
HETATM   23  C5  UNL     1     -16.594   2.404   3.070  1.00  0.00    -0.004 C
HETATM   24  C4  UNL     1     -16.189   1.132   2.825  1.00  0.00    -0.027 C
BRANCH  24  25
HETATM   25  C3  UNL     1     -14.745   0.867   2.888  1.00  0.00     0.027 C
BRANCH  25  26
HETATM   26  C2  UNL     1     -13.942   1.811   2.019  1.00  0.00    -0.001 C
HETATM   27  C1  UNL     1     -12.486   1.788   2.390  1.00  0.00     0.005 C
ENDBRANCH  25  26
ENDBRANCH  24  25
ENDBRANCH  22  23
ENDBRANCH  19  21
ENDBRANCH  18  19
ENDBRANCH   1  18
BRANCH   2  28
HETATM   28  O3  UNL     1     -16.426   5.900  -0.566  1.00  0.00    -0.381 OA
ATOM     29  H3  UNL     1     -16.969   5.789  -1.338  1.00  0.00     0.211 HD
ENDBRANCH   2  28
BRANCH   3  30
HETATM   30  O4  UNL     1     -14.630   6.722   1.353  1.00  0.00    -0.384 OA
HETATM   31  C12 UNL     1     -13.280   6.566   1.155  1.00  0.00     0.202 C
ENDBRANCH   3  30
BRANCH   7  32
HETATM   32  O6  UNL     1     -15.945   8.153  -2.011  1.00  0.00    -0.389 OA
ATOM     33  H6  UNL     1     -16.163   8.770  -2.699  1.00  0.00     0.210 HD
ENDBRANCH   7  32
BRANCH  16  34
HETATM   34  O8  UNL     1     -20.045   5.951   0.208  1.00  0.00    -0.312 OA
BRANCH  34  35
HETATM   35  C25 UNL     1     -20.949   5.239  -0.561  1.00  0.00     0.255 C
HETATM   36  C26 UNL     1     -21.799   5.836  -1.604  1.00  0.00     0.126 C
HETATM   37  O9  UNL     1     -21.019   3.988  -0.319  1.00  0.00    -0.266 OA
ENDBRANCH  34  35
ENDBRANCH  16  34
BRANCH   6  38
HETATM   38  O5  UNL     1     -17.327  10.378  -1.474  1.00  0.00    -0.383 OA
ATOM     39  H5  UNL     1     -17.729  10.008  -2.251  1.00  0.00     0.211 HD
ENDBRANCH   6  38
TORSDOF 12
ENDMDL