MODEL 1
REMARK VINA RESULT: -9.363971985      0.000      0.000
REMARK  9 active torsions:
REMARK  status: ('A' for Active; 'I' for Inactive)
REMARK    1  A    between atoms: C2_2  and  C4_4
REMARK    2  A    between atoms: C4_4  and  C5_5
REMARK    3  A    between atoms: C5_5  and  O2_7
REMARK    4  A    between atoms: O2_7  and  C6_8
REMARK    5  A    between atoms: C8_10  and  C9_11
REMARK    6  A    between atoms: C9_11  and  C10_12
REMARK    7  A    between atoms: C10_12  and  O3_13
REMARK    8  A    between atoms: O3_13  and  C11_14
REMARK       I    between atoms: C11_14  and  N1_16
REMARK    9  A    between atoms: C15_26  and  O8_27
ROOT
HETATM    1  C6  UNL     1     -19.711   2.819   3.443  1.00  0.00     0.146 C
HETATM    2  C7  UNL     1     -18.324   2.448   2.996  1.00  0.00     0.065 C
HETATM    3  C8  UNL     1     -17.383   3.626   3.217  1.00  0.00     0.129 C
HETATM    4  O5  UNL     1     -18.040   4.770   3.141  1.00  0.00    -0.351 OA
HETATM    5  C13 UNL     1     -18.663   5.209   2.033  1.00  0.00     0.301 C
HETATM    6  O6  UNL     1     -19.098   6.521   2.389  1.00  0.00    -0.283 OA
HETATM    7  C14 UNL     1     -19.351   7.716   1.741  1.00  0.00     0.291 C
HETATM    8  O7  UNL     1     -19.347   8.766   2.419  1.00  0.00    -0.262 OA
HETATM    9  C15 UNL     1     -19.638   7.930   0.301  1.00  0.00     0.229 C
HETATM   10  C16 UNL     1     -21.033   7.362   0.095  1.00  0.00     0.005 C
HETATM   11  C17 UNL     1     -21.961   7.824   1.228  1.00  0.00     0.022 C
HETATM   12  C18 UNL     1     -21.566   8.120  -1.136  1.00  0.00     0.022 C
HETATM   13  C19 UNL     1     -21.100   5.941  -0.161  1.00  0.00    -0.014 C
HETATM   14  C20 UNL     1     -20.558   4.859   0.391  1.00  0.00     0.005 C
HETATM   15  C21 UNL     1     -19.685   4.342   1.427  1.00  0.00    -0.015 C
HETATM   16  C22 UNL     1     -20.510   3.522   2.393  1.00  0.00     0.007 C
HETATM   17  C23 UNL     1     -21.375   2.571   1.582  1.00  0.00     0.022 C
HETATM   18  C24 UNL     1     -21.471   4.450   3.106  1.00  0.00     0.022 C
ENDROOT
BRANCH   3  19
HETATM   19  C9  UNL     1     -16.171   3.442   2.343  1.00  0.00     0.059 C
BRANCH  19  20
HETATM   20  C10 UNL     1     -15.168   4.532   2.502  1.00  0.00     0.183 C
BRANCH  20  21
HETATM   21  O3  UNL     1     -14.866   5.245   1.329  1.00  0.00    -0.304 OA
BRANCH  21  22
HETATM   22  C11 UNL     1     -14.135   6.412   1.260  1.00  0.00     0.366 C
HETATM   23  O4  UNL     1     -12.885   6.357   1.376  1.00  0.00    -0.238 OA
HETATM   24  N1  UNL     1     -14.719   7.694   1.063  1.00  0.00    -0.279 N
HETATM   25  C12 UNL     1     -15.730   7.747   0.248  1.00  0.00     0.205 C
ATOM     26  H1  UNL     1     -14.364   8.525   1.535  1.00  0.00     0.173 HD
HETATM   27  N2  UNL     1     -16.324   9.009   0.040  1.00  0.00    -0.066 NA
HETATM   28  N3  UNL     1     -16.254   6.624  -0.424  1.00  0.00    -0.066 NA
ENDBRANCH  21  22
ENDBRANCH  20  21
ENDBRANCH  19  20
ENDBRANCH   3  19
BRANCH   1  29
HETATM   29  O2  UNL     1     -20.448   1.758   3.971  1.00  0.00    -0.315 OA
BRANCH  29  30
HETATM   30  C5  UNL     1     -19.994   0.512   4.275  1.00  0.00     0.259 C
HETATM   31  O1  UNL     1     -19.347   0.407   5.358  1.00  0.00    -0.265 OA
BRANCH  30  32
HETATM   32  C4  UNL     1     -20.209  -0.693   3.435  1.00  0.00     0.115 C
BRANCH  32  33
HETATM   33  C2  UNL     1     -19.647  -0.560   2.060  1.00  0.00    -0.013 C
HETATM   34  C1  UNL     1     -20.521  -1.361   1.118  1.00  0.00     0.010 C
HETATM   35  C3  UNL     1     -18.260  -1.165   1.997  1.00  0.00     0.010 C
ENDBRANCH  32  33
ENDBRANCH  30  32
ENDBRANCH  29  30
ENDBRANCH   1  29
BRANCH   9  36
HETATM   36  O8  UNL     1     -19.555   9.266   0.003  1.00  0.00    -0.385 OA
ATOM     37  H8  UNL     1     -20.427   9.626  -0.112  1.00  0.00     0.210 HD
ENDBRANCH   9  36
TORSDOF 9
ENDMDL