MODEL 1
REMARK VINA RESULT: -7.112994602      0.000      0.000
REMARK  10 active torsions:
REMARK  status: ('A' for Active; 'I' for Inactive)
REMARK    1  A    between atoms: C2_2  and  C3_3
REMARK    2  A    between atoms: C3_3  and  O2_5
REMARK    3  A    between atoms: O2_5  and  C4_6
REMARK    4  A    between atoms: C8_10  and  O3_11
REMARK    5  A    between atoms: C14_18  and  C26_36
REMARK    6  A    between atoms: C18_22  and  O4_23
REMARK    7  A    between atoms: C19_25  and  C20_26
REMARK    8  A    between atoms: C20_26  and  C22_28
REMARK    9  A    between atoms: C22_28  and  O6_30
REMARK   10  A    between atoms: C24_32  and  O7_33
ROOT
HETATM    1  C4  UNL     1       3.539 -11.170   1.810  1.00  0.00     0.138 C
HETATM    2  C5  UNL     1       4.928 -10.810   1.416  1.00  0.00     0.040 C
HETATM    3  C6  UNL     1       5.165 -10.425  -0.015  1.00  0.00     0.020 C
HETATM    4  C7  UNL     1       6.320  -9.481  -0.088  1.00  0.00     0.013 C
HETATM    5  C8  UNL     1       3.984 -10.182  -0.840  1.00  0.00     0.080 C
HETATM    6  C9  UNL     1       3.111 -11.429  -0.633  1.00  0.00    -0.005 C
HETATM    7  C10 UNL     1       3.875 -12.716  -0.742  1.00  0.00     0.019 C
HETATM    8  C11 UNL     1       2.096 -11.470  -1.733  1.00  0.00     0.013 C
HETATM    9  C12 UNL     1       1.172 -10.297  -1.697  1.00  0.00     0.007 C
HETATM   10  C13 UNL     1       1.635  -9.398  -0.626  1.00  0.00     0.005 C
HETATM   11  C14 UNL     1       1.471 -10.189   0.690  1.00  0.00    -0.002 C
HETATM   12  C15 UNL     1       1.400  -9.116   1.703  1.00  0.00     0.006 C
HETATM   13  C16 UNL     1       2.182  -7.896   1.334  1.00  0.00     0.009 C
HETATM   14  C17 UNL     1       3.330  -8.063   0.394  1.00  0.00     0.029 C
HETATM   15  C18 UNL     1       3.582  -6.657  -0.209  1.00  0.00     0.130 C
HETATM   16  C19 UNL     1       2.800  -6.698  -1.483  1.00  0.00     0.058 C
HETATM   17  C24 UNL     1       3.121  -8.118  -1.965  1.00  0.00     0.138 C
HETATM   18  C25 UNL     1       3.123  -8.996  -0.734  1.00  0.00     0.028 C
HETATM   19  C26 UNL     1       2.495 -11.230   0.750  1.00  0.00     0.031 C
ENDROOT
BRANCH  16  20
HETATM   20  C20 UNL     1       3.192  -5.692  -2.495  1.00  0.00     0.090 C
HETATM   21  C21 UNL     1       2.061  -4.804  -2.949  1.00  0.00     0.021 C
BRANCH  20  22
HETATM   22  C22 UNL     1       4.303  -4.847  -2.033  1.00  0.00     0.262 C
HETATM   23  O5  UNL     1       4.016  -3.667  -1.613  1.00  0.00    -0.265 OA
BRANCH  22  24
HETATM   24  O6  UNL     1       5.630  -5.171  -1.998  1.00  0.00    -0.326 OA
HETATM   25  C23 UNL     1       6.405  -5.145  -3.178  1.00  0.00     0.213 C
ENDBRANCH  22  24
ENDBRANCH  20  22
ENDBRANCH  16  20
BRANCH  15  26
HETATM   26  O4  UNL     1       3.000  -5.706   0.635  1.00  0.00    -0.395 OA
ATOM     27  H4  UNL     1       3.446  -4.877   0.506  1.00  0.00     0.210 HD
ENDBRANCH  15  26
BRANCH  17  28
HETATM   28  O7  UNL     1       4.317  -8.007  -2.629  1.00  0.00    -0.394 OA
ATOM     29  H7  UNL     1       4.783  -8.812  -2.433  1.00  0.00     0.210 HD
ENDBRANCH  17  28
BRANCH   5  30
HETATM   30  O3  UNL     1       4.374 -10.315  -2.199  1.00  0.00    -0.388 OA
ATOM     31  H3  UNL     1       3.919 -11.070  -2.556  1.00  0.00     0.210 HD
ENDBRANCH   5  30
BRANCH   1  32
HETATM   32  O2  UNL     1       3.540 -12.333   2.635  1.00  0.00    -0.312 OA
BRANCH  32  33
HETATM   33  C3  UNL     1       2.503 -12.696   3.472  1.00  0.00     0.282 C
HETATM   34  O1  UNL     1       2.250 -11.957   4.459  1.00  0.00    -0.260 OA
BRANCH  33  35
HETATM   35  C2  UNL     1       1.722 -13.915   3.211  1.00  0.00     0.072 C
HETATM   36  C1  UNL     1       0.474 -13.802   2.817  1.00  0.00     0.017 C
ENDBRANCH  33  35
ENDBRANCH  32  33
ENDBRANCH   1  32
TORSDOF 10
ENDMDL