MODEL 1
REMARK VINA RESULT: -8.172611999      0.000      0.000
REMARK  4 active torsions:
REMARK  status: ('A' for Active; 'I' for Inactive)
REMARK    1  A    between atoms: C2_2  and  S1_3
REMARK    2  A    between atoms: S1_3  and  C3_4
REMARK    3  A    between atoms: C3_4  and  C4_5
REMARK    4  A    between atoms: C12_14  and  C13_15
ROOT
HETATM    1  C4  UNL     1       2.354  -1.335  -1.293  1.00  0.00     0.051 C
HETATM    2  C5  UNL     1       3.672  -0.658  -1.075  1.00  0.00     0.013 C
HETATM    3  C6  UNL     1       4.867  -1.384  -1.592  1.00  0.00     0.032 C
HETATM    4  C7  UNL     1       4.613  -2.200  -2.810  1.00  0.00     0.120 C
HETATM    5  C8  UNL     1       5.731  -3.237  -2.962  1.00  0.00     0.039 C
HETATM    6  O1  UNL     1       3.419  -2.837  -2.867  1.00  0.00    -0.355 OA
HETATM    7  C9  UNL     1       2.588  -2.741  -1.764  1.00  0.00     0.141 C
HETATM    8  C10 UNL     1       3.217  -3.472  -0.592  1.00  0.00     0.063 C
HETATM    9  C11 UNL     1       2.356  -4.615  -0.075  1.00  0.00     0.025 C
HETATM   10  C12 UNL     1       2.292  -5.586  -1.284  1.00  0.00     0.134 C
HETATM   11  C20 UNL     1       1.373  -4.868  -2.200  1.00  0.00     0.230 C
HETATM   12  O6  UNL     1       0.652  -5.491  -2.997  1.00  0.00    -0.273 OA
HETATM   13  N3  UNL     1       1.362  -3.431  -2.115  1.00  0.00    -0.328 N
ATOM     14  H3  UNL     1       0.506  -2.908  -2.299  1.00  0.00     0.165 HD
ENDROOT
BRANCH  10  15
HETATM   15  C13 UNL     1       1.760  -6.900  -0.825  1.00  0.00     0.100 C
HETATM   16  N1  UNL     1       0.791  -6.981   0.016  1.00  0.00    -0.280 N
HETATM   17  S2  UNL     1       0.090  -8.412   0.621  1.00  0.00     0.258 S
ATOM     18  H1  UNL     1       0.404  -6.101   0.355  1.00  0.00     0.178 HD
HETATM   19  O2  UNL     1      -1.419  -8.264   0.547  1.00  0.00    -0.203 OA
HETATM   20  O3  UNL     1       0.494  -8.662   2.045  1.00  0.00    -0.203 OA
HETATM   21  C14 UNL     1       0.623  -9.752  -0.425  1.00  0.00     0.160 C
HETATM   22  C15 UNL     1       0.771 -10.980   0.442  1.00  0.00     0.076 C
HETATM   23  C18 UNL     1      -0.438  -9.942  -1.484  1.00  0.00     0.076 C
HETATM   24  N2  UNL     1       1.904  -9.437  -1.002  1.00  0.00    -0.332 N
HETATM   25  C16 UNL     1       0.667 -12.262  -0.332  1.00  0.00     0.171 C
HETATM   26  O4  UNL     1      -0.333 -12.266  -1.278  1.00  0.00    -0.391 OA
HETATM   27  C17 UNL     1      -0.139 -11.252  -2.210  1.00  0.00     0.171 C
HETATM   28  C19 UNL     1       2.336  -8.122  -1.350  1.00  0.00     0.267 C
ATOM     29  H2  UNL     1       2.548 -10.209  -1.175  1.00  0.00     0.164 HD
HETATM   30  O5  UNL     1       3.303  -8.063  -2.186  1.00  0.00    -0.266 OA
ENDBRANCH  10  15
BRANCH   1  31
HETATM   31  C3  UNL     1       1.392  -0.524  -2.079  1.00  0.00     0.083 C
BRANCH  31  32
HETATM   32  S1  UNL     1       2.110   0.744  -3.113  1.00  0.00    -0.169 SA
BRANCH  32  33
HETATM   33  C2  UNL     1       2.355   0.110  -4.784  1.00  0.00     0.069 C
HETATM   34  C1  UNL     1       3.807   0.181  -5.209  1.00  0.00     0.016 C
ENDBRANCH  32  33
ENDBRANCH  31  32
ENDBRANCH   1  31
TORSDOF 4
ENDMDL