MODEL 3
REMARK VINA RESULT: -10.326136775      2.058      3.029
REMARK  9 active torsions:
REMARK  status: ('A' for Active; 'I' for Inactive)
REMARK    1  A    between atoms: N1_1  and  C1_5
REMARK    2  A    between atoms: C3_7  and  O1_8
REMARK    3  A    between atoms: C4_10  and  O2_11
REMARK    4  A    between atoms: C5_13  and  O3_14
REMARK    5  A    between atoms: O3_14  and  C6_15
REMARK    6  A    between atoms: C6_15  and  C7_17
REMARK    7  A    between atoms: C9_19  and  C10_20
REMARK    8  A    between atoms: C10_20  and  C11_21
REMARK    9  A    between atoms: C10_20  and  C16_29
REMARK       I    between atoms: C11_21  and  N2_23
ROOT
HETATM    1  C7  UNL     1       3.593  -4.956  -1.572  1.00  0.00     0.014 C
HETATM    2  C8  UNL     1       4.294  -3.843  -1.505  1.00  0.00    -0.008 C
HETATM    3  C9  UNL     1       3.829  -2.915  -2.588  1.00  0.00     0.022 C
HETATM    4  C24 UNL     1       2.417  -3.371  -2.724  1.00  0.00     0.014 C
HETATM    5  C25 UNL     1       2.574  -4.917  -2.663  1.00  0.00     0.045 C
ENDROOT
BRANCH   3   6
HETATM    6  C10 UNL     1       4.166  -1.526  -2.402  1.00  0.00     0.090 C
BRANCH   6   7
HETATM    7  C11 UNL     1       3.173  -0.751  -3.255  1.00  0.00     0.225 C
HETATM    8  O5  UNL     1       3.203  -1.009  -4.497  1.00  0.00    -0.273 OA
HETATM    9  N2  UNL     1       2.264   0.185  -2.774  1.00  0.00    -0.348 N
HETATM   10  C12 UNL     1       2.173   0.543  -1.383  1.00  0.00     0.152 C
HETATM   11  C15 UNL     1       1.354   0.845  -3.682  1.00  0.00     0.152 C
HETATM   12  C13 UNL     1       1.364   1.842  -1.345  1.00  0.00     0.187 C
HETATM   13  O6  UNL     1       0.086   1.696  -1.820  1.00  0.00    -0.388 OA
HETATM   14  C14 UNL     1      -0.005   0.965  -2.992  1.00  0.00     0.187 C
ENDBRANCH   6   7
BRANCH   6  15
HETATM   15  C16 UNL     1       5.469  -0.896  -2.494  1.00  0.00     0.004 C
HETATM   16  C17 UNL     1       5.741  -0.091  -1.165  1.00  0.00     0.006 C
HETATM   17  C18 UNL     1       7.226   0.319  -1.438  1.00  0.00     0.005 C
HETATM   18  C19 UNL     1       7.671  -1.064  -1.580  1.00  0.00    -0.010 C
HETATM   19  C20 UNL     1       8.943  -1.417  -2.228  1.00  0.00     0.005 C
HETATM   20  C23 UNL     1       6.726  -1.536  -2.728  1.00  0.00    -0.006 C
HETATM   21  C21 UNL     1       8.626  -2.896  -2.550  1.00  0.00     0.001 C
HETATM   22  C22 UNL     1       7.068  -2.957  -2.595  1.00  0.00     0.005 C
ENDBRANCH   6  15
ENDBRANCH   3   6
BRANCH   1  23
HETATM   23  C6  UNL     1       3.753  -6.118  -0.676  1.00  0.00     0.289 C
HETATM   24  O4  UNL     1       4.914  -6.589  -0.464  1.00  0.00    -0.260 OA
BRANCH  23  25
HETATM   25  O3  UNL     1       2.700  -6.725  -0.053  1.00  0.00    -0.307 OA
BRANCH  25  26
HETATM   26  C5  UNL     1       2.378  -8.077  -0.295  1.00  0.00     0.194 C
HETATM   27  C1  UNL     1       1.167  -8.142  -1.185  1.00  0.00     0.218 C
HETATM   28  C2  UNL     1       0.603  -9.514  -0.873  1.00  0.00     0.070 C
HETATM   29  C3  UNL     1       0.997  -9.848   0.535  1.00  0.00     0.151 C
HETATM   30  C4  UNL     1       2.015  -8.816   0.975  1.00  0.00     0.178 C
BRANCH  27  31
HETATM   31  N1  UNL     1       0.194  -7.104  -0.881  1.00  0.00    -0.072 N
ATOM     32  H13 UNL     1      -0.567  -7.458  -0.302  1.00  0.00     0.274 HD
ATOM     33  H12 UNL     1       0.570  -6.411  -0.234  1.00  0.00     0.274 HD
ATOM     34  H11 UNL     1      -0.153  -6.672  -1.737  1.00  0.00     0.274 HD
ENDBRANCH  27  31
BRANCH  29  35
HETATM   35  O1  UNL     1      -0.132  -9.852   1.337  1.00  0.00    -0.393 OA
ATOM     36  H1  UNL     1      -0.042  -9.188   2.010  1.00  0.00     0.210 HD
ENDBRANCH  29  35
BRANCH  30  37
HETATM   37  O2  UNL     1       1.508  -7.990   1.948  1.00  0.00    -0.390 OA
ATOM     38  H2  UNL     1       1.230  -7.156   1.587  1.00  0.00     0.210 HD
ENDBRANCH  30  37
ENDBRANCH  25  26
ENDBRANCH  23  25
ENDBRANCH   1  23
TORSDOF 9
ENDMDL