MODEL 1
REMARK VINA RESULT: -7.842159209      0.000      0.000
REMARK  3 active torsions:
REMARK  status: ('A' for Active; 'I' for Inactive)
REMARK    1  A    between atoms: N1_2  and  C3_4
REMARK    2  A    between atoms: C3_4  and  C4_5
REMARK    3  A    between atoms: C4_5  and  N2_6
ROOT
HETATM    1  N2  UNL     1       2.665  -4.424  -1.258  1.00  0.00    -0.387 N
HETATM    2  C5  UNL     1       3.954  -4.632  -1.791  1.00  0.00     0.149 C
HETATM    3  C6  UNL     1       4.231  -6.011  -2.274  1.00  0.00    -0.011 C
HETATM    4  C7  UNL     1       5.391  -6.626  -2.122  1.00  0.00    -0.029 C
HETATM    5  C8  UNL     1       6.577  -6.059  -1.463  1.00  0.00     0.027 C
HETATM    6  C9  UNL     1       6.791  -6.561  -0.073  1.00  0.00     0.005 C
HETATM    7  C10 UNL     1       5.946  -7.753   0.309  1.00  0.00     0.028 C
HETATM    8  C11 UNL     1       6.492  -9.062  -0.198  1.00  0.00     0.232 C
HETATM    9  N3  UNL     1       5.388 -10.007  -0.157  1.00  0.00    -0.073 N
ATOM     10  H31 UNL     1       4.950 -10.100  -1.074  1.00  0.00     0.277 HD
ATOM     11  H32 UNL     1       4.599  -9.627   0.364  1.00  0.00     0.277 HD
HETATM   12  C12 UNL     1       5.781 -11.289   0.361  1.00  0.00     0.258 C
HETATM   13  C13 UNL     1       4.597 -11.813   1.181  1.00  0.00     0.195 C
HETATM   14  O1  UNL     1       3.675 -12.423   0.301  1.00  0.00    -0.389 OA
HETATM   15  C14 UNL     1       2.414 -11.889   0.422  1.00  0.00     0.167 C
HETATM   16  C15 UNL     1       1.514 -12.903   1.108  1.00  0.00     0.028 C
HETATM   17  C16 UNL     1       0.119 -12.379   1.314  1.00  0.00     0.032 C
HETATM   18  C17 UNL     1      -0.843 -12.912   0.277  1.00  0.00     0.272 C
HETATM   19  N4  UNL     1      -0.884 -12.069  -0.892  1.00  0.00     0.084 N
HETATM   20  C18 UNL     1      -1.623 -12.786  -1.915  1.00  0.00     0.309 C
HETATM   21  C19 UNL     1      -1.538 -10.794  -0.608  1.00  0.00     0.273 C
HETATM   22  C20 UNL     1      -1.953 -10.211  -1.927  1.00  0.00     0.057 C
HETATM   23  C21 UNL     1      -2.642  -8.884  -1.809  1.00  0.00     0.234 C
HETATM   24  N5  UNL     1      -1.764  -7.790  -1.520  1.00  0.00    -0.073 N
ATOM     25  H51 UNL     1      -0.832  -7.919  -1.915  1.00  0.00     0.277 HD
ATOM     26  H52 UNL     1      -1.492  -7.753  -0.537  1.00  0.00     0.277 HD
HETATM   27  C22 UNL     1      -2.404  -6.559  -1.974  1.00  0.00     0.259 C
HETATM   28  C23 UNL     1      -1.515  -5.799  -2.932  1.00  0.00     0.260 C
HETATM   29  N6  UNL     1      -0.483  -5.040  -2.265  1.00  0.00    -0.069 N
ATOM     30  H61 UNL     1      -0.695  -4.920  -1.275  1.00  0.00     0.277 HD
ATOM     31  H62 UNL     1      -0.499  -4.062  -2.554  1.00  0.00     0.277 HD
HETATM   32  C24 UNL     1       0.854  -5.629  -2.454  1.00  0.00     0.276 C
HETATM   33  C25 UNL     1       1.713  -5.443  -1.239  1.00  0.00     0.085 C
ENDROOT
BRANCH   1  34
HETATM   34  C4  UNL     1       2.188  -3.112  -1.473  1.00  0.00     0.152 C
BRANCH  34  35
HETATM   35  C3  UNL     1       3.063  -2.447  -2.538  1.00  0.00     0.291 C
BRANCH  35  36
HETATM   36  N1  UNL     1       2.351  -1.413  -3.264  1.00  0.00     0.081 N
HETATM   37  C1  UNL     1       1.778  -0.436  -2.336  1.00  0.00     0.309 C
HETATM   38  C2  UNL     1       3.263  -0.712  -4.174  1.00  0.00     0.309 C
ENDBRANCH  35  36
ENDBRANCH  34  35
ENDBRANCH   1  34
TORSDOF 3
ENDMDL