MODEL 2
REMARK VINA RESULT: -9.440423219      0.881      1.604
REMARK  7 active torsions:
REMARK  status: ('A' for Active; 'I' for Inactive)
REMARK    1  A    between atoms: O1_2  and  C2_3
REMARK    2  A    between atoms: C2_3  and  C3_5
REMARK    3  A    between atoms: C4_7  and  N1_8
REMARK       I    between atoms: N1_8  and  C5_10
REMARK    4  A    between atoms: C5_10  and  C6_12
REMARK    5  A    between atoms: C9_16  and  N2_17
REMARK       I    between atoms: N2_17  and  C10_19
REMARK    6  A    between atoms: C10_19  and  C11_21
REMARK    7  A    between atoms: C17_27  and  O6_28
ROOT
HETATM    1  C6  UNL     1       3.716  -7.164  -1.483  1.00  0.00     0.127 C
HETATM    2  C7  UNL     1       3.787  -6.858   0.001  1.00  0.00     0.183 C
HETATM    3  O4  UNL     1       2.617  -6.235   0.345  1.00  0.00    -0.388 OA
HETATM    4  C8  UNL     1       1.746  -6.247  -0.725  1.00  0.00     0.193 C
HETATM    5  C9  UNL     1       2.719  -6.100  -1.909  1.00  0.00     0.123 C
ENDROOT
BRANCH   5   6
HETATM    6  N2  UNL     1       3.251  -4.789  -1.996  1.00  0.00    -0.353 N
HETATM    7  C10 UNL     1       2.575  -3.621  -2.363  1.00  0.00     0.227 C
HETATM    8  O5  UNL     1       1.355  -3.697  -2.660  1.00  0.00    -0.273 OA
ATOM      9  H2  UNL     1       4.239  -4.685  -1.764  1.00  0.00     0.163 HD
BRANCH   7  10
HETATM   10  C11 UNL     1       3.203  -2.279  -2.429  1.00  0.00     0.044 C
HETATM   11  C12 UNL     1       4.711  -2.368  -2.381  1.00  0.00     0.024 C
HETATM   12  C13 UNL     1       5.311  -1.000  -2.340  1.00  0.00    -0.010 C
HETATM   13  C14 UNL     1       4.926  -0.174  -3.552  1.00  0.00     0.009 C
HETATM   14  C18 UNL     1       4.848  -0.251  -1.099  1.00  0.00     0.042 C
HETATM   15  C15 UNL     1       3.397  -0.161  -3.639  1.00  0.00    -0.010 C
HETATM   16  C16 UNL     1       2.906   0.601  -2.439  1.00  0.00     0.042 C
HETATM   17  C20 UNL     1       2.851  -1.556  -3.710  1.00  0.00     0.024 C
HETATM   18  C17 UNL     1       3.360  -0.111  -1.194  1.00  0.00     0.060 C
HETATM   19  C19 UNL     1       2.762  -1.498  -1.218  1.00  0.00     0.057 C
BRANCH  18  20
HETATM   20  O6  UNL     1       2.896   0.510  -0.036  1.00  0.00    -0.390 OA
ATOM     21  H6  UNL     1       3.138   0.030   0.748  1.00  0.00     0.210 HD
ENDBRANCH  18  20
ENDBRANCH   7  10
ENDBRANCH   5   6
BRANCH   1  22
HETATM   22  C5  UNL     1       4.992  -7.064  -2.176  1.00  0.00     0.232 C
HETATM   23  N1  UNL     1       6.194  -7.336  -1.497  1.00  0.00    -0.307 N
ATOM     24  H1  UNL     1       6.912  -6.613  -1.454  1.00  0.00     0.171 HD
HETATM   25  O3  UNL     1       5.111  -6.737  -3.399  1.00  0.00    -0.273 OA
BRANCH  23  26
HETATM   26  C4  UNL     1       6.419  -8.493  -0.917  1.00  0.00     0.152 A
HETATM   27  S1  UNL     1       6.596  -8.907   0.726  1.00  0.00    -0.046 SA
HETATM   28  C3  UNL     1       6.853 -10.582   0.535  1.00  0.00     0.105 A
HETATM   29  C21 UNL     1       6.785 -10.727  -0.825  1.00  0.00     0.030 A
HETATM   30  N3  UNL     1       6.566  -9.662  -1.541  1.00  0.00    -0.339 N
HETATM   31  C22 UNL     1       6.966 -12.120  -1.417  1.00  0.00     0.070 C
ATOM     32  H3  UNL     1       6.508  -9.721  -2.557  1.00  0.00     0.168 HD
BRANCH  28  33
HETATM   33  C2  UNL     1       7.091 -11.605   1.580  1.00  0.00     0.301 C
HETATM   34  O2  UNL     1       8.185 -11.651   2.175  1.00  0.00    -0.259 OA
BRANCH  33  35
HETATM   35  O1  UNL     1       6.044 -12.484   1.846  1.00  0.00    -0.322 OA
HETATM   36  C1  UNL     1       4.803 -11.877   2.206  1.00  0.00     0.213 C
ENDBRANCH  33  35
ENDBRANCH  28  33
ENDBRANCH  23  26
ENDBRANCH   1  22
TORSDOF 7
ENDMDL