MODEL 3
REMARK VINA RESULT: -9.413635975      2.280      7.601
REMARK  7 active torsions:
REMARK  status: ('A' for Active; 'I' for Inactive)
REMARK    1  A    between atoms: C2_2  and  O1_3
REMARK    2  A    between atoms: C5_7  and  N1_9
REMARK    3  A    between atoms: N1_9  and  C7_11
REMARK    4  A    between atoms: C8_14  and  N3_15
REMARK    5  A    between atoms: N3_15  and  C9_17
REMARK    6  A    between atoms: C14_25  and  S1_26
REMARK    7  A    between atoms: S1_26  and  C15_29
ROOT
HETATM    1  C7  UNL     1       5.869  -2.884  -2.728  1.00  0.00     0.140 A
HETATM    2  N2  UNL     1       4.827  -3.691  -2.790  1.00  0.00    -0.175 N
ATOM      3  H2  UNL     1       3.915  -3.289  -3.005  1.00  0.00     0.186 HD
HETATM    4  C8  UNL     1       4.910  -5.012  -2.584  1.00  0.00     0.679 A
HETATM    5  N4  UNL     1       6.108  -5.544  -2.299  1.00  0.00    -0.200 N
ATOM      6  H4  UNL     1       6.185  -6.548  -2.139  1.00  0.00     0.183 HD
HETATM    7  C13 UNL     1       7.226  -4.765  -2.220  1.00  0.00     0.133 A
HETATM    8  C14 UNL     1       7.113  -3.414  -2.435  1.00  0.00     0.119 A
ENDROOT
BRANCH   1   9
HETATM    9  N1  UNL     1       5.836  -1.616  -2.917  1.00  0.00    -0.366 N
ATOM     10  H1  UNL     1       6.593  -1.245  -3.492  1.00  0.00     0.162 HD
BRANCH   9  11
HETATM   11  C5  UNL     1       4.913  -0.657  -2.453  1.00  0.00     0.028 C
HETATM   12  C4  UNL     1       4.009  -1.357  -1.427  1.00  0.00     0.033 C
HETATM   13  C3  UNL     1       2.854  -0.451  -1.105  1.00  0.00     0.040 C
HETATM   14  C2  UNL     1       1.878  -0.551  -2.276  1.00  0.00     0.054 C
HETATM   15  C1  UNL     1       1.128   0.755  -2.386  1.00  0.00     0.045 C
HETATM   16  C21 UNL     1       2.643  -0.903  -3.508  1.00  0.00     0.040 C
HETATM   17  C20 UNL     1       4.005  -0.241  -3.586  1.00  0.00     0.033 C
HETATM   18  C6  UNL     1       5.520   0.519  -1.728  1.00  0.00     0.038 C
BRANCH  14  19
HETATM   19  O1  UNL     1       1.002  -1.615  -1.980  1.00  0.00    -0.390 OA
ATOM     20  H1  UNL     1       1.154  -2.353  -2.558  1.00  0.00     0.210 HD
ENDBRANCH  14  19
ENDBRANCH   9  11
ENDBRANCH   1   9
BRANCH   8  21
HETATM   21  S1  UNL     1       8.519  -2.356  -2.354  1.00  0.00     0.184 S
HETATM   22  O3  UNL     1       8.334  -1.510  -1.116  1.00  0.00    -0.222 OA
HETATM   23  O4  UNL     1       8.553  -1.496  -3.578  1.00  0.00    -0.222 OA
BRANCH  21  24
HETATM   24  C15 UNL     1      10.007  -3.264  -2.234  1.00  0.00     0.117 C
HETATM   25  C16 UNL     1      11.148  -2.225  -2.265  1.00  0.00     0.046 C
HETATM   26  C17 UNL     1      12.424  -2.867  -1.759  1.00  0.00     0.168 C
HETATM   27  O5  UNL     1      12.355  -4.229  -1.984  1.00  0.00    -0.391 OA
HETATM   28  C18 UNL     1      11.452  -4.876  -1.143  1.00  0.00     0.168 C
HETATM   29  C19 UNL     1      10.197  -4.015  -0.954  1.00  0.00     0.046 C
ENDBRANCH  21  24
ENDBRANCH   8  21
BRANCH   4  30
HETATM   30  N3  UNL     1       3.844  -5.768  -2.657  1.00  0.00    -0.219 N
ATOM     31  H3  UNL     1       3.903  -6.656  -3.155  1.00  0.00     0.178 HD
BRANCH  30  32
HETATM   32  C9  UNL     1       2.594  -5.392  -2.062  1.00  0.00     0.125 C
HETATM   33  C10 UNL     1       1.747  -6.604  -1.677  1.00  0.00     0.054 C
HETATM   34  C11 UNL     1       0.359  -6.097  -1.935  1.00  0.00     0.169 C
HETATM   35  O2  UNL     1       0.414  -5.038  -2.789  1.00  0.00    -0.389 OA
HETATM   36  C12 UNL     1       1.712  -4.772  -3.125  1.00  0.00     0.193 C
ENDBRANCH  30  32
ENDBRANCH   4  30
TORSDOF 7
ENDMDL