MODEL 5
REMARK VINA RESULT: -8.333116110      3.296      8.532
REMARK  6 active torsions:
REMARK  status: ('A' for Active; 'I' for Inactive)
REMARK    1  A    between atoms: C1_2  and  C2_4
REMARK       I    between atoms: N3_11  and  C7_13
REMARK    2  A    between atoms: C7_13  and  C8_15
REMARK       I    between atoms: N4_18  and  C11_20
REMARK    3  A    between atoms: C11_20  and  O4_22
REMARK    4  A    between atoms: O4_22  and  C12_23
REMARK    5  A    between atoms: C19_30  and  O5_31
REMARK    6  A    between atoms: O5_31  and  S1_32
ROOT
HETATM    1  C8  UNL     1       3.847  -5.502  -1.020  1.00  0.00     0.114 C
HETATM    2  C9  UNL     1       3.581  -6.912  -0.648  1.00  0.00     0.069 C
HETATM    3  C10 UNL     1       2.478  -7.458  -1.454  1.00  0.00    -0.007 C
HETATM    4  N4  UNL     1       2.563  -8.565  -2.082  1.00  0.00    -0.310 N
ATOM      5  H4  UNL     1       1.769  -8.898  -2.628  1.00  0.00     0.170 HD
HETATM    6  C11 UNL     1       3.737  -9.324  -2.028  1.00  0.00     0.365 C
HETATM    7  O3  UNL     1       4.640  -9.053  -2.882  1.00  0.00    -0.238 OA
HETATM    8  C17 UNL     1       1.234  -6.672  -1.510  1.00  0.00     0.055 C
HETATM    9  C18 UNL     1       1.504  -5.252  -1.919  1.00  0.00     0.040 C
HETATM   10  C19 UNL     1       2.681  -4.631  -1.251  1.00  0.00     0.158 C
ENDROOT
BRANCH   1  11
HETATM   11  C7  UNL     1       4.851  -5.494  -2.124  1.00  0.00     0.230 C
HETATM   12  N3  UNL     1       6.226  -5.232  -1.859  1.00  0.00    -0.312 N
HETATM   13  C6  UNL     1       6.749  -4.116  -2.239  1.00  0.00     0.123 A
ATOM     14  H3  UNL     1       6.794  -5.924  -1.371  1.00  0.00     0.170 HD
HETATM   15  C2  UNL     1       8.074  -3.836  -1.995  1.00  0.00     0.073 A
HETATM   16  N2  UNL     1       6.013  -3.190  -2.887  1.00  0.00    -0.351 N
HETATM   17  C3  UNL     1       8.622  -2.627  -2.413  1.00  0.00     0.022 A
HETATM   18  C4  UNL     1       7.841  -1.706  -3.072  1.00  0.00     0.018 A
HETATM   19  C5  UNL     1       6.520  -2.021  -3.298  1.00  0.00     0.090 A
ATOM     20  H2  UNL     1       5.030  -3.388  -3.072  1.00  0.00     0.166 HD
HETATM   21  O2  UNL     1       4.427  -5.728  -3.290  1.00  0.00    -0.273 OA
BRANCH  15  22
HETATM   22  C1  UNL     1       8.944  -4.786  -1.298  1.00  0.00     0.268 C
HETATM   23  N1  UNL     1       9.835  -4.301  -0.308  1.00  0.00    -0.057 NA
HETATM   24  O1  UNL     1       8.905  -6.012  -1.569  1.00  0.00    -0.271 OA
ENDBRANCH  15  22
ENDBRANCH   1  11
BRANCH  10  25
HETATM   25  O5  UNL     1       3.099  -3.554  -2.027  1.00  0.00    -0.251 OA
BRANCH  25  26
HETATM   26  S1  UNL     1       2.679  -2.078  -1.373  1.00  0.00     0.251 S
HETATM   27  O6  UNL     1       2.325  -2.324   0.069  1.00  0.00    -0.572 OA
HETATM   28  O7  UNL     1       3.824  -1.106  -1.379  1.00  0.00    -0.572 OA
HETATM   29  O8  UNL     1       1.340  -1.403  -2.104  1.00  0.00    -0.572 OA
ENDBRANCH  25  26
ENDBRANCH  10  25
BRANCH   6  30
HETATM   30  O4  UNL     1       3.967 -10.339  -1.111  1.00  0.00    -0.298 OA
BRANCH  30  31
HETATM   31  C12 UNL     1       2.893 -10.819  -0.357  1.00  0.00     0.133 C
HETATM   32  C13 UNL     1       2.970 -12.327  -0.220  1.00  0.00     0.032 C
HETATM   33  C14 UNL     1       2.188 -12.641   1.024  1.00  0.00     0.002 C
HETATM   34  C15 UNL     1       1.944 -11.324   1.733  1.00  0.00     0.002 C
HETATM   35  C16 UNL     1       2.976 -10.400   1.096  1.00  0.00     0.032 C
ENDBRANCH  30  31
ENDBRANCH   6  30
TORSDOF 6
ENDMDL