MODEL 4
REMARK VINA RESULT: -8.274312300      6.747      9.448
REMARK  9 active torsions:
REMARK  status: ('A' for Active; 'I' for Inactive)
REMARK    1  A    between atoms: O1_2  and  C2_3
REMARK    2  A    between atoms: C4_5  and  C17_21
REMARK    3  A    between atoms: C5_6  and  C6_7
REMARK    4  A    between atoms: C6_7  and  O2_8
REMARK    5  A    between atoms: C12_15  and  C13_16
REMARK    6  A    between atoms: C21_25  and  O5_26
REMARK    7  A    between atoms: C22_28  and  O6_29
REMARK    8  A    between atoms: C22_28  and  C23_31
REMARK    9  A    between atoms: C23_31  and  O7_32
ROOT
HETATM    1  C13 UNL     1      -1.011  -9.717  -1.531  1.00  0.00     0.015 C
HETATM    2  C14 UNL     1      -1.856 -10.762  -2.168  1.00  0.00     0.084 C
HETATM    3  C15 UNL     1      -2.130 -11.950  -1.351  1.00  0.00     0.128 C
HETATM    4  O4  UNL     1      -3.086 -12.638  -1.602  1.00  0.00    -0.298 OA
HETATM    5  C16 UNL     1      -1.248 -12.293  -0.240  1.00  0.00     0.089 C
HETATM    6  C17 UNL     1      -0.339 -11.242   0.256  1.00  0.00    -0.015 C
HETATM    7  C18 UNL     1       1.095 -11.784   0.131  1.00  0.00     0.008 C
HETATM    8  C19 UNL     1       0.929 -11.407  -1.356  1.00  0.00     0.020 C
HETATM    9  C20 UNL     1       0.152 -10.268  -0.794  1.00  0.00     0.003 C
HETATM   10  C21 UNL     1       1.068  -9.191  -0.331  1.00  0.00     0.165 C
HETATM   11  C22 UNL     1       2.411  -9.657   0.189  1.00  0.00     0.113 C
HETATM   12  C24 UNL     1       2.185 -11.003   0.769  1.00  0.00    -0.000 A
HETATM   13  C25 UNL     1       3.453 -11.834   1.015  1.00  0.00     0.014 A
HETATM   14  C26 UNL     1       2.616 -11.405   2.137  1.00  0.00     0.014 A
ENDROOT
BRANCH  11  15
HETATM   15  O6  UNL     1       3.371  -9.624  -0.851  1.00  0.00    -0.384 OA
ATOM     16  H6  UNL     1       3.273 -10.388  -1.407  1.00  0.00     0.210 HD
ENDBRANCH  11  15
BRANCH  11  17
HETATM   17  C23 UNL     1       2.998  -8.638   1.165  1.00  0.00     0.205 C
BRANCH  17  18
HETATM   18  O7  UNL     1       2.278  -7.472   1.158  1.00  0.00    -0.398 OA
ATOM     19  H7  UNL     1       2.314  -7.051   0.307  1.00  0.00     0.209 HD
ENDBRANCH  17  18
ENDBRANCH  11  17
BRANCH  10  20
HETATM   20  O5  UNL     1       1.352  -8.381  -1.445  1.00  0.00    -0.392 OA
ATOM     21  H5  UNL     1       2.116  -8.751  -1.873  1.00  0.00     0.210 HD
ENDBRANCH  10  20
BRANCH   1  22
HETATM   22  C12 UNL     1      -1.646  -8.644  -0.775  1.00  0.00     0.057 C
HETATM   23  C6  UNL     1      -3.081  -8.610  -0.431  1.00  0.00     0.138 C
HETATM   24  C8  UNL     1      -3.675  -8.028  -1.672  1.00  0.00     0.190 C
HETATM   25  O3  UNL     1      -4.708  -8.213  -2.281  1.00  0.00    -0.289 OA
HETATM   26  C9  UNL     1      -2.679  -7.052  -2.112  1.00  0.00    -0.016 C
HETATM   27  C10 UNL     1      -2.911  -5.864  -2.993  1.00  0.00     0.052 C
HETATM   28  C11 UNL     1      -1.491  -7.392  -1.599  1.00  0.00    -0.008 C
BRANCH  23  29
HETATM   29  C5  UNL     1      -3.727  -9.740   0.184  1.00  0.00     0.063 C
HETATM   30  C2  UNL     1      -3.912  -9.865   1.672  1.00  0.00     0.129 C
HETATM   31  C3  UNL     1      -5.163 -10.706   1.373  1.00  0.00     0.038 C
HETATM   32  C4  UNL     1      -5.112 -10.137  -0.027  1.00  0.00     0.008 C
BRANCH  30  33
HETATM   33  O1  UNL     1      -3.024 -10.718   2.345  1.00  0.00    -0.390 OA
HETATM   34  C1  UNL     1      -3.732 -11.547   3.189  1.00  0.00     0.202 C
ENDBRANCH  30  33
ENDBRANCH  23  29
BRANCH  23  35
HETATM   35  O2  UNL     1      -3.186  -7.461   0.375  1.00  0.00    -0.376 OA
HETATM   36  C7  UNL     1      -4.359  -6.877   0.588  1.00  0.00     0.203 C
ENDBRANCH  23  35
ENDBRANCH   1  22
TORSDOF 9
ENDMDL