MODEL 2
REMARK VINA RESULT: -10.248113652      2.075      5.104
REMARK  4 active torsions:
REMARK  status: ('A' for Active; 'I' for Inactive)
REMARK    1  A    between atoms: C1_2  and  C2_3
REMARK       I    between atoms: C1_2  and  N5_28
REMARK    2  A    between atoms: C2_3  and  S1_4
REMARK    3  A    between atoms: S1_4  and  C3_5
REMARK       I    between atoms: N3_11  and  C5_13
REMARK    4  A    between atoms: C5_13  and  C6_15
ROOT
HETATM    1  C3  UNL     1       4.937  -6.217  -0.718  1.00  0.00     0.134 A
HETATM    2  N1  UNL     1       4.078  -6.581   0.222  1.00  0.00    -0.286 N
ATOM      3  H1  UNL     1       4.234  -7.384   0.832  1.00  0.00     0.188 HD
HETATM    4  N2  UNL     1       3.041  -5.847   0.303  1.00  0.00    -0.278 N
ATOM      5  H2  UNL     1       2.400  -6.167   1.028  1.00  0.00     0.189 HD
HETATM    6  C4  UNL     1       2.633  -4.876  -0.261  1.00  0.00     0.168 A
HETATM    7  N3  UNL     1       1.944  -3.749  -0.497  1.00  0.00    -0.304 N
ATOM      8  H3  UNL     1       1.302  -3.301   0.157  1.00  0.00     0.171 HD
HETATM    9  C5  UNL     1       2.260  -3.263  -1.845  1.00  0.00     0.260 C
HETATM   10  O2  UNL     1       2.585  -4.110  -2.695  1.00  0.00    -0.270 OA
HETATM   11  S2  UNL     1       4.166  -4.850  -1.385  1.00  0.00    -0.026 SA
ENDROOT
BRANCH   9  12
HETATM   12  C6  UNL     1       2.219  -1.860  -2.241  1.00  0.00     0.206 C
HETATM   13  C7  UNL     1       3.188  -1.167  -1.125  1.00  0.00     0.053 C
HETATM   14  C8  UNL     1       3.130   0.278  -1.360  1.00  0.00    -0.009 C
HETATM   15  C9  UNL     1       3.726   0.622  -2.731  1.00  0.00     0.009 C
HETATM   16  C13 UNL     1       1.752   0.905  -1.317  1.00  0.00     0.037 C
HETATM   17  C10 UNL     1       2.866  -0.040  -3.755  1.00  0.00    -0.009 C
HETATM   18  C11 UNL     1       1.417   0.371  -3.660  1.00  0.00     0.037 C
HETATM   19  C14 UNL     1       2.894  -1.554  -3.492  1.00  0.00     0.053 C
HETATM   20  C12 UNL     1       0.883   0.105  -2.295  1.00  0.00     0.188 C
HETATM   21  N4  UNL     1       0.973  -1.264  -1.898  1.00  0.00    -0.053 N
ATOM     22  H42 UNL     1       0.195  -1.805  -2.274  1.00  0.00     0.279 HD
ATOM     23  H41 UNL     1       0.782  -1.368  -0.901  1.00  0.00     0.279 HD
ENDBRANCH   9  12
BRANCH   1  24
HETATM   24  S1  UNL     1       6.441  -6.947  -1.390  1.00  0.00    -0.070 SA
BRANCH  24  25
HETATM   25  C2  UNL     1       7.712  -5.800  -1.697  1.00  0.00     0.126 C
BRANCH  25  26
HETATM   26  C1  UNL     1       7.547  -4.645  -2.549  1.00  0.00     0.250 C
HETATM   27  O1  UNL     1       6.541  -4.648  -3.336  1.00  0.00    -0.268 OA
HETATM   28  N5  UNL     1       8.386  -3.542  -2.573  1.00  0.00    -0.347 N
HETATM   29  C15 UNL     1       9.597  -3.168  -1.905  1.00  0.00     0.127 C
HETATM   30  C21 UNL     1       8.094  -2.317  -3.395  1.00  0.00     0.137 C
HETATM   31  C16 UNL     1       9.140  -1.854  -1.269  1.00  0.00     0.033 C
HETATM   32  C17 UNL     1       8.178  -1.266  -2.283  1.00  0.00     0.003 C
HETATM   33  C18 UNL     1       6.815  -1.046  -1.652  1.00  0.00     0.040 C
HETATM   34  C20 UNL     1       8.615   0.039  -2.814  1.00  0.00     0.243 C
HETATM   35  C19 UNL     1       6.871   0.419  -1.327  1.00  0.00     0.233 C
HETATM   36  N6  UNL     1       7.742   1.065  -2.269  1.00  0.00    -0.074 N
ATOM     37  H62 UNL     1       7.239   1.585  -2.988  1.00  0.00     0.277 HD
ATOM     38  H61 UNL     1       8.250   1.853  -1.869  1.00  0.00     0.277 HD
ENDBRANCH  25  26
ENDBRANCH  24  25
ENDBRANCH   1  24
TORSDOF 4
ENDMDL