MODEL 1
REMARK VINA RESULT: -8.023944178      0.000      0.000
REMARK  8 active torsions:
REMARK  status: ('A' for Active; 'I' for Inactive)
REMARK    1  A    between atoms: C9_9  and  O1_10
REMARK    2  A    between atoms: C12_14  and  O2_15
REMARK    3  A    between atoms: O2_15  and  C13_16
REMARK    4  A    between atoms: C13_16  and  C14_18
REMARK    5  A    between atoms: C14_18  and  S1_19
REMARK    6  A    between atoms: C16_23  and  C17_24
REMARK    7  A    between atoms: C17_24  and  C18_25
REMARK    8  A    between atoms: C21_30  and  O8_31
ROOT
HETATM    1  C1  UNL     1       4.572   0.198  -4.049  1.00  0.00     0.014 C
HETATM    2  C2  UNL     1       4.210  -0.879  -3.373  1.00  0.00    -0.084 A
HETATM    3  C3  UNL     1       3.049  -1.773  -3.415  1.00  0.00     0.039 A
HETATM    4  C4  UNL     1       3.541  -2.549  -2.188  1.00  0.00     0.005 A
HETATM    5  C5  UNL     1       4.793  -1.667  -2.288  1.00  0.00     0.019 A
HETATM    6  C6  UNL     1       5.926  -2.622  -2.693  1.00  0.00     0.014 C
HETATM    7  C7  UNL     1       5.447  -3.874  -1.935  1.00  0.00    -0.004 C
HETATM    8  C8  UNL     1       6.141  -5.114  -2.341  1.00  0.00     0.037 C
HETATM    9  C9  UNL     1       5.225  -6.321  -2.530  1.00  0.00     0.132 C
HETATM   10  C10 UNL     1       4.058  -6.210  -1.546  1.00  0.00     0.040 C
HETATM   11  C11 UNL     1       4.654  -6.029  -0.203  1.00  0.00     0.024 C
HETATM   12  C12 UNL     1       3.204  -7.463  -1.621  1.00  0.00     0.150 C
HETATM   13  C16 UNL     1       1.815  -7.286  -1.100  1.00  0.00     0.026 C
HETATM   14  C19 UNL     1       1.659  -5.989  -0.311  1.00  0.00     0.011 C
HETATM   15  C20 UNL     1       2.159  -4.794  -1.033  1.00  0.00     0.040 C
HETATM   16  C21 UNL     1       3.220  -5.064  -2.056  1.00  0.00     0.074 C
HETATM   17  C22 UNL     1       4.030  -3.925  -2.480  1.00  0.00     0.030 C
ENDROOT
BRANCH  12  18
HETATM   18  O2  UNL     1       3.872  -8.583  -1.080  1.00  0.00    -0.314 OA
BRANCH  18  19
HETATM   19  C13 UNL     1       4.535  -9.543  -1.806  1.00  0.00     0.273 C
HETATM   20  O3  UNL     1       4.436  -9.486  -3.078  1.00  0.00    -0.264 OA
BRANCH  19  21
HETATM   21  C14 UNL     1       5.342 -10.624  -1.221  1.00  0.00     0.250 C
BRANCH  21  22
HETATM   22  S1  UNL     1       6.763  -9.980  -0.386  1.00  0.00     0.149 S
HETATM   23  C15 UNL     1       6.314  -9.532   1.274  1.00  0.00     0.161 C
HETATM   24  O4  UNL     1       7.343  -8.802  -1.114  1.00  0.00    -0.228 OA
HETATM   25  O5  UNL     1       7.837 -11.019  -0.299  1.00  0.00    -0.228 OA
ENDBRANCH  21  22
ENDBRANCH  19  21
ENDBRANCH  18  19
ENDBRANCH  12  18
BRANCH  13  26
HETATM   26  C17 UNL     1       1.171  -8.437  -0.460  1.00  0.00     0.120 C
BRANCH  26  27
HETATM   27  C18 UNL     1       0.738  -8.430   0.904  1.00  0.00     0.172 C
HETATM   28  O6  UNL     1      -0.348  -8.186   1.443  1.00  0.00    -0.648 OA
HETATM   29  O7  UNL     1       1.745  -8.767   1.847  1.00  0.00    -0.648 OA
ENDBRANCH  26  27
ENDBRANCH  13  26
BRANCH   9  30
HETATM   30  O1  UNL     1       4.703  -6.366  -3.809  1.00  0.00    -0.395 OA
ATOM     31  H1  UNL     1       3.807  -6.051  -3.831  1.00  0.00     0.210 HD
ENDBRANCH   9  30
BRANCH  16  32
HETATM   32  O8  UNL     1       2.553  -5.545  -3.214  1.00  0.00    -0.388 OA
ATOM     33  H8  UNL     1       2.350  -4.780  -3.740  1.00  0.00     0.210 HD
ENDBRANCH  16  32
TORSDOF 8
ENDMDL