MODEL 2
REMARK VINA RESULT: -8.485494627      2.217      5.005
REMARK  7 active torsions:
REMARK  status: ('A' for Active; 'I' for Inactive)
REMARK    1  A    between atoms: C2_2  and  C3_3
REMARK    2  A    between atoms: C3_3  and  C5_5
REMARK    3  A    between atoms: C5_5  and  N1_6
REMARK    4  A    between atoms: C7_9  and  C8_10
REMARK    5  A    between atoms: N4_17  and  C13_19
REMARK    6  A    between atoms: C15_21  and  O1_22
REMARK    7  A    between atoms: N5_31  and  C21_32
ROOT
HETATM    1  C8  UNL     1      -1.409   2.090   9.631  1.00  0.00     0.027 A
HETATM    2  C9  UNL     1      -1.173   0.730   9.690  1.00  0.00     0.018 A
HETATM    3  C10 UNL     1      -0.112   0.178   9.002  1.00  0.00     0.018 A
HETATM    4  C11 UNL     1       0.728   0.969   8.246  1.00  0.00     0.090 A
HETATM    5  N3  UNL     1       0.497   2.293   8.189  1.00  0.00    -0.352 N
ATOM      6  H3  UNL     1       1.111   2.891   7.634  1.00  0.00     0.166 HD
HETATM    7  C12 UNL     1      -0.537   2.837   8.859  1.00  0.00     0.117 A
HETATM    8  N4  UNL     1      -0.780   4.119   8.819  1.00  0.00    -0.340 N
ATOM      9  H4  UNL     1      -1.575   4.485   9.343  1.00  0.00     0.167 HD
ENDROOT
BRANCH   1  10
HETATM   10  C7  UNL     1      -2.517   2.724  10.340  1.00  0.00     0.090 A
HETATM   11  C6  UNL     1      -3.521   3.542   9.839  1.00  0.00     0.150 A
HETATM   12  N1  UNL     1      -4.316   3.887  10.866  1.00  0.00    -0.272 N
HETATM   13  N2  UNL     1      -3.582   3.869   8.459  1.00  0.00    -0.080 NA
HETATM   14  N5  UNL     1      -3.893   3.344  12.004  1.00  0.00    -0.239 N
HETATM   15  C20 UNL     1      -2.798   2.635  11.687  1.00  0.00     0.277 A
HETATM   16  O2  UNL     1      -2.082   1.957  12.483  1.00  0.00    -0.265 OA
BRANCH  12  17
HETATM   17  C5  UNL     1      -5.473   4.739  10.780  1.00  0.00     0.155 C
BRANCH  17  18
HETATM   18  C3  UNL     1      -5.188   6.199  10.732  1.00  0.00     0.001 C
HETATM   19  C4  UNL     1      -5.172   6.710   9.308  1.00  0.00     0.011 C
BRANCH  18  20
HETATM   20  C2  UNL     1      -6.259   7.011  11.453  1.00  0.00     0.001 C
HETATM   21  C1  UNL     1      -7.231   7.621  10.488  1.00  0.00     0.005 C
ENDBRANCH  18  20
ENDBRANCH  17  18
ENDBRANCH  12  17
BRANCH  14  22
HETATM   22  C21 UNL     1      -4.492   3.483  13.335  1.00  0.00     0.267 C
HETATM   23 CL3  UNL     1      -3.151   3.446  14.534  1.00  0.00    -0.107 Cl
ENDBRANCH  14  22
ENDBRANCH   1  10
BRANCH   8  24
HETATM   24  C13 UNL     1       0.018   5.019   8.075  1.00  0.00     0.058 A
HETATM   25  C14 UNL     1       1.125   4.647   7.344  1.00  0.00     0.069 A
HETATM   26  C15 UNL     1       1.877   5.557   6.632  1.00  0.00     0.092 A
HETATM   27  C17 UNL     1       1.537   6.891   6.630  1.00  0.00     0.069 A
HETATM   28 CL1  UNL     1       2.495   8.045   5.725  1.00  0.00    -0.081 Cl
HETATM   29  C18 UNL     1       0.417   7.289   7.367  1.00  0.00     0.052 A
HETATM   30  C19 UNL     1      -0.326   6.367   8.075  1.00  0.00     0.062 A
HETATM   31 CL2  UNL     1      -1.723   6.897   8.986  1.00  0.00    -0.082 Cl
BRANCH  26  32
HETATM   32  O1  UNL     1       2.979   5.122   5.916  1.00  0.00    -0.354 OA
HETATM   33  C16 UNL     1       3.921   4.232   6.432  1.00  0.00     0.210 C
ENDBRANCH  26  32
ENDBRANCH   8  24
TORSDOF 7
ENDMDL