MODEL 5
REMARK VINA RESULT: -8.508768585      5.905      8.114
REMARK  8 active torsions:
REMARK  status: ('A' for Active; 'I' for Inactive)
REMARK    1  A    between atoms: C2_2  and  O1_4
REMARK    2  A    between atoms: O1_4  and  C4_5
REMARK    3  A    between atoms: C8_10  and  N1_11
REMARK    4  A    between atoms: N1_11  and  C9_13
REMARK    5  A    between atoms: C12_16  and  S1_17
REMARK    6  A    between atoms: S1_17  and  C13_18
REMARK    7  A    between atoms: C16_25  and  N3_26
REMARK    8  A    between atoms: C18_32  and  S2_33
ROOT
HETATM    1  C4  UNL     1       1.684   5.877   6.732  1.00  0.00     0.114 A
HETATM    2  C5  UNL     1       1.231   4.618   7.125  1.00  0.00     0.070 A
HETATM    3 CL1  UNL     1       2.301   3.247   7.400  1.00  0.00    -0.081 Cl
HETATM    4  C6  UNL     1      -0.104   4.369   7.370  1.00  0.00     0.044 A
HETATM    5  C7  UNL     1      -1.046   5.363   7.231  1.00  0.00     0.039 A
HETATM    6  C8  UNL     1      -2.375   5.034   7.466  1.00  0.00     0.134 A
HETATM    7  N2  UNL     1      -3.273   6.019   7.296  1.00  0.00    -0.176 N
ATOM      8  H2  UNL     1      -4.262   5.824   7.458  1.00  0.00     0.186 HD
HETATM    9  C16 UNL     1      -2.903   7.252   6.918  1.00  0.00     0.678 A
HETATM   10  N4  UNL     1      -1.588   7.545   6.695  1.00  0.00    -0.190 N
ATOM     11  H4  UNL     1      -1.332   8.490   6.408  1.00  0.00     0.184 HD
HETATM   12  C17 UNL     1      -0.627   6.630   6.843  1.00  0.00     0.087 A
HETATM   13  C18 UNL     1       0.742   6.873   6.601  1.00  0.00     0.122 A
ENDROOT
BRANCH   6  14
HETATM   14  N1  UNL     1      -2.654   3.854   7.819  1.00  0.00    -0.341 N
ATOM     15  H1  UNL     1      -2.843   3.191   7.067  1.00  0.00     0.167 HD
BRANCH  14  16
HETATM   16  C9  UNL     1      -2.733   3.350   9.123  1.00  0.00     0.033 A
HETATM   17  C10 UNL     1      -1.795   2.391   9.492  1.00  0.00     0.031 A
HETATM   18  C11 UNL     1      -1.762   1.817  10.742  1.00  0.00     0.021 A
HETATM   19  C12 UNL     1      -2.686   2.193  11.676  1.00  0.00     0.005 A
HETATM   20  C14 UNL     1      -3.629   3.144  11.337  1.00  0.00     0.021 A
HETATM   21  C15 UNL     1      -3.651   3.719  10.064  1.00  0.00     0.031 A
BRANCH  19  22
HETATM   22  S1  UNL     1      -2.698   1.487  13.318  1.00  0.00    -0.061 SA
BRANCH  22  23
HETATM   23  C13 UNL     1      -1.036   0.794  13.617  1.00  0.00     0.420 C
HETATM   24  F1  UNL     1      -0.331   1.726  14.355  1.00  0.00    -0.202 F
HETATM   25  F2  UNL     1      -1.160  -0.369  14.381  1.00  0.00    -0.202 F
ENDBRANCH  22  23
ENDBRANCH  19  22
ENDBRANCH  14  16
ENDBRANCH   6  14
BRANCH   9  26
HETATM   26  N3  UNL     1      -3.773   8.176   6.760  1.00  0.00    -0.234 N
ATOM     27  H32 UNL     1      -4.156   8.334   5.828  1.00  0.00     0.174 HD
ATOM     28  H31 UNL     1      -4.079   8.745   7.549  1.00  0.00     0.174 HD
ENDBRANCH   9  26
BRANCH  13  29
HETATM   29  S2  UNL     1       1.179   8.518   6.274  1.00  0.00     0.176 S
HETATM   30  C19 UNL     1       0.969   8.984   4.587  1.00  0.00     0.167 C
HETATM   31  O2  UNL     1       0.523   9.515   7.238  1.00  0.00    -0.223 OA
HETATM   32  O3  UNL     1       2.663   8.783   6.589  1.00  0.00    -0.223 OA
ENDBRANCH  13  29
BRANCH   1  33
HETATM   33  O1  UNL     1       3.007   6.066   6.490  1.00  0.00    -0.343 OA
BRANCH  33  34
HETATM   34  C2  UNL     1       3.707   5.821   5.285  1.00  0.00     0.121 C
HETATM   35  C1  UNL     1       2.794   5.813   4.056  1.00  0.00     0.040 C
HETATM   36  C3  UNL     1       4.574   4.592   5.264  1.00  0.00     0.040 C
ENDBRANCH  33  34
ENDBRANCH   1  33
TORSDOF 8
ENDMDL