MODEL 1
REMARK VINA RESULT: -8.921393737      0.000      0.000
REMARK  8 active torsions:
REMARK  status: ('A' for Active; 'I' for Inactive)
REMARK    1  A    between atoms: C2_2  and  C3_3
REMARK    2  A    between atoms: C3_3  and  O1_4
REMARK    3  A    between atoms: C3_3  and  C12_22
REMARK    4  A    between atoms: O1_4  and  N1_5
REMARK    5  A    between atoms: C7_14  and  N4_15
REMARK    6  A    between atoms: C12_22  and  N5_23
REMARK    7  A    between atoms: C12_22  and  O3_35
REMARK    8  A    between atoms: N6_25  and  C13_27
ROOT
HETATM    1  C3  UNL     1      -3.146   3.834   8.777  1.00  0.00     0.197 C
ENDROOT
BRANCH   1   2
HETATM    2  C2  UNL     1      -4.204   4.557   7.964  1.00  0.00     0.034 C
HETATM    3  C1  UNL     1      -3.782   6.021   7.891  1.00  0.00     0.008 C
ENDBRANCH   1   2
BRANCH   1   4
HETATM    4  O1  UNL     1      -2.050   4.646   8.837  1.00  0.00    -0.288 OA
BRANCH   4   5
HETATM    5  N1  UNL     1      -0.875   4.064   8.910  1.00  0.00    -0.157 NA
HETATM    6  C4  UNL     1      -0.745   2.765   8.384  1.00  0.00     0.121 C
HETATM    7  C5  UNL     1       0.715   2.629   8.140  1.00  0.00     0.061 A
HETATM    8  N2  UNL     1       1.561   1.581   8.065  1.00  0.00    -0.307 N
HETATM    9  C8  UNL     1       1.191   3.910   7.954  1.00  0.00     0.038 A
HETATM   10  C6  UNL     1       2.872   1.714   7.814  1.00  0.00     0.326 A
ATOM     11  H2  UNL     1       1.187   0.643   8.206  1.00  0.00     0.170 HD
HETATM   12  O2  UNL     1       3.651   0.717   7.747  1.00  0.00    -0.247 OA
HETATM   13  N3  UNL     1       3.318   2.962   7.635  1.00  0.00    -0.294 N
HETATM   14  C7  UNL     1       2.530   4.072   7.694  1.00  0.00     0.113 A
ATOM     15  H3  UNL     1       4.311   3.091   7.442  1.00  0.00     0.172 HD
HETATM   16  C9  UNL     1       0.060   4.869   8.101  1.00  0.00     0.069 C
HETATM   17  C10 UNL     1      -0.472   5.185   6.748  1.00  0.00     0.040 C
HETATM   18  C11 UNL     1       0.403   6.087   8.916  1.00  0.00     0.040 C
BRANCH  14  19
HETATM   19  N4  UNL     1       3.031   5.236   7.504  1.00  0.00    -0.385 N
ATOM     20  H42 UNL     1       3.631   5.672   8.204  1.00  0.00     0.157 HD
ATOM     21  H41 UNL     1       2.832   5.752   6.647  1.00  0.00     0.157 HD
ENDBRANCH  14  19
ENDBRANCH   4   5
ENDBRANCH   1   4
BRANCH   1  22
HETATM   22  C12 UNL     1      -3.781   3.607  10.155  1.00  0.00     0.289 C
BRANCH  22  23
HETATM   23  N5  UNL     1      -2.830   2.859  10.939  1.00  0.00    -0.303 N
HETATM   24  N6  UNL     1      -3.078   1.709  11.414  1.00  0.00    -0.299 N
ATOM     25  H6  UNL     1      -3.993   1.299  11.229  1.00  0.00     0.186 HD
ATOM     26  H5  UNL     1      -1.916   3.274  11.121  1.00  0.00     0.183 HD
BRANCH  24  27
HETATM   27  C13 UNL     1      -2.163   0.967  12.179  1.00  0.00     0.091 A
HETATM   28  C14 UNL     1      -1.786   1.371  13.463  1.00  0.00     0.063 A
HETATM   29 CL1  UNL     1      -2.467   2.842  14.145  1.00  0.00    -0.082 Cl
HETATM   30  C15 UNL     1      -0.892   0.622  14.177  1.00  0.00     0.026 A
HETATM   31  C16 UNL     1      -0.341  -0.537  13.666  1.00  0.00     0.003 A
HETATM   32  C17 UNL     1      -0.705  -0.943  12.409  1.00  0.00     0.026 A
HETATM   33  C18 UNL     1      -1.612  -0.185  11.682  1.00  0.00     0.063 A
HETATM   34 CL2  UNL     1      -2.052  -0.734  10.077  1.00  0.00    -0.082 Cl
ENDBRANCH  24  27
ENDBRANCH  22  23
BRANCH  22  35
HETATM   35  O3  UNL     1      -4.134   4.810  10.752  1.00  0.00    -0.254 OA
HETATM   36 CL3  UNL     1      -5.050   4.611  12.151  1.00  0.00     0.064 Cl
ENDBRANCH  22  35
ENDBRANCH   1  22
TORSDOF 8
ENDMDL