MODEL 2
REMARK VINA RESULT: -9.581643474      2.029      2.892
REMARK  9 active torsions:
REMARK  status: ('A' for Active; 'I' for Inactive)
REMARK    1  A    between atoms: C2_2  and  O1_3
REMARK    2  A    between atoms: C2_2  and  C15_31
REMARK    3  A    between atoms: O1_3  and  C3_4
REMARK    4  A    between atoms: C6_7  and  C7_8
REMARK    5  A    between atoms: C8_9  and  O2_10
REMARK    6  A    between atoms: C9_14  and  O3_15
REMARK    7  A    between atoms: C10_17  and  N2_18
REMARK    8  A    between atoms: C11_20  and  N3_21
REMARK    9  A    between atoms: N3_21  and  S1_23
ROOT
HETATM    1  C15 UNL     1       0.647   1.952   8.149  1.00  0.00    -0.028 A
HETATM    2  C16 UNL     1       1.216   0.710   8.298  1.00  0.00     0.010 A
HETATM    3  C17 UNL     1       2.560   0.482   8.057  1.00  0.00     0.002 A
HETATM    4  C18 UNL     1       3.356   1.532   7.656  1.00  0.00     0.022 A
HETATM    5  C19 UNL     1       2.815   2.796   7.498  1.00  0.00     0.045 A
HETATM    6  C20 UNL     1       3.663   3.880   7.078  1.00  0.00     0.099 C
HETATM    7  N4  UNL     1       4.340   4.760   6.725  1.00  0.00    -0.191 NA
HETATM    8  C21 UNL     1       1.452   2.992   7.749  1.00  0.00     0.032 A
ENDROOT
BRANCH   1   9
HETATM    9  C2  UNL     1      -0.818   2.212   8.410  1.00  0.00     0.158 C
HETATM   10  C1  UNL     1      -1.016   1.964   9.927  1.00  0.00     0.045 C
BRANCH   9  11
HETATM   11  O1  UNL     1      -1.102   3.483   8.050  1.00  0.00    -0.338 OA
BRANCH  11  12
HETATM   12  C3  UNL     1      -2.037   4.419   8.358  1.00  0.00     0.111 A
HETATM   13  C4  UNL     1      -3.408   4.118   8.171  1.00  0.00     0.041 A
HETATM   14  C5  UNL     1      -4.410   5.003   8.456  1.00  0.00     0.018 A
HETATM   15  C6  UNL     1      -4.126   6.246   8.947  1.00  0.00     0.023 A
HETATM   16  C13 UNL     1      -2.806   6.568   9.138  1.00  0.00     0.169 A
HETATM   17  F2  UNL     1      -2.502   7.804   9.625  1.00  0.00    -0.202 F
HETATM   18  C14 UNL     1      -1.787   5.676   8.850  1.00  0.00     0.189 A
HETATM   19  F3  UNL     1      -0.487   6.066   9.068  1.00  0.00    -0.200 F
BRANCH  15  20
HETATM   20  C7  UNL     1      -5.153   7.234   9.270  1.00  0.00     0.059 A
HETATM   21  C8  UNL     1      -5.529   8.327   8.484  1.00  0.00     0.155 A
HETATM   22  N1  UNL     1      -6.504   9.004   9.115  1.00  0.00    -0.315 N
HETATM   23  C9  UNL     1      -6.804   8.422  10.285  1.00  0.00     0.170 A
ATOM     24  H1  UNL     1      -6.953   9.845   8.754  1.00  0.00     0.170 HD
HETATM   25  C10 UNL     1      -5.957   7.312  10.383  1.00  0.00     0.100 A
BRANCH  21  26
HETATM   26  O2  UNL     1      -4.953   8.624   7.249  1.00  0.00    -0.345 OA
ATOM     27  H2  UNL     1      -5.450   8.705   6.443  1.00  0.00     0.219 HD
ENDBRANCH  21  26
BRANCH  23  28
HETATM   28  O3  UNL     1      -7.760   8.841  11.208  1.00  0.00    -0.344 OA
ATOM     29  H3  UNL     1      -7.647   9.489  11.893  1.00  0.00     0.219 HD
ENDBRANCH  23  28
BRANCH  25  30
HETATM   30  N2  UNL     1      -5.941   6.421  11.462  1.00  0.00    -0.348 N
HETATM   31  C11 UNL     1      -4.907   6.294  12.217  1.00  0.00     0.191 C
ATOM     32  H2  UNL     1      -6.770   5.858  11.653  1.00  0.00     0.167 HD
BRANCH  31  33
HETATM   33  N3  UNL     1      -4.851   5.407  13.314  1.00  0.00    -0.289 N
ATOM     34  H3  UNL     1      -4.972   5.788  14.252  1.00  0.00     0.178 HD
BRANCH  33  35
HETATM   35  S1  UNL     1      -4.613   3.869  13.162  1.00  0.00     0.180 S
HETATM   36  C12 UNL     1      -3.313   3.270  14.183  1.00  0.00     0.173 C
HETATM   37  O4  UNL     1      -4.277   3.566  11.715  1.00  0.00    -0.217 OA
HETATM   38  F1  UNL     1      -6.051   3.108  13.575  1.00  0.00    -0.125 F
ENDBRANCH  33  35
ENDBRANCH  31  33
ENDBRANCH  25  30
ENDBRANCH  15  20
ENDBRANCH  11  12
ENDBRANCH   9  11
ENDBRANCH   1   9
TORSDOF 9
ENDMDL