MODEL 4
REMARK VINA RESULT: -8.608791207      2.614      6.796
REMARK  9 active torsions:
REMARK  status: ('A' for Active; 'I' for Inactive)
REMARK    1  A    between atoms: O1_2  and  C2_3
REMARK    2  A    between atoms: C7_11  and  N2_12
REMARK    3  A    between atoms: C8_15  and  N3_16
REMARK    4  A    between atoms: N3_16  and  N4_18
REMARK    5  A    between atoms: C9_20  and  C11_22
REMARK    6  A    between atoms: N5_24  and  C12_25
REMARK    7  A    between atoms: C12_25  and  C13_26
REMARK    8  A    between atoms: C13_26  and  O2_27
REMARK    9  A    between atoms: C13_26  and  C14_29
ROOT
HETATM    1  C2  UNL     1      -4.174   4.092  12.117  1.00  0.00     0.097 A
HETATM    2  C3  UNL     1      -5.120   5.000  12.567  1.00  0.00     0.041 A
HETATM    3  C4  UNL     1      -5.685   5.945  11.745  1.00  0.00     0.029 A
HETATM    4  C5  UNL     1      -5.272   5.963  10.436  1.00  0.00     0.063 A
HETATM    5 CL1  UNL     1      -5.939   7.142   9.303  1.00  0.00    -0.082 Cl
HETATM    6  C6  UNL     1      -4.328   5.078   9.930  1.00  0.00     0.086 A
HETATM    7  N1  UNL     1      -3.961   5.174   8.643  1.00  0.00    -0.336 N
ATOM      8  H1  UNL     1      -4.385   5.880   8.041  1.00  0.00     0.168 HD
HETATM    9  C7  UNL     1      -3.034   4.339   8.152  1.00  0.00     0.146 A
HETATM   10  C8  UNL     1      -2.478   3.405   8.955  1.00  0.00     0.167 A
HETATM   11  N5  UNL     1      -2.848   3.295  10.275  1.00  0.00    -0.322 N
HETATM   12  C20 UNL     1      -3.769   4.114  10.809  1.00  0.00     0.098 A
ENDROOT
BRANCH  11  13
HETATM   13  C12 UNL     1      -2.195   2.274  11.029  1.00  0.00     0.167 C
BRANCH  13  14
HETATM   14  C13 UNL     1      -2.805   0.891  10.874  1.00  0.00     0.169 C
BRANCH  14  15
HETATM   15  O2  UNL     1      -4.025   0.682  11.418  1.00  0.00    -0.389 OA
ATOM     16  H2  UNL     1      -4.121   0.832  12.351  1.00  0.00     0.210 HD
ENDBRANCH  14  15
BRANCH  14  17
HETATM   17  C14 UNL     1      -1.813  -0.061  11.507  1.00  0.00    -0.026 A
HETATM   18  C15 UNL     1      -1.290  -1.129  10.819  1.00  0.00     0.010 A
HETATM   19  C16 UNL     1      -0.377  -2.003  11.417  1.00  0.00     0.002 A
HETATM   20  C17 UNL     1       0.019  -1.805  12.721  1.00  0.00     0.024 A
HETATM   21  C18 UNL     1      -0.494  -0.747  13.409  1.00  0.00     0.034 A
HETATM   22 CL3  UNL     1       0.045  -0.540  15.072  1.00  0.00    -0.084 Cl
HETATM   23  C19 UNL     1      -1.382   0.093  12.813  1.00  0.00     0.033 A
ENDBRANCH  14  17
ENDBRANCH  13  14
ENDBRANCH  11  13
BRANCH  10  24
HETATM   24  N3  UNL     1      -1.595   2.604   8.516  1.00  0.00    -0.282 N
ATOM     25  H3  UNL     1      -1.864   1.626   8.410  1.00  0.00     0.188 HD
BRANCH  24  26
HETATM   26  N4  UNL     1      -0.308   2.942   8.171  1.00  0.00    -0.306 N
HETATM   27  C9  UNL     1       0.728   2.210   8.152  1.00  0.00     0.013 C
HETATM   28  C10 UNL     1       2.014   2.868   7.725  1.00  0.00     0.066 C
ATOM     29  H4  UNL     1      -0.167   3.913   7.893  1.00  0.00     0.186 HD
BRANCH  27  30
HETATM   30  C11 UNL     1       0.816   0.777   8.501  1.00  0.00     0.168 C
HETATM   31 CL2  UNL     1       2.429   0.110   8.173  1.00  0.00    -0.124 Cl
ENDBRANCH  27  30
ENDBRANCH  24  26
ENDBRANCH  10  24
BRANCH   9  32
HETATM   32  N2  UNL     1      -2.678   4.444   6.888  1.00  0.00    -0.382 N
ATOM     33  H22 UNL     1      -2.797   5.320   6.380  1.00  0.00     0.157 HD
ATOM     34  H21 UNL     1      -2.278   3.634   6.414  1.00  0.00     0.157 HD
ENDBRANCH   9  32
BRANCH   1  35
HETATM   35  O1  UNL     1      -3.646   3.178  12.994  1.00  0.00    -0.354 OA
HETATM   36  C1  UNL     1      -3.481   3.467  14.373  1.00  0.00     0.210 C
ENDBRANCH   1  35
TORSDOF 9
ENDMDL