MODEL 2
REMARK VINA RESULT: -10.020142424      0.580      1.905
REMARK  8 active torsions:
REMARK  status: ('A' for Active; 'I' for Inactive)
REMARK    1  A    between atoms: O1_2  and  C2_3
REMARK    2  A    between atoms: C7_8  and  C8_9
REMARK    3  A    between atoms: C8_9  and  C9_10
REMARK    4  A    between atoms: C9_10  and  N1_11
REMARK    5  A    between atoms: N1_11  and  C10_13
REMARK    6  A    between atoms: C11_16  and  O2_17
REMARK    7  A    between atoms: O2_17  and  C12_18
REMARK    8  A    between atoms: C18_29  and  N4_30
ROOT
HETATM    1  C10 UNL     1      -2.290   0.783  12.612  1.00  0.00     0.695 A
HETATM    2  N2  UNL     1      -2.174   1.015  11.301  1.00  0.00    -0.154 N
ATOM      3  H2  UNL     1      -2.740   1.737  10.856  1.00  0.00     0.188 HD
HETATM    4  C11 UNL     1      -1.294   0.280  10.564  1.00  0.00     0.258 A
HETATM    5  N3  UNL     1      -0.556  -0.666  11.163  1.00  0.00    -0.154 N
ATOM      6  H3  UNL     1       0.100  -1.212  10.604  1.00  0.00     0.188 HD
HETATM    7  C18 UNL     1      -0.658  -0.915  12.476  1.00  0.00     0.693 A
HETATM    8  N5  UNL     1      -1.530  -0.180  13.183  1.00  0.00    -0.022 N
ATOM      9  H5  UNL     1      -1.623  -0.353  14.184  1.00  0.00     0.203 HD
ENDROOT
BRANCH   1  10
HETATM   10  N1  UNL     1      -3.095   1.434  13.364  1.00  0.00    -0.225 N
ATOM     11  H1  UNL     1      -3.772   0.902  13.911  1.00  0.00     0.177 HD
BRANCH  10  12
HETATM   12  C9  UNL     1      -3.109   2.869  13.487  1.00  0.00     0.142 C
BRANCH  12  13
HETATM   13  C8  UNL     1      -4.509   3.412  13.657  1.00  0.00     0.060 C
BRANCH  13  14
HETATM   14  C7  UNL     1      -4.817   4.407  12.600  1.00  0.00    -0.038 A
HETATM   15  C6  UNL     1      -4.191   4.564  11.393  1.00  0.00     0.038 A
HETATM   16  C5  UNL     1      -4.782   5.614  10.689  1.00  0.00     0.039 A
HETATM   17  C4  UNL     1      -4.567   6.197   9.458  1.00  0.00     0.033 A
HETATM   18  N6  UNL     1      -5.759   6.064  11.501  1.00  0.00    -0.330 N
HETATM   19  C3  UNL     1      -5.355   7.252   9.049  1.00  0.00     0.040 A
HETATM   20  C2  UNL     1      -6.367   7.725   9.879  1.00  0.00     0.084 A
HETATM   21  C20 UNL     1      -6.526   7.095  11.095  1.00  0.00     0.133 A
HETATM   22  C19 UNL     1      -5.801   5.364  12.643  1.00  0.00     0.104 A
BRANCH  20  23
HETATM   23  O1  UNL     1      -7.197   8.766   9.558  1.00  0.00    -0.355 OA
HETATM   24  C1  UNL     1      -7.725   9.697  10.456  1.00  0.00     0.210 C
ENDBRANCH  20  23
ENDBRANCH  13  14
ENDBRANCH  12  13
ENDBRANCH  10  12
ENDBRANCH   1  10
BRANCH   4  25
HETATM   25  O2  UNL     1      -1.201   0.545   9.225  1.00  0.00    -0.275 OA
BRANCH  25  26
HETATM   26  C12 UNL     1      -0.431   1.553   8.709  1.00  0.00     0.124 A
HETATM   27  C13 UNL     1       0.887   1.306   8.345  1.00  0.00     0.069 A
HETATM   28 CL1  UNL     1       1.510  -0.323   8.572  1.00  0.00    -0.081 Cl
HETATM   29  C14 UNL     1       1.677   2.305   7.826  1.00  0.00     0.028 A
HETATM   30  C15 UNL     1       1.162   3.574   7.658  1.00  0.00     0.027 A
HETATM   31  C16 UNL     1      -0.147   3.819   8.019  1.00  0.00     0.058 A
HETATM   32 CL2  UNL     1      -0.747   5.449   7.785  1.00  0.00    -0.082 Cl
HETATM   33  C17 UNL     1      -0.956   2.815   8.547  1.00  0.00     0.091 A
HETATM   34 CL3  UNL     1      -2.605   3.201   8.981  1.00  0.00    -0.079 Cl
ENDBRANCH  25  26
ENDBRANCH   4  25
BRANCH   7  35
HETATM   35  N4  UNL     1       0.069  -1.842  13.051  1.00  0.00    -0.234 N
ATOM     36  H42 UNL     1       1.015  -2.045  12.728  1.00  0.00     0.174 HD
ATOM     37  H41 UNL     1      -0.291  -2.386  13.835  1.00  0.00     0.174 HD
ENDBRANCH   7  35
TORSDOF 8
ENDMDL