MODEL 2
REMARK VINA RESULT: -9.798536556      0.962      1.738
REMARK  9 active torsions:
REMARK  status: ('A' for Active; 'I' for Inactive)
REMARK    1  A    between atoms: O1_2  and  C2_3
REMARK    2  A    between atoms: C7_8  and  N1_9
REMARK    3  A    between atoms: N1_9  and  C8_11
REMARK    4  A    between atoms: C9_14  and  N3_15
REMARK    5  A    between atoms: N3_15  and  C11_17
REMARK    6  A    between atoms: C11_17  and  C12_18
REMARK    7  A    between atoms: C12_18  and  O2_19
REMARK    8  A    between atoms: C14_23  and  N4_24
REMARK    9  A    between atoms: N4_24  and  C15_26
ROOT
HETATM    1  C8  UNL     1      -3.084   4.362   8.750  1.00  0.00     0.686 A
HETATM    2  N2  UNL     1      -3.839   5.450   8.942  1.00  0.00    -0.175 N
ATOM      3  H2  UNL     1      -3.798   6.194   8.245  1.00  0.00     0.186 HD
HETATM    4  C9  UNL     1      -4.658   5.617  10.017  1.00  0.00     0.144 A
HETATM    5  C13 UNL     1      -4.672   4.587  10.925  1.00  0.00     0.122 A
HETATM    6 CL1  UNL     1      -5.665   4.662  12.362  1.00  0.00    -0.076 Cl
HETATM    7  C14 UNL     1      -3.901   3.443  10.757  1.00  0.00     0.147 A
HETATM    8  N5  UNL     1      -3.125   3.368   9.664  1.00  0.00    -0.174 N
ATOM      9  H5  UNL     1      -2.551   2.537   9.519  1.00  0.00     0.186 HD
ENDROOT
BRANCH   1  10
HETATM   10  N1  UNL     1      -2.332   4.260   7.727  1.00  0.00    -0.189 N
ATOM     11  H1  UNL     1      -2.782   4.380   6.820  1.00  0.00     0.184 HD
BRANCH  10  12
HETATM   12  C7  UNL     1      -0.957   4.003   7.710  1.00  0.00     0.082 A
HETATM   13  C2  UNL     1      -0.108   5.052   7.296  1.00  0.00     0.095 A
HETATM   14  C3  UNL     1       1.252   4.858   7.257  1.00  0.00     0.039 A
HETATM   15  C4  UNL     1       1.821   3.634   7.623  1.00  0.00     0.003 A
HETATM   16  C5  UNL     1       0.989   2.618   8.025  1.00  0.00     0.002 A
HETATM   17  C6  UNL     1      -0.370   2.821   8.061  1.00  0.00     0.033 A
BRANCH  13  18
HETATM   18  O1  UNL     1      -0.644   6.258   6.935  1.00  0.00    -0.354 OA
HETATM   19  C1  UNL     1      -0.606   7.406   7.685  1.00  0.00     0.210 C
ENDBRANCH  13  18
ENDBRANCH  10  12
ENDBRANCH   1  10
BRANCH   4  20
HETATM   20  N3  UNL     1      -5.426   6.801  10.147  1.00  0.00    -0.368 N
HETATM   21  C10 UNL     1      -5.204   7.883   9.214  1.00  0.00     0.151 C
BRANCH  20  22
HETATM   22  C11 UNL     1      -6.452   7.001  11.149  1.00  0.00     0.150 C
BRANCH  22  23
HETATM   23  C12 UNL     1      -7.326   8.165  10.761  1.00  0.00     0.183 C
BRANCH  23  24
HETATM   24  O2  UNL     1      -7.814   8.824  11.857  1.00  0.00    -0.399 OA
ATOM     25  H2  UNL     1      -8.677   9.186  11.696  1.00  0.00     0.209 HD
ENDBRANCH  23  24
ENDBRANCH  22  23
ENDBRANCH  20  22
ENDBRANCH   4  20
BRANCH   7  26
HETATM   26  N4  UNL     1      -3.956   2.535  11.620  1.00  0.00    -0.339 N
ATOM     27  H4  UNL     1      -4.892   2.358  11.983  1.00  0.00     0.167 HD
BRANCH  26  28
HETATM   28  C15 UNL     1      -2.966   1.727  12.169  1.00  0.00     0.057 A
HETATM   29  C16 UNL     1      -2.446   0.645  11.497  1.00  0.00     0.055 A
HETATM   30  C17 UNL     1      -1.464  -0.172  12.018  1.00  0.00     0.036 A
HETATM   31 CL2  UNL     1      -0.818  -1.539  11.148  1.00  0.00    -0.084 Cl
HETATM   32  C18 UNL     1      -0.959   0.100  13.294  1.00  0.00     0.026 A
HETATM   33  C19 UNL     1      -1.492   1.184  13.945  1.00  0.00     0.028 A
HETATM   34  C20 UNL     1      -2.474   2.000  13.424  1.00  0.00     0.060 A
HETATM   35 CL3  UNL     1      -3.075   3.370  14.371  1.00  0.00    -0.082 Cl
ENDBRANCH  26  28
ENDBRANCH   7  26
TORSDOF 9
ENDMDL