MODEL 3
REMARK VINA RESULT: -9.220695205      2.084      2.919
REMARK  8 active torsions:
REMARK  status: ('A' for Active; 'I' for Inactive)
REMARK    1  A    between atoms: O1_2  and  C2_3
REMARK    2  A    between atoms: C2_3  and  C3_4
REMARK    3  A    between atoms: C5_10  and  N3_11
REMARK    4  A    between atoms: C6_16  and  N5_17
REMARK    5  A    between atoms: N5_17  and  C7_19
REMARK    6  A    between atoms: C10_22  and  O2_23
REMARK    7  A    between atoms: O2_23  and  C11_24
REMARK    8  A    between atoms: C11_24  and  C12_25
ROOT
HETATM    1  C3  UNL     1      -5.582   6.236  11.410  1.00  0.00     0.125 A
HETATM    2  N1  UNL     1      -5.496   5.607  12.596  1.00  0.00    -0.327 N
ATOM      3  H1  UNL     1      -5.917   5.947  13.460  1.00  0.00     0.169 HD
HETATM    4  C4  UNL     1      -4.782   4.473  12.494  1.00  0.00     0.154 A
HETATM    5  N2  UNL     1      -4.396   3.495  13.327  1.00  0.00    -0.174 N
ATOM      6  H2  UNL     1      -4.679   3.560  14.304  1.00  0.00     0.186 HD
HETATM    7  C5  UNL     1      -3.659   2.433  12.956  1.00  0.00     0.679 A
HETATM    8  N4  UNL     1      -3.271   2.323  11.667  1.00  0.00    -0.174 N
ATOM      9  H4  UNL     1      -2.712   1.526  11.366  1.00  0.00     0.186 HD
HETATM   10  C6  UNL     1      -3.628   3.274  10.784  1.00  0.00     0.153 A
HETATM   11  C20 UNL     1      -4.390   4.367  11.176  1.00  0.00     0.142 A
HETATM   12  N6  UNL     1      -4.887   5.445  10.546  1.00  0.00    -0.233 N
HETATM   13 CL3  UNL     1      -4.685   5.805   8.856  1.00  0.00     0.020 Cl
ENDROOT
BRANCH  10  14
HETATM   14  N5  UNL     1      -3.294   3.231   9.542  1.00  0.00    -0.340 N
ATOM     15  H5  UNL     1      -4.037   3.284   8.845  1.00  0.00     0.167 HD
BRANCH  14  16
HETATM   16  C7  UNL     1      -1.958   3.117   9.081  1.00  0.00     0.035 A
HETATM   17  C8  UNL     1      -1.299   4.262   8.691  1.00  0.00     0.032 A
HETATM   18  C9  UNL     1       0.008   4.209   8.232  1.00  0.00     0.041 A
HETATM   19  C10 UNL     1       0.684   3.007   8.154  1.00  0.00     0.091 A
HETATM   20  C18 UNL     1       0.032   1.855   8.543  1.00  0.00     0.069 A
HETATM   21 CL2  UNL     1       0.896   0.334   8.442  1.00  0.00    -0.081 Cl
HETATM   22  C19 UNL     1      -1.267   1.927   8.997  1.00  0.00     0.056 A
BRANCH  19  23
HETATM   23  O2  UNL     1       1.997   2.916   7.698  1.00  0.00    -0.345 OA
BRANCH  23  24
HETATM   24  C11 UNL     1       2.806   4.070   7.819  1.00  0.00     0.214 C
BRANCH  24  25
HETATM   25  C12 UNL     1       3.184   4.582   6.476  1.00  0.00    -0.033 A
HETATM   26  C13 UNL     1       4.221   3.948   5.812  1.00  0.00     0.009 A
HETATM   27  C14 UNL     1       4.598   4.394   4.570  1.00  0.00     0.002 A
HETATM   28  C15 UNL     1       3.936   5.471   4.000  1.00  0.00     0.024 A
HETATM   29  C16 UNL     1       2.893   6.101   4.679  1.00  0.00     0.034 A
HETATM   30 CL1  UNL     1       2.042   7.459   3.982  1.00  0.00    -0.084 Cl
HETATM   31  C17 UNL     1       2.502   5.655   5.943  1.00  0.00     0.033 A
ENDBRANCH  24  25
ENDBRANCH  23  24
ENDBRANCH  19  23
ENDBRANCH  14  16
ENDBRANCH  10  14
BRANCH   7  32
HETATM   32  N3  UNL     1      -3.298   1.502  13.777  1.00  0.00    -0.234 N
ATOM     33  H32 UNL     1      -3.117   1.765  14.746  1.00  0.00     0.174 HD
ATOM     34  H31 UNL     1      -3.186   0.527  13.499  1.00  0.00     0.174 HD
ENDBRANCH   7  32
BRANCH   1  35
HETATM   35  C2  UNL     1      -6.273   7.510  11.082  1.00  0.00     0.245 C
BRANCH  35  36
HETATM   36  O1  UNL     1      -7.399   7.313  10.332  1.00  0.00    -0.389 OA
HETATM   37  C1  UNL     1      -7.800   8.506   9.767  1.00  0.00     0.202 C
ENDBRANCH  35  36
ENDBRANCH   1  35
TORSDOF 8
ENDMDL