MODEL 4
REMARK VINA RESULT: -7.726841391      0.912      1.229
REMARK  9 active torsions:
REMARK  status: ('A' for Active; 'I' for Inactive)
REMARK    1  A    between atoms: C2_2  and  C3_3
REMARK    2  A    between atoms: C3_3  and  N1_4
REMARK    3  A    between atoms: C5_7  and  N2_8
REMARK    4  A    between atoms: N2_8  and  C6_10
REMARK    5  A    between atoms: C6_10  and  C8_12
REMARK    6  A    between atoms: C12_22  and  N6_23
REMARK    7  A    between atoms: N6_23  and  C13_25
REMARK    8  A    between atoms: C16_29  and  C17_30
REMARK    9  A    between atoms: C17_30  and  N7_31
ROOT
HETATM    1  N1  UNL     1      -1.989   4.162   8.631  1.00  0.00    -0.305 N
HETATM    2  C4  UNL     1      -2.051   3.115   9.465  1.00  0.00     0.292 A
HETATM    3  O1  UNL     1      -1.173   2.256   9.382  1.00  0.00    -0.264 OA
HETATM    4  C5  UNL     1      -3.035   2.977  10.384  1.00  0.00     0.172 A
HETATM    5  N3  UNL     1      -4.004   3.921  10.465  1.00  0.00    -0.322 N
ATOM      6  H3  UNL     1      -4.764   3.836  11.140  1.00  0.00     0.169 HD
HETATM    7  C10 UNL     1      -3.935   4.958   9.641  1.00  0.00     0.139 A
HETATM    8  N4  UNL     1      -4.813   6.017   9.797  1.00  0.00    -0.337 N
ATOM      9  H4  UNL     1      -5.588   5.919  10.452  1.00  0.00     0.168 HD
HETATM   10  C11 UNL     1      -4.686   7.138   9.135  1.00  0.00     0.183 A
HETATM   11  N5  UNL     1      -3.668   7.324   8.248  1.00  0.00    -0.337 N
ATOM     12  H5  UNL     1      -3.566   8.208   7.751  1.00  0.00     0.168 HD
HETATM   13  C12 UNL     1      -2.812   6.327   8.044  1.00  0.00     0.138 A
HETATM   14  C20 UNL     1      -2.910   5.114   8.703  1.00  0.00     0.126 A
ENDROOT
BRANCH  13  15
HETATM   15  N6  UNL     1      -1.592   6.561   7.557  1.00  0.00    -0.339 N
ATOM     16  H6  UNL     1      -0.749   6.186   7.992  1.00  0.00     0.167 HD
BRANCH  15  17
HETATM   17  C13 UNL     1      -1.551   7.379   6.372  1.00  0.00     0.059 A
HETATM   18  C14 UNL     1      -2.578   7.542   5.517  1.00  0.00     0.056 A
HETATM   19  C15 UNL     1      -2.520   8.444   4.513  1.00  0.00     0.045 A
HETATM   20 CL1  UNL     1      -3.861   8.625   3.355  1.00  0.00    -0.084 Cl
HETATM   21  C16 UNL     1      -1.374   9.229   4.346  1.00  0.00     0.012 A
HETATM   22  C18 UNL     1      -0.326   9.084   5.175  1.00  0.00     0.067 A
HETATM   23 CL2  UNL     1       1.083  10.083   5.035  1.00  0.00    -0.082 Cl
HETATM   24  C19 UNL     1      -0.371   8.147   6.221  1.00  0.00     0.083 A
HETATM   25 CL3  UNL     1       0.931   7.969   7.311  1.00  0.00    -0.080 Cl
BRANCH  21  26
HETATM   26  C17 UNL     1      -1.565  10.334   3.381  1.00  0.00     0.271 C
BRANCH  26  27
HETATM   27  N7  UNL     1      -1.966  11.581   3.961  1.00  0.00    -0.075 N
ATOM     28  H73 UNL     1      -1.417  11.774   4.798  1.00  0.00     0.274 HD
ATOM     29  H72 UNL     1      -1.668  12.357   3.370  1.00  0.00     0.274 HD
ATOM     30  H71 UNL     1      -2.962  11.659   4.168  1.00  0.00     0.274 HD
ENDBRANCH  26  27
ENDBRANCH  21  26
ENDBRANCH  15  17
ENDBRANCH  13  15
BRANCH   1  31
HETATM   31  C3  UNL     1      -1.059   4.184   7.494  1.00  0.00     0.132 C
BRANCH  31  32
HETATM   32  C2  UNL     1       0.299   4.386   8.295  1.00  0.00     0.016 C
HETATM   33  C1  UNL     1       1.478   3.683   7.711  1.00  0.00     0.006 C
ENDBRANCH  31  32
ENDBRANCH   1  31
BRANCH   4  34
HETATM   34  N2  UNL     1      -3.054   2.009  11.195  1.00  0.00    -0.367 N
ATOM     35  H2  UNL     1      -3.677   1.251  10.919  1.00  0.00     0.161 HD
BRANCH  34  36
HETATM   36  C6  UNL     1      -2.380   1.780  12.406  1.00  0.00     0.079 C
HETATM   37  C7  UNL     1      -1.850   0.345  12.521  1.00  0.00     0.032 C
BRANCH  36  38
HETATM   38  C8  UNL     1      -3.507   1.869  13.502  1.00  0.00     0.020 C
HETATM   39  C9  UNL     1      -3.339   3.209  14.123  1.00  0.00     0.007 C
ENDBRANCH  36  38
ENDBRANCH  34  36
ENDBRANCH   4  34
TORSDOF 9
ENDMDL