MODEL 4
REMARK VINA RESULT: -8.915534678      2.226      4.054
REMARK  9 active torsions:
REMARK  status: ('A' for Active; 'I' for Inactive)
REMARK    1  A    between atoms: O1_2  and  C2_3
REMARK    2  A    between atoms: C8_9  and  O2_10
REMARK    3  A    between atoms: O2_10  and  C9_11
REMARK    4  A    between atoms: C9_11  and  C10_12
REMARK    5  A    between atoms: C10_12  and  O3_13
REMARK    6  A    between atoms: C10_12  and  C11_15
REMARK    7  A    between atoms: C14_18  and  O4_19
REMARK    8  A    between atoms: C16_22  and  C17_23
REMARK    9  A    between atoms: C17_23  and  O5_24
ROOT
HETATM    1  O2  UNL     1      -3.723   5.764   8.511  1.00  0.00    -0.346 OA
ENDROOT
BRANCH   1   2
HETATM    2  C8  UNL     1      -3.613   4.796   9.451  1.00  0.00     0.103 A
HETATM    3  C7  UNL     1      -2.729   3.753   9.280  1.00  0.00     0.014 A
HETATM    4  C6  UNL     1      -1.891   3.661   8.195  1.00  0.00     0.016 A
HETATM    5  C21 UNL     1      -2.639   2.754  10.259  1.00  0.00     0.034 A
HETATM    6  C5  UNL     1      -0.986   2.637   8.047  1.00  0.00     0.010 A
HETATM    7  C3  UNL     1      -0.879   1.644   8.991  1.00  0.00    -0.028 A
HETATM    8  C2  UNL     1      -1.732   1.736  10.094  1.00  0.00     0.087 A
HETATM    9  C4  UNL     1       0.078   0.526   8.878  1.00  0.00     0.051 C
HETATM   10  C20 UNL     1      -3.441   2.856  11.375  1.00  0.00     0.071 A
HETATM   11  C19 UNL     1      -4.315   3.919  11.511  1.00  0.00     0.081 A
HETATM   12 CL3  UNL     1      -3.345   1.700  12.664  1.00  0.00    -0.081 Cl
HETATM   13  C18 UNL     1      -4.437   4.914  10.578  1.00  0.00     0.091 A
HETATM   14 CL2  UNL     1      -5.350   4.056  12.942  1.00  0.00    -0.081 Cl
HETATM   15 CL1  UNL     1      -5.556   6.244  10.785  1.00  0.00    -0.079 Cl
BRANCH   8  16
HETATM   16  O1  UNL     1      -1.604   0.706  11.038  1.00  0.00    -0.354 OA
HETATM   17  C1  UNL     1      -2.215  -0.533  10.600  1.00  0.00     0.210 C
ENDBRANCH   8  16
ENDBRANCH   1   2
BRANCH   1  18
HETATM   18  C9  UNL     1      -3.108   6.966   8.314  1.00  0.00     0.210 C
BRANCH  18  19
HETATM   19  C10 UNL     1      -2.304   7.214   7.099  1.00  0.00     0.176 C
BRANCH  19  20
HETATM   20  O3  UNL     1      -2.593   8.456   6.535  1.00  0.00    -0.390 OA
ATOM     21  H3  UNL     1      -2.744   9.116   7.200  1.00  0.00     0.210 HD
ENDBRANCH  19  20
BRANCH  19  22
HETATM   22  C11 UNL     1      -0.803   7.248   7.415  1.00  0.00     0.088 C
HETATM   23  C12 UNL     1      -0.613   6.890   8.881  1.00  0.00     0.049 C
HETATM   24  C13 UNL     1      -0.168   6.154   6.605  1.00  0.00     0.072 C
HETATM   25  C14 UNL     1       1.310   6.459   6.503  1.00  0.00     0.123 C
HETATM   26  C15 UNL     1       1.426   7.738   5.689  1.00  0.00     0.066 C
HETATM   27  C16 UNL     1       0.363   8.734   6.060  1.00  0.00     0.148 C
HETATM   28  O6  UNL     1      -0.281   8.486   7.225  1.00  0.00    -0.370 OA
BRANCH  25  29
HETATM   29  O4  UNL     1       1.971   5.447   5.834  1.00  0.00    -0.395 OA
ATOM     30  H4  UNL     1       2.107   5.681   4.923  1.00  0.00     0.210 HD
ENDBRANCH  25  29
BRANCH  27  31
HETATM   31  C17 UNL     1       1.088  10.079   6.250  1.00  0.00     0.196 C
BRANCH  31  32
HETATM   32  O5  UNL     1       0.478  11.089   5.549  1.00  0.00    -0.398 OA
ATOM     33  H5  UNL     1       1.010  11.383   4.820  1.00  0.00     0.209 HD
ENDBRANCH  31  32
ENDBRANCH  27  31
ENDBRANCH  19  22
ENDBRANCH  18  19
ENDBRANCH   1  18
TORSDOF 9
ENDMDL