MODEL 2
REMARK VINA RESULT: -9.522814246      3.420      6.236
REMARK  10 active torsions:
REMARK  status: ('A' for Active; 'I' for Inactive)
REMARK    1  A    between atoms: C2_2  and  C3_3
REMARK    2  A    between atoms: C3_3  and  N1_4
REMARK       I    between atoms: N1_4  and  C4_6
REMARK    3  A    between atoms: C4_6  and  C5_8
REMARK    4  A    between atoms: C7_10  and  C8_11
REMARK       I    between atoms: C8_11  and  N2_13
REMARK    5  A    between atoms: N2_13  and  C9_15
REMARK    6  A    between atoms: C9_15  and  C10_16
REMARK    7  A    between atoms: C9_15  and  C20_33
REMARK    8  A    between atoms: C10_16  and  O4_18
REMARK    9  A    between atoms: O4_18  and  C11_19
REMARK   10  A    between atoms: C12_20  and  O5_21
ROOT
HETATM    1  C9  UNL     1     -20.385   6.124   2.139  1.00  0.00     0.207 C
ENDROOT
BRANCH   1   2
HETATM    2  N2  UNL     1     -19.986   4.762   2.224  1.00  0.00    -0.345 N
HETATM    3  C8  UNL     1     -20.606   3.687   2.888  1.00  0.00     0.223 C
HETATM    4  O2  UNL     1     -21.685   3.907   3.508  1.00  0.00    -0.273 OA
ATOM      5  H2  UNL     1     -19.124   4.529   1.731  1.00  0.00     0.163 HD
BRANCH   3   6
HETATM    6  C7  UNL     1     -20.085   2.316   2.911  1.00  0.00     0.084 C
HETATM    7  C6  UNL     1     -18.685   2.188   2.319  1.00  0.00     0.029 C
HETATM    8  C5  UNL     1     -18.451   0.704   2.558  1.00  0.00     0.084 C
HETATM    9  C24 UNL     1     -18.837   0.594   4.014  1.00  0.00     0.012 A
HETATM   10  C23 UNL     1     -19.943   1.673   4.238  1.00  0.00     0.012 A
HETATM   11  C25 UNL     1     -20.204   0.203   4.419  1.00  0.00    -0.038 A
HETATM   12  C26 UNL     1     -20.311  -0.299   5.859  1.00  0.00     0.015 C
HETATM   13  C27 UNL     1     -21.164  -0.433   3.487  1.00  0.00     0.015 C
BRANCH   8  14
HETATM   14  C4  UNL     1     -17.028   0.331   2.341  1.00  0.00     0.222 C
HETATM   15  N1  UNL     1     -16.043   1.182   2.903  1.00  0.00    -0.357 N
ATOM     16  H1  UNL     1     -16.324   2.008   3.432  1.00  0.00     0.162 HD
HETATM   17  O1  UNL     1     -16.694  -0.675   1.703  1.00  0.00    -0.273 OA
BRANCH  15  18
HETATM   18  C3  UNL     1     -14.636   0.876   2.726  1.00  0.00     0.149 C
BRANCH  18  19
HETATM   19  C2  UNL     1     -13.897   2.005   2.051  1.00  0.00    -0.018 C
HETATM   20  C1  UNL     1     -14.367   3.235   2.118  1.00  0.00     0.008 C
ENDBRANCH  18  19
ENDBRANCH  15  18
ENDBRANCH   8  14
ENDBRANCH   3   6
ENDBRANCH   1   2
BRANCH   1  21
HETATM   21  C10 UNL     1     -19.207   7.022   2.267  1.00  0.00     0.284 C
HETATM   22  O3  UNL     1     -18.975   7.570   3.397  1.00  0.00    -0.263 OA
BRANCH  21  23
HETATM   23  O4  UNL     1     -18.313   7.344   1.290  1.00  0.00    -0.310 OA
BRANCH  23  24
HETATM   24  C11 UNL     1     -18.055   8.685   0.845  1.00  0.00     0.179 C
HETATM   25  C12 UNL     1     -17.855   8.590  -0.655  1.00  0.00     0.217 C
HETATM   26  C13 UNL     1     -16.513   8.111  -1.014  1.00  0.00     0.160 C
HETATM   27  O6  UNL     1     -16.353   7.174  -1.755  1.00  0.00    -0.295 OA
HETATM   28  C14 UNL     1     -15.313   8.806  -0.438  1.00  0.00     0.114 C
HETATM   29  C15 UNL     1     -15.851   9.862   0.453  1.00  0.00     0.150 C
HETATM   30  O7  UNL     1     -14.923  10.470   1.338  1.00  0.00    -0.311 OA
HETATM   31  C19 UNL     1     -16.824   9.262   1.481  1.00  0.00     0.086 C
HETATM   32  C16 UNL     1     -15.765  11.156   2.247  1.00  0.00     0.289 C
HETATM   33  O8  UNL     1     -15.412  12.151   2.967  1.00  0.00    -0.260 OA
HETATM   34  C17 UNL     1     -17.087  10.540   2.221  1.00  0.00     0.017 C
HETATM   35  C18 UNL     1     -18.180  11.044   2.723  1.00  0.00     0.025 C
BRANCH  25  36
HETATM   36  O5  UNL     1     -18.226   9.761  -1.310  1.00  0.00    -0.385 OA
ATOM     37  H5  UNL     1     -18.730   9.588  -2.096  1.00  0.00     0.210 HD
ENDBRANCH  25  36
ENDBRANCH  23  24
ENDBRANCH  21  23
ENDBRANCH   1  21
BRANCH   1  38
HETATM   38  C20 UNL     1     -21.314   6.540   1.083  1.00  0.00     0.059 C
HETATM   39  C21 UNL     1     -20.826   5.950  -0.243  1.00  0.00     0.035 C
HETATM   40  C22 UNL     1     -22.751   6.182   1.222  1.00  0.00     0.035 C
HETATM   41 CL1  UNL     1     -21.264   8.322   0.811  1.00  0.00    -0.117 Cl
ENDBRANCH   1  38
TORSDOF 10
ENDMDL