MODEL 4
REMARK VINA RESULT: -7.212261877      0.786      1.297
REMARK  10 active torsions:
REMARK  status: ('A' for Active; 'I' for Inactive)
REMARK    1  A    between atoms: C2_2  and  S1_4
REMARK    2  A    between atoms: S1_4  and  C3_5
REMARK       I    between atoms: N1_9  and  C6_10
REMARK    3  A    between atoms: C6_10  and  C7_12
REMARK    4  A    between atoms: C7_12  and  N2_13
REMARK    5  A    between atoms: C7_12  and  C13_24
REMARK       I    between atoms: N2_13  and  C8_15
REMARK    6  A    between atoms: C8_15  and  C9_17
REMARK    7  A    between atoms: C17_28  and  C18_29
REMARK       I    between atoms: C18_29  and  N5_31
REMARK    8  A    between atoms: N5_31  and  C19_33
REMARK    9  A    between atoms: C19_33  and  C20_34
REMARK   10  A    between atoms: C19_33  and  C21_37
ROOT
HETATM    1  C3  UNL     1     -22.098   7.834   1.542  1.00  0.00     0.061 C
HETATM    2  C4  UNL     1     -21.542   6.639   1.633  1.00  0.00    -0.004 A
HETATM    3  C5  UNL     1     -21.475   5.393   0.874  1.00  0.00     0.218 A
HETATM    4 CL1  UNL     1     -20.696   5.482  -0.716  1.00  0.00    -0.097 Cl
HETATM    5  N1  UNL     1     -20.632   4.761   1.900  1.00  0.00    -0.311 N
HETATM    6  C6  UNL     1     -20.066   3.454   1.930  1.00  0.00     0.245 C
HETATM    7  O2  UNL     1     -20.269   2.702   0.908  1.00  0.00    -0.271 OA
HETATM    8  C17 UNL     1     -20.666   5.992   2.649  1.00  0.00     0.214 A
ENDROOT
BRANCH   6   9
HETATM    9  C7  UNL     1     -19.274   2.898   3.019  1.00  0.00     0.184 C
BRANCH   9  10
HETATM   10  N2  UNL     1     -18.053   2.307   2.400  1.00  0.00    -0.340 N
HETATM   11  C8  UNL     1     -16.795   2.798   2.801  1.00  0.00     0.286 C
HETATM   12  O3  UNL     1     -16.812   3.740   3.693  1.00  0.00    -0.264 OA
ATOM     13  H2  UNL     1     -18.127   1.566   1.703  1.00  0.00     0.163 HD
BRANCH  11  14
HETATM   14  C9  UNL     1     -15.509   2.375   2.337  1.00  0.00     0.176 A
HETATM   15  N3  UNL     1     -15.164   1.047   2.262  1.00  0.00    -0.346 N
HETATM   16  C10 UNL     1     -13.922   0.934   1.806  1.00  0.00     0.107 A
ATOM     17  H3  UNL     1     -15.769   0.267   2.518  1.00  0.00     0.167 HD
HETATM   18  C11 UNL     1     -13.443   2.187   1.578  1.00  0.00     0.109 A
HETATM   19  N4  UNL     1     -14.446   3.049   1.916  1.00  0.00    -0.342 N
HETATM   20  C12 UNL     1     -14.313   4.480   1.815  1.00  0.00     0.157 C
ENDBRANCH  11  14
ENDBRANCH   9  10
BRANCH   9  21
HETATM   21  C13 UNL     1     -19.955   1.706   3.659  1.00  0.00    -0.022 C
HETATM   22  C14 UNL     1     -19.622   0.518   2.732  1.00  0.00     0.017 C
HETATM   23  C15 UNL     1     -21.446   1.810   3.716  1.00  0.00     0.017 C
HETATM   24  C16 UNL     1     -19.453   1.327   5.004  1.00  0.00     0.017 C
ENDBRANCH   9  21
ENDBRANCH   6   9
BRANCH   8  25
HETATM   25  C18 UNL     1     -19.319   6.671   2.749  1.00  0.00     0.245 C
HETATM   26  O4  UNL     1     -18.757   6.574   3.868  1.00  0.00    -0.271 OA
HETATM   27  N5  UNL     1     -18.748   7.359   1.653  1.00  0.00    -0.345 N
ATOM     28  H5  UNL     1     -19.267   7.394   0.775  1.00  0.00     0.163 HD
BRANCH  27  29
HETATM   29  C19 UNL     1     -17.455   8.019   1.723  1.00  0.00     0.181 C
BRANCH  29  30
HETATM   30  C20 UNL     1     -16.468   7.371   0.853  1.00  0.00     0.254 C
HETATM   31  N6  UNL     1     -16.753   6.390  -0.120  1.00  0.00    -0.060 NA
HETATM   32  O5  UNL     1     -15.228   7.683   0.939  1.00  0.00    -0.275 OA
ENDBRANCH  29  30
BRANCH  29  33
HETATM   33  C21 UNL     1     -17.582   9.501   1.434  1.00  0.00    -0.022 C
HETATM   34  C22 UNL     1     -16.439  10.255   2.050  1.00  0.00     0.017 C
HETATM   35  C23 UNL     1     -18.872  10.023   2.009  1.00  0.00     0.017 C
HETATM   36  C24 UNL     1     -17.666   9.744  -0.068  1.00  0.00     0.017 C
ENDBRANCH  29  33
ENDBRANCH  27  29
ENDBRANCH   8  25
BRANCH   1  37
HETATM   37  S1  UNL     1     -23.127   8.270   0.141  1.00  0.00    -0.065 SA
BRANCH  37  38
HETATM   38  C2  UNL     1     -24.788   7.675   0.410  1.00  0.00     0.186 C
HETATM   39  C1  UNL     1     -25.375   7.717   1.780  1.00  0.00     0.104 C
HETATM   40  O1  UNL     1     -25.396   7.246  -0.554  1.00  0.00    -0.286 OA
ENDBRANCH  37  38
ENDBRANCH   1  37
TORSDOF 10
ENDMDL