MODEL 5
REMARK VINA RESULT: -7.435599832      3.503      8.818
REMARK  9 active torsions:
REMARK  status: ('A' for Active; 'I' for Inactive)
REMARK    1  A    between atoms: C2_2  and  C4_4
REMARK    2  A    between atoms: C4_4  and  C5_5
REMARK    3  A    between atoms: C6_8  and  C7_9
REMARK       I    between atoms: C7_9  and  N2_11
REMARK    4  A    between atoms: C11_15  and  C12_16
REMARK       I    between atoms: C12_16  and  N3_18
REMARK    5  A    between atoms: C17_24  and  C18_25
REMARK    6  A    between atoms: C19_28  and  C20_29
REMARK    7  A    between atoms: C20_29  and  O6_31
REMARK    8  A    between atoms: O6_31  and  C21_32
REMARK    9  A    between atoms: C21_32  and  C22_33
ROOT
HETATM    1  C5  UNL     1     -23.941   7.012   1.859  1.00  0.00     0.170 C
HETATM    2  N1  UNL     1     -22.898   6.085   2.205  1.00  0.00    -0.395 N
ATOM      3  H1  UNL     1     -23.082   5.103   2.407  1.00  0.00     0.155 HD
HETATM    4  C6  UNL     1     -21.555   6.654   2.245  1.00  0.00     0.203 C
HETATM    5  C19 UNL     1     -21.518   7.877   1.368  1.00  0.00     0.215 C
HETATM    6  N4  UNL     1     -22.316   7.612   0.159  1.00  0.00    -0.343 N
ATOM      7  H4  UNL     1     -21.912   7.543  -0.776  1.00  0.00     0.163 HD
HETATM    8  C23 UNL     1     -23.712   7.462   0.428  1.00  0.00     0.240 C
HETATM    9  O7  UNL     1     -24.614   7.666  -0.389  1.00  0.00    -0.271 OA
ENDROOT
BRANCH   4  10
HETATM   10  C7  UNL     1     -20.662   5.559   1.789  1.00  0.00     0.245 C
HETATM   11  O1  UNL     1     -21.196   4.727   0.972  1.00  0.00    -0.271 OA
HETATM   12  N2  UNL     1     -19.320   5.364   2.174  1.00  0.00    -0.337 N
HETATM   13  C8  UNL     1     -18.565   6.157   3.110  1.00  0.00     0.127 C
HETATM   14  C11 UNL     1     -18.465   4.307   1.687  1.00  0.00     0.179 C
HETATM   15  C9  UNL     1     -17.159   6.181   2.534  1.00  0.00     0.022 C
HETATM   16  C10 UNL     1     -17.096   4.893   1.738  1.00  0.00     0.037 C
BRANCH  14  17
HETATM   17  C12 UNL     1     -18.597   3.072   2.508  1.00  0.00     0.244 C
HETATM   18  O2  UNL     1     -17.774   2.891   3.471  1.00  0.00    -0.271 OA
HETATM   19  N3  UNL     1     -19.564   2.070   2.316  1.00  0.00    -0.325 N
HETATM   20  C13 UNL     1     -20.577   2.156   1.280  1.00  0.00     0.202 C
HETATM   21  C17 UNL     1     -19.679   0.868   3.080  1.00  0.00     0.206 C
HETATM   22  S1  UNL     1     -20.529   0.419   0.679  1.00  0.00    -0.137 SA
HETATM   23  C14 UNL     1     -19.692  -0.300   2.143  1.00  0.00     0.033 C
HETATM   24  C15 UNL     1     -20.536  -1.462   2.596  1.00  0.00     0.029 C
HETATM   25  C16 UNL     1     -18.316  -0.799   1.792  1.00  0.00     0.029 C
BRANCH  21  26
HETATM   26  C18 UNL     1     -20.793   0.899   4.046  1.00  0.00     0.198 C
HETATM   27  O3  UNL     1     -20.623   0.687   5.274  1.00  0.00    -0.646 OA
HETATM   28  O4  UNL     1     -22.094   1.164   3.655  1.00  0.00    -0.646 OA
ENDBRANCH  21  26
ENDBRANCH  14  17
ENDBRANCH   4  10
BRANCH   5  29
HETATM   29  C20 UNL     1     -20.207   8.402   1.037  1.00  0.00     0.284 C
HETATM   30  O5  UNL     1     -19.661   9.141   1.942  1.00  0.00    -0.263 OA
BRANCH  29  31
HETATM   31  O6  UNL     1     -19.452   8.233  -0.088  1.00  0.00    -0.319 OA
BRANCH  31  32
HETATM   32  C21 UNL     1     -18.686   9.207  -0.755  1.00  0.00     0.193 C
BRANCH  32  33
HETATM   33  C22 UNL     1     -19.469  10.303  -1.391  1.00  0.00     0.141 C
HETATM   34 CL1  UNL     1     -19.403  11.819  -0.475  1.00  0.00    -0.128 Cl
ENDBRANCH  32  33
ENDBRANCH  31  32
ENDBRANCH  29  31
ENDBRANCH   5  29
BRANCH   1  35
HETATM   35  C4  UNL     1     -25.273   6.351   1.950  1.00  0.00     0.038 C
BRANCH  35  36
HETATM   36  C2  UNL     1     -26.016   6.605   3.216  1.00  0.00    -0.020 C
HETATM   37  C1  UNL     1     -27.425   7.064   3.043  1.00  0.00     0.009 C
HETATM   38  C3  UNL     1     -26.030   5.405   4.144  1.00  0.00     0.009 C
ENDBRANCH  35  36
ENDBRANCH   1  35
TORSDOF 9
ENDMDL