MODEL 2
REMARK VINA RESULT: -8.179675707      0.987      1.206
REMARK  11 active torsions:
REMARK  status: ('A' for Active; 'I' for Inactive)
REMARK    1  A    between atoms: C2_2  and  C3_3
REMARK    2  A    between atoms: C3_3  and  C5_5
REMARK    3  A    between atoms: N3_17  and  C11_18
REMARK    4  A    between atoms: C11_18  and  C12_19
REMARK    5  A    between atoms: C12_19  and  O4_20
REMARK    6  A    between atoms: C12_19  and  C13_22
REMARK    7  A    between atoms: C13_22  and  C14_23
REMARK    8  A    between atoms: C13_22  and  N4_27
REMARK    9  A    between atoms: C14_23  and  C15_24
REMARK       I    between atoms: N4_27  and  C18_29
REMARK   10  A    between atoms: C18_29  and  O6_31
REMARK   11  A    between atoms: O6_31  and  C19_32
ROOT
HETATM    1  C5  UNL     1     -19.393   8.936   0.009  1.00  0.00     0.182 C
HETATM    2  C6  UNL     1     -18.425   9.833  -0.624  1.00  0.00     0.243 C
HETATM    3  O1  UNL     1     -18.869  10.477  -1.648  1.00  0.00    -0.271 OA
HETATM    4  N1  UNL     1     -17.096  10.081  -0.268  1.00  0.00    -0.321 N
ATOM      5  H1  UNL     1     -16.808  11.058  -0.212  1.00  0.00     0.166 HD
HETATM    6  C7  UNL     1     -16.083   9.074   0.030  1.00  0.00     0.333 C
HETATM    7  C8  UNL     1     -14.780   9.758   0.242  1.00  0.00     0.113 C
HETATM    8  N2  UNL     1     -13.770  10.309   0.400  1.00  0.00    -0.193 NA
HETATM    9  O2  UNL     1     -15.873   8.186  -0.983  1.00  0.00    -0.345 OA
HETATM   10  C9  UNL     1     -16.297   6.903  -0.789  1.00  0.00     0.274 C
HETATM   11  C10 UNL     1     -16.133   6.434   0.605  1.00  0.00     0.244 C
HETATM   12  O3  UNL     1     -14.976   6.545   1.080  1.00  0.00    -0.271 OA
HETATM   13  N3  UNL     1     -17.164   5.893   1.388  1.00  0.00    -0.339 N
HETATM   14  C23 UNL     1     -18.582   6.100   1.072  1.00  0.00     0.228 C
HETATM   15  C24 UNL     1     -19.122   7.252   1.838  1.00  0.00     0.238 C
HETATM   16  O7  UNL     1     -19.595   6.994   2.996  1.00  0.00    -0.272 OA
HETATM   17  N5  UNL     1     -19.147   8.601   1.380  1.00  0.00    -0.341 N
HETATM   18  C25 UNL     1     -18.913   9.632   2.402  1.00  0.00     0.153 C
ENDROOT
BRANCH   1  19
HETATM   19  C3  UNL     1     -20.802   9.408  -0.247  1.00  0.00     0.013 C
HETATM   20  C4  UNL     1     -21.545   9.839   0.977  1.00  0.00     0.012 C
BRANCH  19  21
HETATM   21  C2  UNL     1     -21.577   8.400  -1.063  1.00  0.00     0.002 C
HETATM   22  C1  UNL     1     -22.268   7.371  -0.206  1.00  0.00     0.005 C
ENDBRANCH  19  21
ENDBRANCH   1  19
BRANCH  13  23
HETATM   23  C11 UNL     1     -16.866   5.130   2.562  1.00  0.00     0.164 C
BRANCH  23  24
HETATM   24  C12 UNL     1     -16.257   3.726   2.204  1.00  0.00     0.181 C
BRANCH  24  25
HETATM   25  O4  UNL     1     -14.934   3.967   2.670  1.00  0.00    -0.388 OA
ATOM     26  H4  UNL     1     -14.475   3.422   2.041  1.00  0.00     0.210 HD
ENDBRANCH  24  25
BRANCH  24  27
HETATM   27  C13 UNL     1     -16.946   2.670   2.971  1.00  0.00     0.022 C
BRANCH  27  28
HETATM   28  C14 UNL     1     -16.181   1.458   3.312  1.00  0.00     0.059 C
BRANCH  28  29
HETATM   29  C15 UNL     1     -15.693   0.586   2.216  1.00  0.00    -0.017 C
HETATM   30  C16 UNL     1     -15.996  -0.859   2.319  1.00  0.00     0.010 C
HETATM   31  C17 UNL     1     -14.150   0.678   2.294  1.00  0.00     0.010 C
ENDBRANCH  28  29
ENDBRANCH  27  28
BRANCH  27  32
HETATM   32  N4  UNL     1     -18.314   2.523   2.636  1.00  0.00    -0.307 N
HETATM   33  C18 UNL     1     -19.232   1.574   2.302  1.00  0.00     0.365 C
HETATM   34  O5  UNL     1     -19.004   0.359   2.228  1.00  0.00    -0.238 OA
ATOM     35  H4  UNL     1     -18.764   3.438   2.651  1.00  0.00     0.170 HD
BRANCH  33  36
HETATM   36  O6  UNL     1     -20.592   1.897   1.996  1.00  0.00    -0.294 OA
BRANCH  36  37
HETATM   37  C19 UNL     1     -21.523   2.151   3.008  1.00  0.00     0.061 C
HETATM   38  C20 UNL     1     -21.823   3.633   3.026  1.00  0.00     0.046 C
HETATM   39  C21 UNL     1     -20.940   1.806   4.379  1.00  0.00     0.046 C
HETATM   40  C22 UNL     1     -22.754   1.313   2.781  1.00  0.00     0.046 C
ENDBRANCH  36  37
ENDBRANCH  33  36
ENDBRANCH  27  32
ENDBRANCH  24  27
ENDBRANCH  23  24
ENDBRANCH  13  23
TORSDOF 11
ENDMDL