MODEL 1
REMARK VINA RESULT: -7.940840551      0.000      0.000
REMARK  13 active torsions:
REMARK  status: ('A' for Active; 'I' for Inactive)
REMARK    1  A    between atoms: C2_2  and  O1_5
REMARK    2  A    between atoms: O1_5  and  C5_6
REMARK       I    between atoms: C5_6  and  N1_8
REMARK    3  A    between atoms: N1_8  and  C6_10
REMARK    4  A    between atoms: C6_10  and  C7_11
REMARK    5  A    between atoms: C7_11  and  N2_12
REMARK    6  A    between atoms: C12_21  and  N4_22
REMARK    7  A    between atoms: N4_22  and  O4_23
REMARK       I    between atoms: N4_22  and  C13_25
REMARK    8  A    between atoms: C13_25  and  C14_27
REMARK    9  A    between atoms: C14_27  and  C15_28
REMARK   10  A    between atoms: C15_28  and  C16_29
REMARK   11  A    between atoms: C16_29  and  C17_30
REMARK   12  A    between atoms: C17_30  and  C19_33
REMARK       I    between atoms: C19_33  and  N5_35
REMARK   13  A    between atoms: N5_35  and  N6_37
ROOT
HETATM    1  N2  UNL     1     -18.283   7.016   1.152  1.00  0.00    -0.348 N
HETATM    2  C8  UNL     1     -18.281   7.731  -0.106  1.00  0.00     0.136 C
HETATM    3  C9  UNL     1     -19.226   8.880  -0.161  1.00  0.00     0.095 C
HETATM    4  S1  UNL     1     -20.039   9.233   1.407  1.00  0.00    -0.148 SA
HETATM    5  C10 UNL     1     -21.708   8.521   1.389  1.00  0.00     0.197 C
HETATM    6  N3  UNL     1     -21.860   7.705   0.199  1.00  0.00    -0.350 N
ATOM      7  H3  UNL     1     -22.486   8.026  -0.540  1.00  0.00     0.163 HD
HETATM    8  C11 UNL     1     -21.172   6.481   0.026  1.00  0.00     0.253 C
HETATM    9  O3  UNL     1     -21.085   5.996  -1.124  1.00  0.00    -0.271 OA
HETATM   10  C12 UNL     1     -20.575   5.802   1.186  1.00  0.00     0.301 C
HETATM   11  C20 UNL     1     -19.410   6.489   1.778  1.00  0.00     0.254 C
HETATM   12  O7  UNL     1     -19.430   6.625   3.056  1.00  0.00    -0.270 OA
ENDROOT
BRANCH  10  13
HETATM   13  N4  UNL     1     -20.109   4.463   0.838  1.00  0.00    -0.202 N
HETATM   14  C13 UNL     1     -20.548   3.300   1.486  1.00  0.00     0.267 C
HETATM   15  O5  UNL     1     -20.063   2.184   1.089  1.00  0.00    -0.266 OA
BRANCH  13  16
HETATM   16  O4  UNL     1     -19.187   4.311  -0.176  1.00  0.00    -0.283 OA
ATOM     17  H4  UNL     1     -19.453   3.896  -0.988  1.00  0.00     0.245 HD
ENDBRANCH  13  16
BRANCH  14  18
HETATM   18  C14 UNL     1     -21.509   3.272   2.569  1.00  0.00     0.072 C
BRANCH  18  19
HETATM   19  C15 UNL     1     -21.565   2.225   3.387  1.00  0.00    -0.019 C
BRANCH  19  20
HETATM   20  C16 UNL     1     -20.516   1.975   4.409  1.00  0.00     0.062 C
BRANCH  20  21
HETATM   21  C17 UNL     1     -20.362   0.498   4.698  1.00  0.00     0.118 C
HETATM   22  C18 UNL     1     -21.718  -0.154   4.816  1.00  0.00     0.043 C
HETATM   23 CL1  UNL     1     -19.516   0.270   6.242  1.00  0.00    -0.109 Cl
BRANCH  21  24
HETATM   24  C19 UNL     1     -19.611  -0.188   3.635  1.00  0.00     0.260 C
HETATM   25  O6  UNL     1     -20.169  -1.041   2.903  1.00  0.00    -0.270 OA
HETATM   26  N5  UNL     1     -18.238   0.114   3.431  1.00  0.00    -0.254 N
ATOM     27  H5  UNL     1     -17.549  -0.638   3.440  1.00  0.00     0.191 HD
BRANCH  26  28
HETATM   28  N6  UNL     1     -17.871   1.270   3.244  1.00  0.00    -0.247 N
HETATM   29  N7  UNL     1     -17.328   2.228   2.663  1.00  0.00    -0.331 N
ATOM     30  H72 UNL     1     -16.983   1.725   1.844  1.00  0.00     0.178 HD
ATOM     31  H71 UNL     1     -17.023   3.188   2.507  1.00  0.00     0.178 HD
ATOM     32  H6  UNL     1     -18.234   1.728   4.080  1.00  0.00     0.207 HD
ENDBRANCH  26  28
ENDBRANCH  21  24
ENDBRANCH  20  21
ENDBRANCH  19  20
ENDBRANCH  18  19
ENDBRANCH  14  18
ENDBRANCH  10  13
BRANCH   1  33
HETATM   33  C7  UNL     1     -16.979   6.847   1.811  1.00  0.00     0.145 C
BRANCH  33  34
HETATM   34  C6  UNL     1     -15.997   6.170   0.876  1.00  0.00     0.144 C
BRANCH  34  35
HETATM   35  N1  UNL     1     -15.740   4.825   1.397  1.00  0.00    -0.335 N
HETATM   36  C5  UNL     1     -14.515   4.547   2.049  1.00  0.00     0.361 C
HETATM   37  O2  UNL     1     -13.645   5.460   2.181  1.00  0.00    -0.238 OA
ATOM     38  H1  UNL     1     -16.441   4.092   1.291  1.00  0.00     0.164 HD
BRANCH  36  39
HETATM   39  O1  UNL     1     -14.286   3.280   2.533  1.00  0.00    -0.294 OA
BRANCH  39  40
HETATM   40  C2  UNL     1     -13.415   2.408   1.815  1.00  0.00     0.061 C
HETATM   41  C1  UNL     1     -12.097   2.356   2.572  1.00  0.00     0.046 C
HETATM   42  C3  UNL     1     -14.084   1.049   1.784  1.00  0.00     0.046 C
HETATM   43  C4  UNL     1     -13.205   2.950   0.408  1.00  0.00     0.046 C
ENDBRANCH  39  40
ENDBRANCH  36  39
ENDBRANCH  34  35
ENDBRANCH  33  34
ENDBRANCH   1  33
TORSDOF 13
ENDMDL