MODEL 5
REMARK VINA RESULT: -7.997331235      3.473      6.628
REMARK  13 active torsions:
REMARK  status: ('A' for Active; 'I' for Inactive)
REMARK    1  A    between atoms: O1_2  and  C2_3
REMARK    2  A    between atoms: C2_3  and  C3_4
REMARK    3  A    between atoms: C3_4  and  C4_5
REMARK    4  A    between atoms: C4_5  and  C5_6
REMARK    5  A    between atoms: C5_6  and  C6_7
REMARK    6  A    between atoms: C6_7  and  N1_8
REMARK    7  A    between atoms: C6_7  and  S1_12
REMARK    8  A    between atoms: S1_12  and  C7_15
REMARK    9  A    between atoms: C9_19  and  C10_20
REMARK   10  A    between atoms: C11_21  and  C12_22
REMARK   11  A    between atoms: C12_22  and  N3_23
REMARK       I    between atoms: N3_23  and  C13_25
REMARK   12  A    between atoms: C16_32  and  N6_33
REMARK   13  A    between atoms: N6_33  and  C17_34
ROOT
HETATM    1  C7  UNL     1     -19.199   5.333   2.172  1.00  0.00     0.154 A
HETATM    2  N2  UNL     1     -18.140   4.514   2.255  1.00  0.00    -0.329 N
ATOM      3  H2  UNL     1     -18.262   3.509   2.375  1.00  0.00     0.168 HD
HETATM    4  C8  UNL     1     -16.914   5.056   2.175  1.00  0.00     0.151 A
HETATM    5  C9  UNL     1     -15.675   4.410   2.234  1.00  0.00     0.080 A
HETATM    6  C15 UNL     1     -14.765   5.436   2.100  1.00  0.00     0.132 A
HETATM    7  N4  UNL     1     -15.450   6.589   1.972  1.00  0.00    -0.300 N
ATOM      8  H4  UNL     1     -15.017   7.506   1.857  1.00  0.00     0.186 HD
HETATM    9  N5  UNL     1     -16.762   6.380   2.015  1.00  0.00    -0.209 N
HETATM   10  C16 UNL     1     -17.806   7.252   1.925  1.00  0.00     0.217 A
HETATM   11  C21 UNL     1     -19.082   6.682   2.010  1.00  0.00     0.109 A
HETATM   12 BR1  UNL     1     -20.650   7.794   1.896  1.00  0.00    -0.043 Br
ENDROOT
BRANCH   1  13
HETATM   13  S1  UNL     1     -20.804   4.634   2.275  1.00  0.00     0.221 S
HETATM   14  O2  UNL     1     -21.536   4.931   0.998  1.00  0.00    -0.219 OA
HETATM   15  O3  UNL     1     -21.565   5.223   3.401  1.00  0.00    -0.219 OA
BRANCH  13  16
HETATM   16  C6  UNL     1     -20.722   2.866   2.490  1.00  0.00     0.311 C
BRANCH  16  17
HETATM   17  C5  UNL     1     -20.711   2.583   3.971  1.00  0.00     0.049 C
BRANCH  17  18
HETATM   18  C4  UNL     1     -19.743   1.517   4.382  1.00  0.00     0.005 C
BRANCH  18  19
HETATM   19  C3  UNL     1     -20.450   0.488   5.236  1.00  0.00     0.026 C
BRANCH  19  20
HETATM   20  C2  UNL     1     -21.362  -0.390   4.401  1.00  0.00     0.167 C
BRANCH  20  21
HETATM   21  O1  UNL     1     -20.863  -0.687   3.156  1.00  0.00    -0.396 OA
HETATM   22  C1  UNL     1     -21.745  -1.339   2.330  1.00  0.00     0.201 C
ENDBRANCH  20  21
ENDBRANCH  19  20
ENDBRANCH  18  19
ENDBRANCH  17  18
ENDBRANCH  16  17
BRANCH  16  23
HETATM   23  N1  UNL     1     -21.839   2.205   1.858  1.00  0.00    -0.061 N
ATOM     24  H13 UNL     1     -22.731   2.538   2.222  1.00  0.00     0.275 HD
ATOM     25  H12 UNL     1     -21.952   2.498   0.887  1.00  0.00     0.275 HD
ATOM     26  H11 UNL     1     -21.748   1.193   1.940  1.00  0.00     0.275 HD
ENDBRANCH  16  23
ENDBRANCH  13  16
ENDBRANCH   1  13
BRANCH  10  27
HETATM   27  N6  UNL     1     -17.728   8.446   1.783  1.00  0.00    -0.417 NA
BRANCH  27  28
HETATM   28  C17 UNL     1     -17.410   9.648   1.273  1.00  0.00     0.085 C
HETATM   29  C18 UNL     1     -15.997  10.170   1.582  1.00  0.00     0.053 C
HETATM   30  C19 UNL     1     -18.329  10.808   1.676  1.00  0.00     0.053 C
HETATM   31  C20 UNL     1     -17.505   9.611  -0.268  1.00  0.00     0.053 C
ENDBRANCH  27  28
ENDBRANCH  10  27
BRANCH   5  32
HETATM   32  C10 UNL     1     -15.437   3.002   2.398  1.00  0.00    -0.060 C
HETATM   33  C11 UNL     1     -15.248   1.816   2.520  1.00  0.00    -0.081 C
BRANCH  33  34
HETATM   34  C12 UNL     1     -15.031   0.363   2.648  1.00  0.00     0.217 C
BRANCH  34  35
HETATM   35  N3  UNL     1     -15.947  -0.307   1.759  1.00  0.00    -0.351 N
HETATM   36  C13 UNL     1     -17.158  -0.850   2.234  1.00  0.00     0.214 C
HETATM   37  C14 UNL     1     -18.085  -1.535   1.304  1.00  0.00     0.117 C
HETATM   38  O4  UNL     1     -17.478  -0.770   3.434  1.00  0.00    -0.274 OA
ATOM     39  H3  UNL     1     -15.715  -0.390   0.768  1.00  0.00     0.163 HD
ENDBRANCH  34  35
ENDBRANCH  33  34
ENDBRANCH   5  32
TORSDOF 13
ENDMDL