MODEL 1
REMARK VINA RESULT: -8.001709932      0.000      0.000
REMARK  11 active torsions:
REMARK  status: ('A' for Active; 'I' for Inactive)
REMARK    1  A    between atoms: C2_2  and  O1_3
REMARK    2  A    between atoms: O1_3  and  C3_4
REMARK       I    between atoms: C3_4  and  N1_6
REMARK    3  A    between atoms: N1_6  and  C4_8
REMARK    4  A    between atoms: C4_8  and  C5_9
REMARK    5  A    between atoms: C4_8  and  C22_39
REMARK       I    between atoms: C5_9  and  N2_11
REMARK    6  A    between atoms: N2_11  and  C6_13
REMARK    7  A    between atoms: C9_16  and  O4_17
REMARK    8  A    between atoms: C10_21  and  C11_22
REMARK    9  A    between atoms: C11_22  and  C12_23
REMARK   10  A    between atoms: C16_29  and  C17_30
REMARK   11  A    between atoms: C17_30  and  C18_31
ROOT
HETATM    1  C6  UNL     1     -20.806   5.497   1.350  1.00  0.00     0.177 C
HETATM    2  C7  UNL     1     -21.843   4.581   1.908  1.00  0.00     0.043 C
HETATM    3  C8  UNL     1     -21.550   3.107   2.000  1.00  0.00     0.086 C
HETATM    4  C9  UNL     1     -20.116   2.782   1.799  1.00  0.00     0.111 C
HETATM    5  N3  UNL     1     -19.047   2.469   2.566  1.00  0.00    -0.361 N
ATOM      6  H3  UNL     1     -18.871   3.294   3.139  1.00  0.00     0.162 HD
HETATM    7  C10 UNL     1     -18.065   1.533   2.941  1.00  0.00     0.183 C
HETATM    8  C15 UNL     1     -16.680   2.236   2.908  1.00  0.00     0.282 C
HETATM    9  O5  UNL     1     -15.734   1.469   3.125  1.00  0.00    -0.263 OA
HETATM   10  O6  UNL     1     -16.708   3.581   2.649  1.00  0.00    -0.309 OA
HETATM   11  C16 UNL     1     -16.770   4.344   1.519  1.00  0.00     0.192 C
HETATM   12  C19 UNL     1     -17.505   5.597   1.396  1.00  0.00     0.303 C
HETATM   13  F1  UNL     1     -16.553   6.631   1.255  1.00  0.00    -0.224 F
HETATM   14  N4  UNL     1     -18.440   6.065   2.350  1.00  0.00    -0.322 N
HETATM   15  C20 UNL     1     -17.812   6.641   3.565  1.00  0.00     0.155 C
HETATM   16  C21 UNL     1     -19.847   6.073   2.338  1.00  0.00     0.244 C
HETATM   17  O8  UNL     1     -20.436   6.659   3.316  1.00  0.00    -0.271 OA
ENDROOT
BRANCH   1  18
HETATM   18  N2  UNL     1     -21.588   6.716   0.975  1.00  0.00    -0.346 N
HETATM   19  C5  UNL     1     -21.713   7.159  -0.335  1.00  0.00     0.242 C
HETATM   20  O3  UNL     1     -21.116   6.494  -1.234  1.00  0.00    -0.271 OA
ATOM     21  H2  UNL     1     -22.050   7.245   1.714  1.00  0.00     0.163 HD
BRANCH  19  22
HETATM   22  C4  UNL     1     -22.508   8.363  -0.646  1.00  0.00     0.186 C
BRANCH  22  23
HETATM   23  N1  UNL     1     -23.425   8.634   0.503  1.00  0.00    -0.323 N
HETATM   24  C3  UNL     1     -24.734   8.111   0.496  1.00  0.00     0.361 C
HETATM   25  O2  UNL     1     -25.154   7.409  -0.485  1.00  0.00    -0.238 OA
ATOM     26  H1  UNL     1     -23.103   9.195   1.292  1.00  0.00     0.165 HD
BRANCH  24  27
HETATM   27  O1  UNL     1     -25.593   8.345   1.544  1.00  0.00    -0.304 OA
BRANCH  27  28
HETATM   28  C2  UNL     1     -26.126   7.256   2.290  1.00  0.00     0.176 C
HETATM   29  C1  UNL     1     -25.031   6.412   2.839  1.00  0.00     0.034 C
ENDBRANCH  27  28
ENDBRANCH  24  27
ENDBRANCH  22  23
BRANCH  22  30
HETATM   30  C22 UNL     1     -21.709   9.606  -0.908  1.00  0.00    -0.022 C
HETATM   31  C23 UNL     1     -22.508  10.776  -0.344  1.00  0.00     0.017 C
HETATM   32  C24 UNL     1     -20.350   9.605  -0.258  1.00  0.00     0.017 C
HETATM   33  C25 UNL     1     -21.522   9.855  -2.370  1.00  0.00     0.017 C
ENDBRANCH  22  30
ENDBRANCH  19  22
ENDBRANCH   1  18
BRANCH   4  34
HETATM   34  O4  UNL     1     -19.953   2.851   0.496  1.00  0.00    -0.350 OA
ATOM     35  H4  UNL     1     -19.112   2.434   0.347  1.00  0.00     0.219 HD
ENDBRANCH   4  34
BRANCH  11  36
HETATM   36  C17 UNL     1     -15.376   4.475   0.856  1.00  0.00     0.106 C
BRANCH  36  37
HETATM   37  C18 UNL     1     -14.275   4.501   1.806  1.00  0.00     0.233 C
HETATM   38  O7  UNL     1     -13.640   5.463   2.173  1.00  0.00    -0.307 OA
ENDBRANCH  36  37
ENDBRANCH  11  36
BRANCH   7  39
HETATM   39  C11 UNL     1     -17.981   0.182   2.409  1.00  0.00     0.039 C
BRANCH  39  40
HETATM   40  C12 UNL     1     -19.163  -0.701   2.411  1.00  0.00    -0.020 C
HETATM   41  C13 UNL     1     -20.121  -0.459   3.559  1.00  0.00     0.009 C
HETATM   42  C14 UNL     1     -19.876  -0.872   1.123  1.00  0.00     0.009 C
ENDBRANCH  39  40
ENDBRANCH   7  39
TORSDOF 11
ENDMDL