MODEL 5
REMARK VINA RESULT: -7.909125053      2.742      5.778
REMARK  8 active torsions:
REMARK  status: ('A' for Active; 'I' for Inactive)
REMARK       I    between atoms: C2_2  and  N1_4
REMARK    1  A    between atoms: N1_4  and  C3_6
REMARK    2  A    between atoms: C4_7  and  C5_8
REMARK    3  A    between atoms: C6_9  and  C7_10
REMARK    4  A    between atoms: C7_10  and  C8_12
REMARK    5  A    between atoms: C16_23  and  C17_24
REMARK    6  A    between atoms: C18_28  and  C19_29
REMARK       I    between atoms: C19_29  and  N4_31
REMARK    7  A    between atoms: N4_31  and  O7_33
REMARK    8  A    between atoms: O7_33  and  C20_34
ROOT
HETATM    1  C3  UNL     1     -18.232   2.531   3.578  1.00  0.00     0.149 C
HETATM    2  C4  UNL     1     -16.921   2.548   2.863  1.00  0.00     0.172 C
HETATM    3  O3  UNL     1     -16.968   3.395   1.737  1.00  0.00    -0.350 OA
HETATM    4  C9  UNL     1     -17.465   4.617   2.226  1.00  0.00     0.277 C
HETATM    5  C10 UNL     1     -17.019   5.731   1.396  1.00  0.00     0.065 A
HETATM    6  C11 UNL     1     -15.739   5.995   0.871  1.00  0.00     0.031 A
HETATM    7  C12 UNL     1     -15.837   7.185   0.225  1.00  0.00     0.020 A
HETATM    8  C13 UNL     1     -17.143   7.651   0.343  1.00  0.00     0.097 A
HETATM    9  N2  UNL     1     -17.840   6.725   1.070  1.00  0.00    -0.323 N
HETATM   10  C14 UNL     1     -19.234   6.671   1.432  1.00  0.00     0.046 C
HETATM   11  C15 UNL     1     -20.054   7.844   1.026  1.00  0.00     0.071 C
HETATM   12  C16 UNL     1     -19.732   5.615   2.095  1.00  0.00     0.134 C
HETATM   13  N3  UNL     1     -18.869   4.523   2.375  1.00  0.00    -0.326 N
HETATM   14  C18 UNL     1     -19.377   3.234   2.819  1.00  0.00     0.207 C
ENDROOT
BRANCH  14  15
HETATM   15  C19 UNL     1     -19.892   2.396   1.726  1.00  0.00     0.266 C
HETATM   16  O6  UNL     1     -19.984   2.893   0.585  1.00  0.00    -0.269 OA
HETATM   17  N4  UNL     1     -20.298   1.053   1.885  1.00  0.00    -0.233 N
ATOM     18  H4  UNL     1     -20.227   0.621   2.805  1.00  0.00     0.197 HD
BRANCH  17  19
HETATM   19  O7  UNL     1     -20.780   0.320   0.849  1.00  0.00    -0.273 OA
BRANCH  19  20
HETATM   20  C20 UNL     1     -20.424  -1.004   0.894  1.00  0.00     0.144 C
HETATM   21  C21 UNL     1     -21.349  -1.706   1.868  1.00  0.00     0.042 C
HETATM   22  C22 UNL     1     -19.006  -1.208   1.399  1.00  0.00     0.042 C
ENDBRANCH  19  20
ENDBRANCH  17  19
ENDBRANCH  14  15
BRANCH   1  23
HETATM   23  N1  UNL     1     -18.656   1.253   4.065  1.00  0.00    -0.351 N
HETATM   24  C2  UNL     1     -19.829   1.034   4.840  1.00  0.00     0.214 C
HETATM   25  C1  UNL     1     -20.239  -0.303   5.327  1.00  0.00     0.117 C
HETATM   26  O1  UNL     1     -20.544   2.017   5.121  1.00  0.00    -0.274 OA
ATOM     27  H1  UNL     1     -18.078   0.444   3.839  1.00  0.00     0.163 HD
ENDBRANCH   1  23
BRANCH   2  28
HETATM   28  C5  UNL     1     -16.393   1.254   2.479  1.00  0.00     0.011 C
HETATM   29  C6  UNL     1     -15.190   0.951   2.224  1.00  0.00     0.049 C
BRANCH  29  30
HETATM   30  C7  UNL     1     -14.032   1.776   2.238  1.00  0.00     0.159 C
HETATM   31  O2  UNL     1     -13.135   1.645   3.134  1.00  0.00    -0.292 OA
BRANCH  30  32
HETATM   32  C8  UNL     1     -13.737   2.853   1.247  1.00  0.00     0.168 C
HETATM   33 BR1  UNL     1     -11.897   3.385   1.301  1.00  0.00    -0.088 Br
ENDBRANCH  30  32
ENDBRANCH  29  30
ENDBRANCH   2  28
BRANCH  12  34
HETATM   34  C17 UNL     1     -21.149   5.630   2.434  1.00  0.00     0.228 C
HETATM   35  O4  UNL     1     -21.584   5.969   3.572  1.00  0.00    -0.643 OA
HETATM   36  O5  UNL     1     -22.124   5.265   1.520  1.00  0.00    -0.643 OA
ENDBRANCH  12  34
TORSDOF 8
ENDMDL