MODEL 3
REMARK VINA RESULT: -7.342507504      3.105      5.488
REMARK  8 active torsions:
REMARK  status: ('A' for Active; 'I' for Inactive)
REMARK    1  A    between atoms: C2_2  and  C3_3
REMARK    2  A    between atoms: C7_13  and  C8_14
REMARK    3  A    between atoms: C8_14  and  C9_15
REMARK    4  A    between atoms: C9_15  and  C10_16
REMARK    5  A    between atoms: C10_16  and  C11_17
REMARK    6  A    between atoms: C11_17  and  C12_18
REMARK    7  A    between atoms: C15_24  and  C16_25
REMARK    8  A    between atoms: C20_31  and  C21_32
REMARK       I    between atoms: C21_32  and  N4_34
ROOT
HETATM    1  C3  UNL     1     -22.251   9.420   0.687  1.00  0.00     0.189 C
HETATM    2  C4  UNL     1     -22.683   9.254  -0.747  1.00  0.00     0.055 C
HETATM    3  N1  UNL     1     -22.987   8.502   1.524  1.00  0.00    -0.051 N
ATOM      4  H11 UNL     1     -23.993   8.643   1.430  1.00  0.00     0.279 HD
ATOM      5  H12 UNL     1     -22.881   8.737   2.511  1.00  0.00     0.279 HD
HETATM    6  C5  UNL     1     -22.627   7.119   1.273  1.00  0.00     0.336 C
HETATM    7  C6  UNL     1     -22.903   6.322   2.493  1.00  0.00     0.244 C
HETATM    8  O1  UNL     1     -24.154   6.277   2.788  1.00  0.00    -0.272 OA
HETATM    9  N2  UNL     1     -22.002   5.654   3.312  1.00  0.00    -0.346 N
ATOM     10  H2  UNL     1     -22.053   5.893   4.302  1.00  0.00     0.163 HD
HETATM   11  C7  UNL     1     -21.012   4.678   2.967  1.00  0.00     0.176 C
HETATM   12  C13 UNL     1     -20.441   4.771   1.620  1.00  0.00     0.243 C
HETATM   13  O2  UNL     1     -21.211   4.304   0.695  1.00  0.00    -0.271 OA
HETATM   14  N3  UNL     1     -19.223   5.268   1.161  1.00  0.00    -0.340 N
HETATM   15  C14 UNL     1     -18.538   4.520   0.064  1.00  0.00     0.153 C
HETATM   16  C15 UNL     1     -18.462   6.425   1.552  1.00  0.00     0.190 C
HETATM   17  C19 UNL     1     -18.904   7.227   2.663  1.00  0.00     0.287 C
HETATM   18  O3  UNL     1     -18.405   6.846   3.799  1.00  0.00    -0.262 OA
HETATM   19  O4  UNL     1     -19.719   8.280   2.771  1.00  0.00    -0.268 OA
HETATM   20  C20 UNL     1     -20.077   9.419   2.153  1.00  0.00     0.194 C
HETATM   21  C23 UNL     1     -20.777   9.312   0.843  1.00  0.00     0.224 C
HETATM   22  O6  UNL     1     -20.137   9.125  -0.204  1.00  0.00    -0.287 OA
ENDROOT
BRANCH  11  23
HETATM   23  C8  UNL     1     -21.724   3.324   3.172  1.00  0.00     0.035 C
BRANCH  23  24
HETATM   24  C9  UNL     1     -20.733   2.295   3.723  1.00  0.00     0.002 C
BRANCH  24  25
HETATM   25  C10 UNL     1     -21.550   1.093   4.063  1.00  0.00     0.001 C
BRANCH  25  26
HETATM   26  C11 UNL     1     -22.249   0.402   2.960  1.00  0.00     0.011 C
BRANCH  26  27
HETATM   27  C12 UNL     1     -21.655  -0.896   2.550  1.00  0.00     0.085 C
HETATM   28 BR1  UNL     1     -20.206  -0.781   1.299  1.00  0.00    -0.097 Br
ENDBRANCH  26  27
ENDBRANCH  25  26
ENDBRANCH  24  25
ENDBRANCH  23  24
ENDBRANCH  11  23
BRANCH  16  29
HETATM   29  C16 UNL     1     -17.027   5.906   1.764  1.00  0.00     0.010 C
HETATM   30  C17 UNL     1     -16.842   5.306   3.138  1.00  0.00     0.012 C
HETATM   31  C18 UNL     1     -15.990   6.951   1.562  1.00  0.00     0.012 C
ENDBRANCH  16  29
BRANCH   1  32
HETATM   32  C2  UNL     1     -22.697  10.827   1.111  1.00  0.00     0.042 C
HETATM   33  C1  UNL     1     -24.134  10.743   1.621  1.00  0.00     0.008 C
ENDBRANCH   1  32
BRANCH  20  34
HETATM   34  C21 UNL     1     -19.056  10.523   2.117  1.00  0.00     0.279 C
HETATM   35  O5  UNL     1     -18.297  10.710   3.091  1.00  0.00    -0.265 OA
HETATM   36  N4  UNL     1     -18.932  11.360   0.997  1.00  0.00    -0.359 N
HETATM   37  C22 UNL     1     -17.932  12.409   1.016  1.00  0.00     0.149 C
ATOM     38  H4  UNL     1     -19.536  11.233   0.185  1.00  0.00     0.162 HD
ENDBRANCH  20  34
TORSDOF 8
ENDMDL