MODEL 2
REMARK VINA RESULT: -6.654269213      2.849      6.207
REMARK  6 active torsions:
REMARK  status: ('A' for Active; 'I' for Inactive)
REMARK    1  A    between atoms: S1_2  and  N1_4
REMARK    2  A    between atoms: S1_2  and  N3_16
REMARK    3  A    between atoms: N1_4  and  C1_6
REMARK    4  A    between atoms: C3_8  and  C4_9
REMARK    5  A    between atoms: C4_9  and  O3_10
REMARK    6  A    between atoms: N2_12  and  O4_14
ROOT
HETATM    1  N1  UNL     1      -1.432   4.229  83.818  1.00  0.00    -0.297 N
ATOM      2  H1  UNL     1      -1.978   4.884  83.258  1.00  0.00     0.174 HD
ENDROOT
BRANCH   1   3
HETATM    3  S1  UNL     1      -0.141   3.286  83.186  1.00  0.00     0.320 S
HETATM    4  O1  UNL     1       1.103   4.133  83.240  1.00  0.00    -0.182 OA
HETATM    5  O2  UNL     1       0.040   2.110  84.137  1.00  0.00    -0.182 OA
BRANCH   3   6
HETATM    6  N3  UNL     1      -0.372   2.717  81.645  1.00  0.00    -0.272 N
HETATM    7  C5  UNL     1      -1.562   2.083  81.297  1.00  0.00     0.088 C
HETATM    8  C6  UNL     1      -1.304   0.922  80.361  1.00  0.00     0.119 C
HETATM    9  S2  UNL     1       0.211   0.018  80.861  1.00  0.00    -0.162 SA
HETATM   10  C7  UNL     1       1.480   1.325  81.107  1.00  0.00     0.095 C
HETATM   11  C8  UNL     1       0.741   2.629  80.782  1.00  0.00     0.152 C
ENDBRANCH   3   6
ENDBRANCH   1   3
BRANCH   1  12
HETATM   12  C1  UNL     1      -1.664   3.997  85.221  1.00  0.00     0.107 A
HETATM   13  C2  UNL     1      -2.935   4.704  85.731  1.00  0.00     0.041 A
HETATM   14  C3  UNL     1      -2.778   3.181  85.705  1.00  0.00     0.087 A
BRANCH  14  15
HETATM   15  C4  UNL     1      -2.815   2.609  87.061  1.00  0.00     0.141 C
HETATM   16  N2  UNL     1      -2.634   1.427  87.437  1.00  0.00    -0.251 N
ATOM     17  H2  UNL     1      -2.717   1.306  88.446  1.00  0.00     0.196 HD
BRANCH  15  18
HETATM   18  O3  UNL     1      -3.098   3.526  88.114  1.00  0.00    -0.348 OA
ATOM     19  H3  UNL     1      -2.385   3.694  88.719  1.00  0.00     0.219 HD
ENDBRANCH  15  18
BRANCH  16  20
HETATM   20  O4  UNL     1      -2.355   0.294  86.789  1.00  0.00    -0.288 OA
ATOM     21  H4  UNL     1      -1.542  -0.152  86.580  1.00  0.00     0.244 HD
ENDBRANCH  16  20
ENDBRANCH  14  15
ENDBRANCH   1  12
TORSDOF 6
ENDMDL