MODEL 1
REMARK VINA RESULT: -7.650946640      0.000      0.000
REMARK  6 active torsions:
REMARK  status: ('A' for Active; 'I' for Inactive)
REMARK    1  A    between atoms: C3_3  and  S1_13
REMARK    2  A    between atoms: N1_4  and  N2_6
REMARK       I    between atoms: N2_6  and  C4_8
REMARK    3  A    between atoms: C4_8  and  C5_10
REMARK    4  A    between atoms: S1_13  and  C6_14
REMARK    5  A    between atoms: C6_14  and  C7_15
REMARK    6  A    between atoms: C7_15  and  O3_16
ROOT
HETATM    1  C1  UNL     1      -2.168   5.682  84.478  1.00  0.00     0.020 C
HETATM    2  C2  UNL     1      -1.247   4.938  84.231  1.00  0.00    -0.051 C
HETATM    3  C3  UNL     1      -0.128   4.059  83.933  1.00  0.00     0.139 C
HETATM    4  N1  UNL     1       0.040   3.038  84.697  1.00  0.00    -0.284 N
ATOM      5  H1  UNL     1       0.816   2.402  84.513  1.00  0.00     0.188 HD
ENDROOT
BRANCH   3   6
HETATM    6  S1  UNL     1       0.966   4.397  82.572  1.00  0.00    -0.090 SA
BRANCH   6   7
HETATM    7  C6  UNL     1       0.326   3.644  81.056  1.00  0.00     0.036 C
HETATM    8  C8  UNL     1       1.472   2.867  80.447  1.00  0.00     0.023 C
HETATM    9  C9  UNL     1       1.545   1.461  80.991  1.00  0.00     0.002 C
HETATM   10  C10 UNL     1       0.306   0.696  80.576  1.00  0.00     0.000 C
HETATM   11  C11 UNL     1      -0.948   1.477  80.750  1.00  0.00     0.002 C
HETATM   12  C12 UNL     1      -0.834   2.790  81.423  1.00  0.00     0.023 C
BRANCH   7  13
HETATM   13  C7  UNL     1      -0.129   4.744  80.135  1.00  0.00     0.185 C
BRANCH  13  14
HETATM   14  O3  UNL     1      -1.461   5.076  80.392  1.00  0.00    -0.399 OA
ATOM     15  H3  UNL     1      -2.017   4.793  79.676  1.00  0.00     0.209 HD
ENDBRANCH  13  14
ENDBRANCH   7  13
ENDBRANCH   6   7
ENDBRANCH   3   6
BRANCH   4  16
HETATM   16  N2  UNL     1      -0.815   2.777  85.770  1.00  0.00    -0.261 N
HETATM   17  C4  UNL     1      -1.551   1.568  85.886  1.00  0.00     0.325 C
HETATM   18  O1  UNL     1      -1.440   0.678  84.991  1.00  0.00    -0.261 OA
ATOM     19  H2  UNL     1      -0.914   3.483  86.500  1.00  0.00     0.190 HD
BRANCH  17  20
HETATM   20  C5  UNL     1      -2.432   1.330  87.018  1.00  0.00     0.324 C
HETATM   21  N3  UNL     1      -3.846   1.265  86.860  1.00  0.00    -0.053 NA
HETATM   22  O2  UNL     1      -1.916   1.182  88.151  1.00  0.00    -0.266 OA
ENDBRANCH  17  20
ENDBRANCH   4  16
TORSDOF 6
ENDMDL