MODEL 4
REMARK VINA RESULT: -6.476244500      1.248      1.375
REMARK  5 active torsions:
REMARK  status: ('A' for Active; 'I' for Inactive)
REMARK    1  A    between atoms: N2_3  and  C2_5
REMARK    2  A    between atoms: C3_8  and  C4_9
REMARK    3  A    between atoms: C4_9  and  N4_10
REMARK       I    between atoms: N4_10  and  C5_12
REMARK       I    between atoms: C5_12  and  N5_14
REMARK    4  A    between atoms: N5_14  and  C6_16
REMARK    5  A    between atoms: C6_16  and  C7_17
ROOT
HETATM    1  N1  UNL     1       0.004   0.991  80.019  1.00  0.00    -0.172 NA
HETATM    2  C1  UNL     1       0.964   1.409  80.520  1.00  0.00     0.183 C
HETATM    3  N2  UNL     1       2.118   1.907  81.147  1.00  0.00    -0.283 N
ATOM      4  H2  UNL     1       2.791   1.285  81.594  1.00  0.00     0.179 HD
ENDROOT
BRANCH   3   5
HETATM    5  C2  UNL     1       2.305   3.323  81.132  1.00  0.00     0.087 C
HETATM    6  N3  UNL     1       2.194   3.979  82.224  1.00  0.00    -0.372 N
HETATM    7  C3  UNL     1       2.320   5.340  82.511  1.00  0.00     0.110 C
ATOM      8  H3  UNL     1       1.972   3.402  83.036  1.00  0.00     0.161 HD
HETATM    9  C10 UNL     1       1.526   6.302  81.682  1.00  0.00     0.100 C
HETATM   10  S1  UNL     1       2.088   6.472  80.000  1.00  0.00    -0.167 SA
HETATM   11  C11 UNL     1       1.663   4.852  79.255  1.00  0.00     0.081 C
HETATM   12  C12 UNL     1       2.610   3.874  79.851  1.00  0.00     0.087 C
BRANCH   7  13
HETATM   13  C4  UNL     1       1.871   5.558  83.947  1.00  0.00     0.150 C
BRANCH  13  14
HETATM   14  N4  UNL     1       0.480   5.279  84.128  1.00  0.00    -0.341 N
HETATM   15  C5  UNL     1      -0.000   4.106  84.763  1.00  0.00     0.316 C
HETATM   16  O1  UNL     1       0.884   3.291  85.178  1.00  0.00    -0.247 OA
HETATM   17  N5  UNL     1      -1.389   3.865  84.924  1.00  0.00    -0.343 N
ATOM     18  H5  UNL     1      -2.041   4.565  84.570  1.00  0.00     0.164 HD
ATOM     19  H4  UNL     1      -0.199   5.957  83.783  1.00  0.00     0.164 HD
BRANCH  17  20
HETATM   20  C6  UNL     1      -1.936   2.689  85.559  1.00  0.00     0.129 C
BRANCH  20  21
HETATM   21  C7  UNL     1      -3.142   3.027  86.393  1.00  0.00     0.003 A
HETATM   22  C8  UNL     1      -3.877   1.909  87.054  1.00  0.00     0.007 A
HETATM   23  C9  UNL     1      -3.037   2.846  87.868  1.00  0.00     0.007 A
ENDBRANCH  20  21
ENDBRANCH  17  20
ENDBRANCH  13  14
ENDBRANCH   7  13
ENDBRANCH   3   5
TORSDOF 5
ENDMDL