MODEL 2
REMARK VINA RESULT: -6.725350776      1.321      1.811
REMARK  8 active torsions:
REMARK  status: ('A' for Active; 'I' for Inactive)
REMARK    1  A    between atoms: C1_2  and  C2_3
REMARK       I    between atoms: C1_2  and  N1_10
REMARK    2  A    between atoms: C2_3  and  O2_4
REMARK    3  A    between atoms: O2_4  and  C3_5
REMARK    4  A    between atoms: C3_5  and  C4_7
REMARK    5  A    between atoms: N1_10  and  N2_12
REMARK    6  A    between atoms: N2_12  and  C7_14
REMARK    7  A    between atoms: C7_14  and  N3_16
REMARK    8  A    between atoms: N3_16  and  C8_18
ROOT
HETATM    1  O1  UNL     1      -1.220   2.283  82.031  1.00  0.00    -0.269 OA
HETATM    2  C1  UNL     1      -0.262   1.537  82.343  1.00  0.00     0.260 C
HETATM    3  N1  UNL     1       1.061   1.877  81.966  1.00  0.00    -0.266 N
ATOM      4  H1  UNL     1       1.838   1.269  82.222  1.00  0.00     0.190 HD
ENDROOT
BRANCH   3   5
HETATM    5  N2  UNL     1       1.297   3.051  81.241  1.00  0.00    -0.274 N
ATOM      6  H2  UNL     1       0.733   3.239  80.412  1.00  0.00     0.189 HD
BRANCH   5   7
HETATM    7  C7  UNL     1       2.295   3.992  81.621  1.00  0.00     0.186 C
HETATM    8  S1  UNL     1       3.492   4.297  80.556  1.00  0.00    -0.040 SA
BRANCH   7   9
HETATM    9  N3  UNL     1       2.197   4.617  82.885  1.00  0.00    -0.361 N
ATOM     10  H3  UNL     1       2.939   4.482  83.572  1.00  0.00     0.162 HD
BRANCH   9  11
HETATM   11  C8  UNL     1       1.080   5.433  83.213  1.00  0.00     0.083 C
HETATM   12  C9  UNL     1       1.397   6.749  83.872  1.00  0.00     0.025 C
HETATM   13  C10 UNL     1      -0.017   7.208  84.266  1.00  0.00     0.002 C
HETATM   14  C11 UNL     1      -0.684   5.953  84.698  1.00  0.00     0.002 C
HETATM   15  C12 UNL     1       0.177   4.795  84.257  1.00  0.00     0.025 C
ENDBRANCH   9  11
ENDBRANCH   7   9
ENDBRANCH   5   7
ENDBRANCH   3   5
BRANCH   2  16
HETATM   16  C2  UNL     1      -0.526   0.302  83.107  1.00  0.00     0.283 C
BRANCH  16  17
HETATM   17  O2  UNL     1      -1.297   0.479  84.255  1.00  0.00    -0.312 OA
BRANCH  17  18
HETATM   18  C3  UNL     1      -0.974   1.350  85.281  1.00  0.00     0.263 C
HETATM   19  O3  UNL     1       0.169   1.341  85.765  1.00  0.00    -0.265 OA
BRANCH  18  20
HETATM   20  C4  UNL     1      -2.018   2.292  85.788  1.00  0.00     0.085 A
HETATM   21  C5  UNL     1      -2.999   1.586  86.724  1.00  0.00     0.015 A
HETATM   22  C6  UNL     1      -2.056   2.647  87.221  1.00  0.00     0.015 A
ENDBRANCH  18  20
ENDBRANCH  17  18
ENDBRANCH  16  17
ENDBRANCH   2  16
TORSDOF 8
ENDMDL