MODEL 5
REMARK VINA RESULT: -7.003794854      0.898      1.588
REMARK  6 active torsions:
REMARK  status: ('A' for Active; 'I' for Inactive)
REMARK    1  A    between atoms: C2_4  and  C3_5
REMARK    2  A    between atoms: C3_5  and  C4_6
REMARK    3  A    between atoms: C10_12  and  O2_13
REMARK    4  A    between atoms: C11_15  and  O3_16
REMARK    5  A    between atoms: C12_18  and  C13_19
REMARK    6  A    between atoms: C13_19  and  C14_20
ROOT
HETATM    1  C1  UNL     1      -0.778   0.948  83.565  1.00  0.00     0.144 C
HETATM    2  N1  UNL     1       0.286   1.206  82.659  1.00  0.00    -0.193 NA
HETATM    3  O1  UNL     1       0.766   2.456  82.667  1.00  0.00    -0.295 OA
HETATM    4  C2  UNL     1      -0.179   3.317  82.136  1.00  0.00     0.177 C
HETATM    5  C10 UNL     1      -0.312   3.046  80.667  1.00  0.00     0.179 C
HETATM    6  C11 UNL     1      -0.759   1.605  80.489  1.00  0.00     0.169 C
HETATM    7  C12 UNL     1       0.086   0.706  81.310  1.00  0.00     0.127 C
ENDROOT
BRANCH   4   8
HETATM    8  C3  UNL     1       0.238   4.767  82.280  1.00  0.00     0.041 C
BRANCH   8   9
HETATM    9  C4  UNL     1       0.209   5.282  83.677  1.00  0.00    -0.012 C
HETATM   10  C5  UNL     1      -0.792   6.358  83.931  1.00  0.00     0.005 C
HETATM   11  C6  UNL     1      -0.240   7.476  84.793  1.00  0.00     0.000 C
HETATM   12  C7  UNL     1       0.834   8.202  84.029  1.00  0.00     0.000 C
HETATM   13  C8  UNL     1       1.759   7.196  83.385  1.00  0.00     0.000 C
HETATM   14  C9  UNL     1       1.595   5.829  84.009  1.00  0.00     0.005 C
ENDBRANCH   8   9
ENDBRANCH   4   8
BRANCH   5  15
HETATM   15  O2  UNL     1       0.940   3.150  80.061  1.00  0.00    -0.390 OA
ATOM     16  H2  UNL     1       0.845   3.558  79.208  1.00  0.00     0.210 HD
ENDBRANCH   5  15
BRANCH   6  17
HETATM   17  O3  UNL     1      -2.119   1.463  80.674  1.00  0.00    -0.391 OA
ATOM     18  H3  UNL     1      -2.368   0.552  80.781  1.00  0.00     0.210 HD
ENDBRANCH   6  17
BRANCH   7  19
HETATM   19  C13 UNL     1      -0.425  -0.682  81.343  1.00  0.00     0.137 C
BRANCH  19  20
HETATM   20  C14 UNL     1       0.618  -1.716  81.301  1.00  0.00     0.174 C
HETATM   21  O4  UNL     1       1.863  -1.506  81.222  1.00  0.00    -0.648 OA
HETATM   22  O5  UNL     1       0.174  -3.067  81.354  1.00  0.00    -0.648 OA
ENDBRANCH  19  20
ENDBRANCH   7  19
TORSDOF 6
ENDMDL