MODEL 3
REMARK VINA RESULT: -6.939933061      2.399      3.987
REMARK  5 active torsions:
REMARK  status: ('A' for Active; 'I' for Inactive)
REMARK    1  A    between atoms: C2_2  and  C4_4
REMARK    2  A    between atoms: C4_4  and  N1_5
REMARK    3  A    between atoms: C4_4  and  C6_10
REMARK       I    between atoms: N1_5  and  C5_7
REMARK       I    between atoms: C6_10  and  N3_12
REMARK    4  A    between atoms: C9_16  and  C10_17
REMARK    5  A    between atoms: C10_17  and  N4_18
ROOT
HETATM    1  C10 UNL     1       0.738   7.130  82.952  1.00  0.00     0.312 C
HETATM    2  C11 UNL     1       1.494   8.030  83.848  1.00  0.00     0.094 C
HETATM    3  N5  UNL     1       2.099   8.734  84.543  1.00  0.00    -0.195 NA
ENDROOT
BRANCH   1   4
HETATM    4  C9  UNL     1       0.468   5.884  83.738  1.00  0.00     0.142 C
HETATM    5  N3  UNL     1      -0.318   4.897  83.027  1.00  0.00    -0.333 N
HETATM    6  C6  UNL     1      -1.366   4.075  83.502  1.00  0.00     0.244 C
HETATM    7  C7  UNL     1       0.225   4.868  81.642  1.00  0.00     0.200 C
HETATM    8  O2  UNL     1      -1.853   3.259  82.645  1.00  0.00    -0.271 OA
HETATM    9  S1  UNL     1       2.012   4.740  82.070  1.00  0.00    -0.147 SA
HETATM   10  C8  UNL     1       1.864   5.197  83.850  1.00  0.00     0.104 C
BRANCH   6  11
HETATM   11  C4  UNL     1      -1.833   4.166  84.868  1.00  0.00     0.181 C
BRANCH  11  12
HETATM   12  C2  UNL     1      -2.967   5.087  85.169  1.00  0.00     0.009 C
HETATM   13  C1  UNL     1      -3.444   4.681  86.581  1.00  0.00     0.012 C
HETATM   14  C3  UNL     1      -2.632   6.543  85.288  1.00  0.00     0.012 C
ENDBRANCH  11  12
BRANCH  11  15
HETATM   15  N1  UNL     1      -2.266   2.835  85.282  1.00  0.00    -0.332 N
HETATM   16  C5  UNL     1      -1.442   1.861  85.848  1.00  0.00     0.329 C
HETATM   17  N2  UNL     1      -1.992   0.572  86.211  1.00  0.00    -0.040 NA
HETATM   18  O1  UNL     1      -0.217   1.948  86.103  1.00  0.00    -0.251 OA
ATOM     19  H1  UNL     1      -3.249   2.598  85.146  1.00  0.00     0.164 HD
ENDBRANCH  11  15
ENDBRANCH   6  11
ENDBRANCH   1   4
BRANCH   1  20
HETATM   20  N4  UNL     1      -0.442   7.828  82.520  1.00  0.00    -0.061 N
ATOM     21  H43 UNL     1      -1.160   7.794  83.243  1.00  0.00     0.276 HD
ATOM     22  H42 UNL     1      -0.270   8.834  82.492  1.00  0.00     0.276 HD
ATOM     23  H41 UNL     1      -0.820   7.508  81.628  1.00  0.00     0.276 HD
ENDBRANCH   1  20
TORSDOF 5
ENDMDL