MODEL 1
REMARK VINA RESULT: -7.177927862      0.000      0.000
REMARK  6 active torsions:
REMARK  status: ('A' for Active; 'I' for Inactive)
REMARK    1  A    between atoms: N2_3  and  C2_5
REMARK    2  A    between atoms: C2_5  and  C4_8
REMARK    3  A    between atoms: N4_11  and  C7_12
REMARK    4  A    between atoms: C7_12  and  C8_13
REMARK    5  A    between atoms: C13_18  and  O1_19
REMARK    6  A    between atoms: C14_21  and  O2_22
ROOT
HETATM    1  N1  UNL     1      -3.304   1.018  87.071  1.00  0.00    -0.172 NA
HETATM    2  C1  UNL     1      -2.994   1.942  86.448  1.00  0.00     0.178 C
HETATM    3  N2  UNL     1      -2.617   3.050  85.713  1.00  0.00    -0.310 N
ATOM      4  H2  UNL     1      -3.304   3.559  85.157  1.00  0.00     0.173 HD
ENDROOT
BRANCH   3   5
HETATM    5  C2  UNL     1      -1.249   3.476  85.740  1.00  0.00     0.212 C
HETATM    6  C3  UNL     1      -0.400   2.284  85.683  1.00  0.00     0.086 C
HETATM    7  N3  UNL     1       0.257   1.332  85.646  1.00  0.00    -0.195 NA
BRANCH   5   8
HETATM    8  C4  UNL     1      -0.899   4.467  84.666  1.00  0.00     0.057 A
HETATM    9  C5  UNL     1       0.537   4.777  84.469  1.00  0.00     0.048 C
HETATM   10  C6  UNL     1       0.877   4.371  83.049  1.00  0.00     0.274 C
HETATM   11  N4  UNL     1      -0.380   4.305  82.354  1.00  0.00     0.097 N
HETATM   12  C12 UNL     1      -1.425   4.187  83.307  1.00  0.00     0.268 A
HETATM   13  C13 UNL     1      -2.266   5.459  83.328  1.00  0.00     0.182 A
HETATM   14  C14 UNL     1      -1.819   5.664  84.759  1.00  0.00     0.162 A
BRANCH  11  15
HETATM   15  C7  UNL     1      -0.406   3.301  81.319  1.00  0.00     0.277 C
BRANCH  15  16
HETATM   16  C8  UNL     1       0.226   2.039  81.856  1.00  0.00     0.014 C
HETATM   17  C9  UNL     1       1.082   1.364  80.784  1.00  0.00     0.006 C
HETATM   18  C10 UNL     1      -0.166   0.583  80.385  1.00  0.00     0.001 C
HETATM   19  C11 UNL     1      -0.683   0.816  81.784  1.00  0.00     0.006 C
ENDBRANCH  15  16
ENDBRANCH  11  15
BRANCH  13  20
HETATM   20  O1  UNL     1      -1.785   6.486  82.535  1.00  0.00    -0.391 OA
ATOM     21  H1  UNL     1      -2.237   6.597  81.707  1.00  0.00     0.210 HD
ENDBRANCH  13  20
BRANCH  14  22
HETATM   22  O2  UNL     1      -1.173   6.870  85.006  1.00  0.00    -0.392 OA
ATOM     23  H2  UNL     1      -1.686   7.642  84.798  1.00  0.00     0.210 HD
ENDBRANCH  14  22
ENDBRANCH   5   8
ENDBRANCH   3   5
TORSDOF 6
ENDMDL