MODEL 4
REMARK VINA RESULT: -6.125740178      2.704      3.623
REMARK  6 active torsions:
REMARK  status: ('A' for Active; 'I' for Inactive)
REMARK    1  A    between atoms: S1_2  and  C2_3
REMARK    2  A    between atoms: C2_3  and  C3_4
REMARK    3  A    between atoms: C4_6  and  N1_7
REMARK       I    between atoms: N1_7  and  C5_9
REMARK       I    between atoms: C5_9  and  N2_11
REMARK    4  A    between atoms: C10_16  and  O3_17
REMARK    5  A    between atoms: C11_19  and  C12_20
REMARK    6  A    between atoms: C12_20  and  O4_21
ROOT
HETATM    1  C3  UNL     1       0.833   6.410  83.033  1.00  0.00     0.142 C
HETATM    2  O1  UNL     1       1.198   5.722  84.215  1.00  0.00    -0.357 OA
HETATM    3  C4  UNL     1       0.850   4.393  84.001  1.00  0.00     0.254 C
HETATM    4  C10 UNL     1       0.694   4.199  82.504  1.00  0.00     0.175 C
HETATM    5  C11 UNL     1       1.416   5.482  82.019  1.00  0.00     0.072 C
ENDROOT
BRANCH   3   6
HETATM    6  N1  UNL     1      -0.395   4.145  84.718  1.00  0.00    -0.314 N
HETATM    7  C5  UNL     1      -0.499   3.050  85.609  1.00  0.00     0.320 C
HETATM    8  O2  UNL     1       0.492   2.266  85.795  1.00  0.00    -0.247 OA
HETATM    9  N2  UNL     1      -1.697   2.803  86.305  1.00  0.00    -0.334 N
HETATM   10  C6  UNL     1      -1.959   1.726  87.250  1.00  0.00     0.127 C
HETATM   11  C9  UNL     1      -2.910   3.612  86.190  1.00  0.00     0.127 C
HETATM   12  C7  UNL     1      -3.418   1.446  87.195  1.00  0.00     0.022 C
HETATM   13  C8  UNL     1      -4.020   2.689  86.601  1.00  0.00     0.022 C
ATOM     14  H1  UNL     1      -1.193   4.763  84.578  1.00  0.00     0.166 HD
ENDBRANCH   3   6
BRANCH   4  15
HETATM   15  O3  UNL     1       1.384   3.131  82.003  1.00  0.00    -0.391 OA
ATOM     16  H3  UNL     1       1.768   3.283  81.147  1.00  0.00     0.210 HD
ENDBRANCH   4  15
BRANCH   1  17
HETATM   17  C2  UNL     1       1.309   7.801  83.052  1.00  0.00     0.106 C
BRANCH  17  18
HETATM   18  S1  UNL     1       0.862   8.673  84.558  1.00  0.00    -0.171 SA
HETATM   19  C1  UNL     1       2.198   9.671  85.199  1.00  0.00     0.089 C
ENDBRANCH  17  18
ENDBRANCH   1  17
BRANCH   5  20
HETATM   20  C12 UNL     1       2.884   5.171  82.277  1.00  0.00     0.174 C
BRANCH  20  21
HETATM   21  O4  UNL     1       3.504   4.826  81.101  1.00  0.00    -0.400 OA
ATOM     22  H4  UNL     1       3.417   3.892  80.951  1.00  0.00     0.209 HD
ENDBRANCH  20  21
ENDBRANCH   5  20
TORSDOF 6
ENDMDL