MODEL 3
REMARK VINA RESULT: -7.767893190      1.140      1.447
REMARK  5 active torsions:
REMARK  status: ('A' for Active; 'I' for Inactive)
REMARK    1  A    between atoms: C1_2  and  C2_4
REMARK    2  A    between atoms: C2_4  and  C3_5
REMARK    3  A    between atoms: C3_5  and  C4_6
REMARK    4  A    between atoms: C3_5  and  C5_9
REMARK    5  A    between atoms: C11_15  and  C12_16
ROOT
HETATM    1  C5  UNL     1       0.276   3.506  84.008  1.00  0.00     0.241 C
HETATM    2  C6  UNL     1       0.979   4.322  82.930  1.00  0.00     0.072 C
HETATM    3  C7  UNL     1       1.020   5.287  84.114  1.00  0.00     0.227 C
HETATM    4  C8  UNL     1       1.157   6.717  83.861  1.00  0.00     0.036 C
HETATM    5  C9  UNL     1      -0.190   7.373  84.200  1.00  0.00     0.005 C
HETATM    6  C10 UNL     1      -1.139   6.759  83.191  1.00  0.00     0.047 C
HETATM    7  C11 UNL     1      -1.354   5.316  83.621  1.00  0.00     0.323 C
HETATM    8  N1  UNL     1      -0.307   4.781  84.408  1.00  0.00     0.113 N
ENDROOT
BRANCH   1   9
HETATM    9  C3  UNL     1      -0.592   2.401  83.615  1.00  0.00     0.130 C
BRANCH   9  10
HETATM   10  C2  UNL     1      -0.255   1.761  82.288  1.00  0.00     0.130 C
BRANCH  10  11
HETATM   11  C1  UNL     1      -1.369   1.757  81.321  1.00  0.00     0.173 C
HETATM   12  O1  UNL     1      -1.556   0.810  80.526  1.00  0.00    -0.648 OA
HETATM   13  O2  UNL     1      -2.249   2.826  81.278  1.00  0.00    -0.648 OA
ENDBRANCH  10  11
ENDBRANCH   9  10
BRANCH   9  14
HETATM   14  C4  UNL     1      -0.576   1.349  84.656  1.00  0.00     0.179 C
HETATM   15  O3  UNL     1      -1.341   0.373  84.535  1.00  0.00    -0.648 OA
HETATM   16  O4  UNL     1       0.257   1.415  85.751  1.00  0.00    -0.648 OA
ENDBRANCH   9  14
ENDBRANCH   1   9
BRANCH   7  17
HETATM   17  C12 UNL     1      -2.644   5.362  84.353  1.00  0.00     0.207 C
HETATM   18  O5  UNL     1      -3.541   6.112  83.916  1.00  0.00    -0.646 OA
HETATM   19  O6  UNL     1      -2.876   4.614  85.482  1.00  0.00    -0.646 OA
ENDBRANCH   7  17
TORSDOF 5
ENDMDL