MODEL 1
REMARK VINA RESULT: -7.216627977      0.000      0.000
REMARK  5 active torsions:
REMARK  status: ('A' for Active; 'I' for Inactive)
REMARK    1  A    between atoms: C2_2  and  N1_3
REMARK    2  A    between atoms: N1_3  and  C3_5
REMARK    3  A    between atoms: C4_8  and  C5_9
REMARK    4  A    between atoms: N3_13  and  C9_14
REMARK    5  A    between atoms: C9_14  and  C10_15
ROOT
HETATM    1  C5  UNL     1     -22.283  -9.740  54.835  1.00  0.00     0.005 C
HETATM    2  C6  UNL     1     -22.306  -8.881  53.606  1.00  0.00     0.022 C
HETATM    3  C7  UNL     1     -22.784  -8.910  55.972  1.00  0.00     0.046 C
HETATM    4  C8  UNL     1     -23.899  -9.592  56.721  1.00  0.00     0.278 C
HETATM    5  N3  UNL     1     -24.989 -10.000  55.851  1.00  0.00     0.135 N
HETATM    6  C11 UNL     1     -24.531 -10.899  54.807  1.00  0.00     0.296 C
HETATM    7  C12 UNL     1     -25.221 -10.553  53.498  1.00  0.00     0.087 C
HETATM    8  F1  UNL     1     -24.986 -12.201  55.102  1.00  0.00    -0.209 F
HETATM    9  C13 UNL     1     -23.062 -11.021  54.686  1.00  0.00     0.092 C
ENDROOT
BRANCH   1  10
HETATM   10  C4  UNL     1     -20.859 -10.216  55.049  1.00  0.00     0.026 A
HETATM   11  N2  UNL     1     -19.980 -10.287  54.079  1.00  0.00    -0.339 N
HETATM   12  C3  UNL     1     -18.743 -10.700  54.362  1.00  0.00     0.144 A
ATOM     13  H2  UNL     1     -20.237 -10.032  53.126  1.00  0.00     0.168 HD
HETATM   14  S1  UNL     1     -18.817 -11.000  56.048  1.00  0.00    -0.064 SA
HETATM   15  C14 UNL     1     -20.450 -10.575  56.305  1.00  0.00     0.079 A
BRANCH  12  16
HETATM   16  N1  UNL     1     -17.701 -10.850  53.614  1.00  0.00    -0.371 N
ATOM     17  H1  UNL     1     -17.849 -10.775  52.607  1.00  0.00     0.161 HD
BRANCH  16  18
HETATM   18  C2  UNL     1     -16.370 -11.109  54.039  1.00  0.00     0.117 C
HETATM   19  C1  UNL     1     -15.533 -11.450  52.795  1.00  0.00     0.026 C
ENDBRANCH  16  18
ENDBRANCH  12  16
ENDBRANCH   1  10
BRANCH   5  20
HETATM   20  C9  UNL     1     -25.989 -10.700  56.612  1.00  0.00     0.355 C
BRANCH  20  21
HETATM   21  C10 UNL     1     -27.127  -9.893  57.059  1.00  0.00     0.141 A
HETATM   22  N4  UNL     1     -28.250 -10.359  57.609  1.00  0.00    -0.271 N
HETATM   23  N5  UNL     1     -29.042  -9.319  57.893  1.00  0.00    -0.227 N
ATOM     24  H4  UNL     1     -28.467 -11.341  57.783  1.00  0.00     0.190 HD
HETATM   25  N6  UNL     1     -28.442  -8.210  57.531  1.00  0.00    -0.227 N
ATOM     26  H5  UNL     1     -29.966  -9.378  58.322  1.00  0.00     0.210 HD
HETATM   27  N7  UNL     1     -27.271  -8.551  57.021  1.00  0.00    -0.271 N
ATOM     28  H6  UNL     1     -28.809  -7.263  57.626  1.00  0.00     0.210 HD
ATOM     29  H7  UNL     1     -26.579  -7.898  56.653  1.00  0.00     0.190 HD
ENDBRANCH  20  21
ENDBRANCH   5  20
TORSDOF 5
ENDMDL