MODEL 3
REMARK VINA RESULT: -7.600531541      1.213      1.525
REMARK  4 active torsions:
REMARK  status: ('A' for Active; 'I' for Inactive)
REMARK    1  A    between atoms: N2_6  and  C3_8
REMARK    2  A    between atoms: C8_14  and  C9_15
REMARK    3  A    between atoms: C10_20  and  C11_21
REMARK    4  A    between atoms: C11_21  and  N5_22
ROOT
HETATM    1  C9  UNL     1     -29.404 -11.157  55.577  1.00  0.00     0.143 A
HETATM    2  N3  UNL     1     -30.016 -10.353  56.454  1.00  0.00    -0.283 N
ATOM      3  H3  UNL     1     -29.574  -9.573  56.942  1.00  0.00     0.188 HD
HETATM    4  N4  UNL     1     -31.299 -10.725  56.596  1.00  0.00    -0.286 N
ATOM      5  H4  UNL     1     -31.992 -10.285  57.201  1.00  0.00     0.188 HD
HETATM    6  C10 UNL     1     -31.500 -11.779  55.797  1.00  0.00     0.115 A
HETATM    7  N6  UNL     1     -30.334 -12.033  55.179  1.00  0.00    -0.327 N
ATOM      8  H6  UNL     1     -30.179 -12.783  54.505  1.00  0.00     0.169 HD
ENDROOT
BRANCH   1   9
HETATM    9  C8  UNL     1     -27.994 -11.079  55.147  1.00  0.00     0.110 A
HETATM   10  C1  UNL     1     -26.901 -11.666  55.720  1.00  0.00     0.211 A
HETATM   11  F1  UNL     1     -27.084 -12.448  56.860  1.00  0.00    -0.184 F
HETATM   12  N1  UNL     1     -25.741 -11.467  55.177  1.00  0.00    -0.312 N
HETATM   13  C2  UNL     1     -25.672 -10.698  54.084  1.00  0.00     0.147 A
ATOM     14  H1  UNL     1     -24.900 -11.887  55.574  1.00  0.00     0.170 HD
HETATM   15  N2  UNL     1     -24.590 -10.392  53.409  1.00  0.00    -0.366 N
HETATM   16  S1  UNL     1     -27.299 -10.253  53.830  1.00  0.00    -0.046 SA
ATOM     17  H2  UNL     1     -23.702 -10.770  53.739  1.00  0.00     0.162 HD
BRANCH  15  18
HETATM   18  C3  UNL     1     -24.570  -9.573  52.255  1.00  0.00     0.083 C
HETATM   19  C4  UNL     1     -23.307  -8.838  51.971  1.00  0.00     0.025 C
HETATM   20  C5  UNL     1     -23.396  -8.494  50.481  1.00  0.00     0.002 C
HETATM   21  C6  UNL     1     -24.627  -9.193  49.954  1.00  0.00     0.002 C
HETATM   22  C7  UNL     1     -24.871 -10.321  50.966  1.00  0.00     0.025 C
ENDBRANCH  15  18
ENDBRANCH   1   9
BRANCH   6  23
HETATM   23  C11 UNL     1     -32.751 -12.511  55.623  1.00  0.00     0.195 C
BRANCH  23  24
HETATM   24  N5  UNL     1     -33.716 -11.922  54.762  1.00  0.00    -0.402 N
HETATM   25  C12 UNL     1     -34.999 -11.659  55.312  1.00  0.00     0.143 C
HETATM   26  C13 UNL     1     -35.737 -10.721  54.381  1.00  0.00     0.187 C
HETATM   27  O1  UNL     1     -35.724 -11.092  53.066  1.00  0.00    -0.388 OA
HETATM   28  C14 UNL     1     -35.055 -12.246  52.765  1.00  0.00     0.187 C
HETATM   29  C15 UNL     1     -33.687 -12.330  53.400  1.00  0.00     0.143 C
ENDBRANCH  23  24
ENDBRANCH   6  23
TORSDOF 4
ENDMDL