MODEL 5
REMARK VINA RESULT: -6.875615729      2.900      4.449
REMARK  7 active torsions:
REMARK  status: ('A' for Active; 'I' for Inactive)
REMARK    1  A    between atoms: C2_2  and  N1_3
REMARK    2  A    between atoms: C8_11  and  C9_12
REMARK    3  A    between atoms: C9_12  and  C10_13
REMARK    4  A    between atoms: C10_13  and  O2_14
REMARK    5  A    between atoms: C12_17  and  N2_18
REMARK    6  A    between atoms: N2_18  and  N3_20
REMARK    7  A    between atoms: N3_20  and  N4_21
ROOT
HETATM    1  C9  UNL     1     -24.086 -10.448  57.193  1.00  0.00     0.107 C
ENDROOT
BRANCH   1   2
HETATM    2  C8  UNL     1     -23.836 -10.158  55.762  1.00  0.00    -0.048 A
HETATM    3  C7  UNL     1     -22.522  -9.958  55.382  1.00  0.00     0.052 A
HETATM    4  C6  UNL     1     -22.222  -9.681  54.064  1.00  0.00     0.153 A
HETATM    5  C5  UNL     1     -23.214  -9.601  53.116  1.00  0.00     0.141 A
HETATM    6  F1  UNL     1     -20.943  -9.477  53.643  1.00  0.00    -0.203 F
HETATM    7  O1  UNL     1     -22.612  -9.314  51.901  1.00  0.00    -0.340 OA
HETATM    8  C15 UNL     1     -24.528  -9.804  53.518  1.00  0.00     0.113 A
HETATM    9  C4  UNL     1     -22.844  -9.516  50.522  1.00  0.00     0.221 C
HETATM   10  C3  UNL     1     -24.139 -10.278  50.263  1.00  0.00     0.096 C
HETATM   11  N1  UNL     1     -25.294  -9.541  50.560  1.00  0.00    -0.329 N
HETATM   12  C16 UNL     1     -26.178 -10.016  51.527  1.00  0.00     0.240 C
HETATM   13  O3  UNL     1     -25.740  -9.797  52.846  1.00  0.00    -0.303 OA
HETATM   14  C14 UNL     1     -24.821 -10.080  54.836  1.00  0.00     0.047 A
BRANCH  11  15
HETATM   15  C2  UNL     1     -25.515  -8.321  49.935  1.00  0.00     0.066 C
HETATM   16  C1  UNL     1     -26.991  -8.049  49.691  1.00  0.00     0.055 C
ENDBRANCH  11  15
ENDBRANCH   1   2
BRANCH   1  17
HETATM   17  C10 UNL     1     -24.334  -9.223  58.022  1.00  0.00     0.230 C
HETATM   18  C11 UNL     1     -25.840  -8.941  57.997  1.00  0.00     0.098 C
HETATM   19  C12 UNL     1     -26.047  -8.200  59.319  1.00  0.00     0.144 C
HETATM   20  C13 UNL     1     -24.987  -8.792  60.226  1.00  0.00     0.263 C
HETATM   21  N5  UNL     1     -24.063  -9.515  59.390  1.00  0.00    -0.041 N
ATOM     22  H52 UNL     1     -24.074 -10.517  59.581  1.00  0.00     0.280 HD
ATOM     23  H51 UNL     1     -23.092  -9.330  59.639  1.00  0.00     0.280 HD
BRANCH  17  24
HETATM   24  O2  UNL     1     -23.732  -8.090  57.521  1.00  0.00    -0.365 OA
ATOM     25  H2  UNL     1     -24.323  -7.351  57.440  1.00  0.00     0.212 HD
ENDBRANCH  17  24
BRANCH  19  26
HETATM   26  N2  UNL     1     -27.378  -8.446  59.785  1.00  0.00    -0.246 N
ATOM     27  H2  UNL     1     -27.514  -9.039  60.604  1.00  0.00     0.197 HD
BRANCH  26  28
HETATM   28  N3  UNL     1     -28.358  -7.967  59.227  1.00  0.00    -0.248 NA
BRANCH  28  29
HETATM   29  N4  UNL     1     -29.263  -7.502  58.519  1.00  0.00    -0.261 N
ATOM     30  H42 UNL     1     -28.530  -7.322  57.833  1.00  0.00     0.193 HD
ATOM     31  H41 UNL     1     -30.093  -7.153  58.042  1.00  0.00     0.193 HD
ENDBRANCH  28  29
ENDBRANCH  26  28
ENDBRANCH  19  26
ENDBRANCH   1  17
TORSDOF 7
ENDMDL