MODEL 5
REMARK VINA RESULT: -6.633423127      3.204      7.039
REMARK  6 active torsions:
REMARK  status: ('A' for Active; 'I' for Inactive)
REMARK    1  A    between atoms: C2_2  and  O1_3
REMARK    2  A    between atoms: O1_3  and  C3_4
REMARK    3  A    between atoms: C3_4  and  C4_6
REMARK    4  A    between atoms: C5_7  and  O3_8
REMARK    5  A    between atoms: C7_11  and  N1_12
REMARK    6  A    between atoms: C9_16  and  C10_17
ROOT
HETATM    1  C4  UNL     1     -26.121 -10.771  58.376  1.00  0.00     0.125 C
HETATM    2  C5  UNL     1     -27.114 -11.384  57.412  1.00  0.00     0.134 C
HETATM    3  C6  UNL     1     -26.494 -11.884  56.158  1.00  0.00     0.058 C
HETATM    4  C7  UNL     1     -25.958 -10.894  55.217  1.00  0.00     0.100 C
HETATM    5  C12 UNL     1     -25.349  -9.669  55.786  1.00  0.00     0.050 C
HETATM    6  C13 UNL     1     -26.209  -8.878  56.711  1.00  0.00     0.023 C
HETATM    7  C14 UNL     1     -25.508  -9.499  57.865  1.00  0.00     0.008 C
HETATM    8  C15 UNL     1     -25.000  -8.577  58.934  1.00  0.00     0.020 C
HETATM    9  C16 UNL     1     -24.387  -9.895  56.899  1.00  0.00     0.113 C
HETATM   10  C17 UNL     1     -23.261  -8.886  56.848  1.00  0.00     0.053 C
HETATM   11  F1  UNL     1     -23.890 -11.150  57.073  1.00  0.00    -0.242 F
ENDROOT
BRANCH   4  12
HETATM   12  N1  UNL     1     -26.896 -10.493  54.177  1.00  0.00    -0.345 N
HETATM   13  C8  UNL     1     -28.230 -10.662  54.193  1.00  0.00     0.183 A
HETATM   14  N2  UNL     1     -28.769 -10.161  53.048  1.00  0.00    -0.346 N
HETATM   15  C9  UNL     1     -27.788  -9.672  52.299  1.00  0.00     0.126 A
ATOM     16  H2  UNL     1     -29.760 -10.160  52.806  1.00  0.00     0.167 HD
HETATM   17  C11 UNL     1     -26.622  -9.882  53.010  1.00  0.00     0.129 A
BRANCH  15  18
HETATM   18  C10 UNL     1     -27.841  -9.027  50.983  1.00  0.00     0.228 C
HETATM   19  O4  UNL     1     -28.735  -9.308  50.153  1.00  0.00    -0.643 OA
HETATM   20  O5  UNL     1     -26.896  -8.079  50.613  1.00  0.00    -0.643 OA
ENDBRANCH  15  18
ENDBRANCH   4  12
BRANCH   2  21
HETATM   21  O3  UNL     1     -27.597 -12.537  58.085  1.00  0.00    -0.395 OA
ATOM     22  H3  UNL     1     -28.487 -12.642  57.769  1.00  0.00     0.210 HD
ENDBRANCH   2  21
BRANCH   1  23
HETATM   23  C3  UNL     1     -26.860 -10.502  59.634  1.00  0.00     0.266 C
HETATM   24  O2  UNL     1     -26.321 -10.771  60.734  1.00  0.00    -0.265 OA
BRANCH  23  25
HETATM   25  O1  UNL     1     -28.130  -9.960  59.666  1.00  0.00    -0.321 OA
BRANCH  25  26
HETATM   26  C2  UNL     1     -28.367  -8.759  60.410  1.00  0.00     0.174 C
HETATM   27  C1  UNL     1     -28.466  -7.570  59.487  1.00  0.00     0.034 C
ENDBRANCH  25  26
ENDBRANCH  23  25
ENDBRANCH   1  23
TORSDOF 6
ENDMDL