MODEL 2
REMARK VINA RESULT: -6.510387667      6.452      8.928
REMARK  5 active torsions:
REMARK  status: ('A' for Active; 'I' for Inactive)
REMARK    1  A    between atoms: C3_4  and  C4_5
REMARK       I    between atoms: C4_5  and  N1_7
REMARK    2  A    between atoms: N1_7  and  C5_9
REMARK    3  A    between atoms: C5_9  and  C6_10
REMARK    4  A    between atoms: C7_12  and  O2_13
REMARK    5  A    between atoms: C8_15  and  N2_16
ROOT
HETATM    1  C1  UNL     1     -23.506  -9.813  55.592  1.00  0.00     0.059 C
HETATM    2  C2  UNL     1     -22.102 -10.003  55.133  1.00  0.00     0.009 A
HETATM    3  S1  UNL     1     -20.815 -10.391  56.186  1.00  0.00    -0.084 SA
HETATM    4  C3  UNL     1     -19.537 -10.449  55.056  1.00  0.00     0.108 A
HETATM    5  C7  UNL     1     -20.147 -10.164  53.882  1.00  0.00     0.116 A
HETATM    6  C8  UNL     1     -21.497  -9.928  53.914  1.00  0.00     0.078 A
ENDROOT
BRANCH   6   7
HETATM    7  N2  UNL     1     -22.255  -9.628  52.691  1.00  0.00    -0.375 N
HETATM    8  C9  UNL     1     -22.664 -10.613  51.713  1.00  0.00     0.131 C
HETATM    9  C10 UNL     1     -23.374  -9.889  50.631  1.00  0.00     0.051 C
HETATM   10  C11 UNL     1     -24.761 -10.511  50.394  1.00  0.00     0.129 C
HETATM   11  C13 UNL     1     -23.852  -8.600  51.314  1.00  0.00     0.170 C
HETATM   12  N3  UNL     1     -25.379 -10.171  51.664  1.00  0.00    -0.200 NA
HETATM   13  C12 UNL     1     -26.793 -10.388  51.685  1.00  0.00     0.143 C
HETATM   14  O3  UNL     1     -25.003  -8.933  51.977  1.00  0.00    -0.296 OA
HETATM   15  C14 UNL     1     -22.722  -8.355  52.252  1.00  0.00     0.157 C
ENDBRANCH   6   7
BRANCH   5  16
HETATM   16  O2  UNL     1     -19.391 -10.117  52.681  1.00  0.00    -0.357 OA
ATOM     17  H2  UNL     1     -19.754 -10.468  51.877  1.00  0.00     0.217 HD
ENDBRANCH   5  16
BRANCH   4  18
HETATM   18  C4  UNL     1     -18.154 -10.749  55.409  1.00  0.00     0.261 C
HETATM   19  O1  UNL     1     -17.846 -11.363  56.445  1.00  0.00    -0.267 OA
HETATM   20  N1  UNL     1     -17.104 -10.319  54.527  1.00  0.00    -0.355 N
ATOM     21  H1  UNL     1     -17.353  -9.819  53.674  1.00  0.00     0.162 HD
BRANCH  20  22
HETATM   22  C5  UNL     1     -15.718 -10.568  54.801  1.00  0.00     0.137 C
BRANCH  22  23
HETATM   23  C6  UNL     1     -15.232 -11.768  54.068  1.00  0.00     0.134 C
HETATM   24 CL1  UNL     1     -15.326 -11.414  52.314  1.00  0.00    -0.129 Cl
ENDBRANCH  22  23
ENDBRANCH  20  22
ENDBRANCH   4  18
TORSDOF 5
ENDMDL