MODEL 3
REMARK VINA RESULT: -6.557658468      2.654      4.014
REMARK  5 active torsions:
REMARK  status: ('A' for Active; 'I' for Inactive)
REMARK    1  A    between atoms: C2_2  and  C3_3
REMARK    2  A    between atoms: C5_6  and  N1_7
REMARK    3  A    between atoms: N2_10  and  C6_11
REMARK    4  A    between atoms: C6_11  and  C7_12
REMARK    5  A    between atoms: N3_16  and  C9_17
ROOT
HETATM    1  C3  UNL     1     -23.316 -10.303  54.635  1.00  0.00     0.042 A
HETATM    2  C4  UNL     1     -22.398 -10.255  53.580  1.00  0.00     0.100 A
HETATM    3 CL1  UNL     1     -20.670 -10.342  53.856  1.00  0.00    -0.078 Cl
HETATM    4  C5  UNL     1     -22.876 -10.136  52.293  1.00  0.00     0.129 A
HETATM    5  N2  UNL     1     -24.201 -10.069  52.084  1.00  0.00    -0.283 N
HETATM    6  C8  UNL     1     -25.071 -10.116  53.106  1.00  0.00     0.331 A
HETATM    7  O1  UNL     1     -26.290 -10.049  52.823  1.00  0.00    -0.246 OA
HETATM    8  N3  UNL     1     -24.661 -10.233  54.400  1.00  0.00    -0.296 N
ENDROOT
BRANCH   8   9
HETATM    9  C9  UNL     1     -25.567 -10.277  55.492  1.00  0.00     0.103 C
HETATM   10  C10 UNL     1     -26.061 -11.675  55.706  1.00  0.00     0.029 C
HETATM   11  C11 UNL     1     -27.505 -11.695  55.258  1.00  0.00     0.034 C
HETATM   12  C12 UNL     1     -27.988 -10.261  55.378  1.00  0.00     0.130 C
HETATM   13  O2  UNL     1     -28.340  -9.984  56.672  1.00  0.00    -0.380 OA
HETATM   14  C15 UNL     1     -26.775  -9.395  55.390  1.00  0.00     0.067 C
HETATM   15  C13 UNL     1     -27.397  -8.964  56.684  1.00  0.00     0.126 C
HETATM   16  C14 UNL     1     -26.587  -9.010  57.926  1.00  0.00     0.040 C
ENDBRANCH   8   9
BRANCH   1  17
HETATM   17  C2  UNL     1     -22.720 -10.434  55.970  1.00  0.00     0.055 C
HETATM   18  C1  UNL     1     -22.597  -9.070  56.657  1.00  0.00     0.011 C
ENDBRANCH   1  17
BRANCH   5  19
HETATM   19  C6  UNL     1     -24.704  -9.947  50.755  1.00  0.00     0.146 C
BRANCH  19  20
HETATM   20  C7  UNL     1     -24.775  -8.502  50.291  1.00  0.00     0.106 C
HETATM   21  S1  UNL     1     -26.469  -8.070  49.808  1.00  0.00    -0.096 SA
ENDBRANCH  19  20
ENDBRANCH   5  19
BRANCH   4  22
HETATM   22  N1  UNL     1     -22.029 -10.089  51.295  1.00  0.00    -0.384 N
ATOM     23  H12 UNL     1     -21.531 -10.924  50.987  1.00  0.00     0.157 HD
ATOM     24  H11 UNL     1     -21.866  -9.203  50.818  1.00  0.00     0.157 HD
ENDBRANCH   4  22
TORSDOF 5
ENDMDL