MODEL 2
REMARK VINA RESULT: -7.775492836      1.500      1.959
REMARK  6 active torsions:
REMARK  status: ('A' for Active; 'I' for Inactive)
REMARK    1  A    between atoms: C2_4  and  C3_5
REMARK    2  A    between atoms: C3_5  and  C4_6
REMARK    3  A    between atoms: C4_6  and  O3_7
REMARK    4  A    between atoms: C9_15  and  N1_16
REMARK    5  A    between atoms: N1_16  and  C10_18
REMARK    6  A    between atoms: C10_18  and  C11_19
ROOT
HETATM    1  O1  UNL     1     -27.253  -8.846  56.576  1.00  0.00    -0.262 OA
HETATM    2  C1  UNL     1     -27.675  -9.901  56.053  1.00  0.00     0.287 C
HETATM    3  O2  UNL     1     -28.946 -10.443  56.344  1.00  0.00    -0.308 OA
HETATM    4  C2  UNL     1     -29.259 -11.607  55.547  1.00  0.00     0.078 C
HETATM    5  C7  UNL     1     -28.196 -12.665  55.879  1.00  0.00     0.042 C
HETATM    6  C8  UNL     1     -26.838 -12.188  55.512  1.00  0.00     0.044 C
HETATM    7  C9  UNL     1     -26.914 -10.708  55.084  1.00  0.00     0.115 C
HETATM    8  C17 UNL     1     -27.749 -10.690  53.812  1.00  0.00     0.044 C
HETATM    9  C18 UNL     1     -29.132 -11.237  54.121  1.00  0.00     0.042 C
ENDROOT
BRANCH   7  10
HETATM   10  N1  UNL     1     -25.599 -10.232  54.928  1.00  0.00    -0.401 N
ATOM     11  H1  UNL     1     -25.410  -9.231  54.986  1.00  0.00     0.154 HD
BRANCH  10  12
HETATM   12  C10 UNL     1     -24.543 -11.136  54.693  1.00  0.00     0.154 C
BRANCH  12  13
HETATM   13  C11 UNL     1     -23.779 -10.519  53.534  1.00  0.00    -0.041 A
HETATM   14  C12 UNL     1     -22.448 -10.820  53.332  1.00  0.00     0.012 A
HETATM   15  C13 UNL     1     -21.720 -10.327  52.279  1.00  0.00     0.043 A
HETATM   16  C14 UNL     1     -22.330  -9.490  51.374  1.00  0.00     0.116 A
HETATM   17  F1  UNL     1     -21.626  -8.983  50.323  1.00  0.00    -0.206 F
HETATM   18  C15 UNL     1     -23.666  -9.174  51.563  1.00  0.00     0.043 A
HETATM   19  C16 UNL     1     -24.397  -9.680  52.635  1.00  0.00     0.012 A
ENDBRANCH  12  13
ENDBRANCH  10  12
ENDBRANCH   7  10
BRANCH   4  20
HETATM   20  C3  UNL     1     -30.550 -12.176  56.005  1.00  0.00     0.140 C
BRANCH  20  21
HETATM   21  C4  UNL     1     -31.750 -11.297  55.882  1.00  0.00     0.282 C
HETATM   22  O4  UNL     1     -32.017 -11.058  54.556  1.00  0.00    -0.331 OA
HETATM   23  C5  UNL     1     -32.853 -12.139  54.189  1.00  0.00     0.200 C
HETATM   24  C6  UNL     1     -33.794 -12.113  55.403  1.00  0.00     0.200 C
HETATM   25  O5  UNL     1     -32.879 -11.973  56.417  1.00  0.00    -0.331 OA
BRANCH  21  26
HETATM   26  O3  UNL     1     -31.600 -10.097  56.554  1.00  0.00    -0.343 OA
ATOM     27  H3  UNL     1     -31.297 -10.215  57.447  1.00  0.00     0.215 HD
ENDBRANCH  21  26
ENDBRANCH  20  21
ENDBRANCH   4  20
TORSDOF 6
ENDMDL