MODEL 5
REMARK VINA RESULT: -6.469286707      2.292      3.128
REMARK  6 active torsions:
REMARK  status: ('A' for Active; 'I' for Inactive)
REMARK    1  A    between atoms: C2_2  and  C3_3
REMARK    2  A    between atoms: C3_3  and  O2_5
REMARK    3  A    between atoms: O2_5  and  C4_6
REMARK    4  A    between atoms: C4_6  and  C5_7
REMARK    5  A    between atoms: C6_8  and  C7_9
REMARK    6  A    between atoms: N1_12  and  O3_14
ROOT
HETATM    1  C7  UNL     1     -27.531 -10.123  55.796  1.00  0.00     0.201 C
HETATM    2  C8  UNL     1     -27.540  -8.747  56.424  1.00  0.00     0.104 C
HETATM    3  C9  UNL     1     -26.317  -8.703  57.249  1.00  0.00     0.041 C
HETATM    4  N1  UNL     1     -25.665  -7.678  57.688  1.00  0.00    -0.276 N
ATOM      5  H1  UNL     1     -25.999  -6.741  57.461  1.00  0.00     0.193 HD
HETATM    6  C10 UNL     1     -25.945 -10.113  57.503  1.00  0.00     0.328 C
HETATM    7  N2  UNL     1     -26.550 -10.908  56.468  1.00  0.00     0.114 N
HETATM    8  C11 UNL     1     -27.172 -12.051  57.054  1.00  0.00     0.327 C
HETATM    9  C12 UNL     1     -28.584 -11.612  57.241  1.00  0.00     0.026 C
HETATM   10  N3  UNL     1     -29.359 -11.873  58.220  1.00  0.00    -0.403 N
ATOM     11  H31 UNL     1     -30.325 -11.573  58.349  1.00  0.00     0.155 HD
ATOM     12  H32 UNL     1     -29.157 -12.427  59.054  1.00  0.00     0.155 HD
HETATM   13  C13 UNL     1     -28.882 -10.793  56.008  1.00  0.00     0.147 C
HETATM   14 BR1  UNL     1     -29.225 -12.022  54.549  1.00  0.00    -0.082 Br
ENDROOT
BRANCH   1  15
HETATM   15  C6  UNL     1     -27.322 -10.024  54.338  1.00  0.00     0.014 C
HETATM   16  C5  UNL     1     -26.101 -10.096  53.845  1.00  0.00    -0.002 C
BRANCH  16  17
HETATM   17  C4  UNL     1     -25.809 -10.006  52.384  1.00  0.00     0.206 C
BRANCH  17  18
HETATM   18  O2  UNL     1     -26.332  -8.787  51.894  1.00  0.00    -0.318 OA
BRANCH  18  19
HETATM   19  C3  UNL     1     -27.267  -8.837  50.846  1.00  0.00     0.258 C
HETATM   20  O1  UNL     1     -28.286  -9.564  50.986  1.00  0.00    -0.265 OA
BRANCH  19  21
HETATM   21  C2  UNL     1     -27.029  -8.042  49.624  1.00  0.00     0.106 C
HETATM   22  C1  UNL     1     -28.345  -7.853  48.917  1.00  0.00     0.015 C
ENDBRANCH  19  21
ENDBRANCH  18  19
ENDBRANCH  17  18
ENDBRANCH  16  17
ENDBRANCH   1  15
BRANCH   4  23
HETATM   23  O3  UNL     1     -24.548  -7.815  58.442  1.00  0.00    -0.290 OA
ATOM     24  H3  UNL     1     -23.849  -7.172  58.421  1.00  0.00     0.244 HD
ENDBRANCH   4  23
TORSDOF 6
ENDMDL