MODEL 4
REMARK VINA RESULT: -6.025764948      2.599      4.709
REMARK  6 active torsions:
REMARK  status: ('A' for Active; 'I' for Inactive)
REMARK    1  A    between atoms: C2_2  and  C3_4
REMARK    2  A    between atoms: N1_6  and  C5_7
REMARK    3  A    between atoms: C7_10  and  O2_11
REMARK    4  A    between atoms: N2_13  and  C8_14
REMARK    5  A    between atoms: C8_14  and  N3_15
REMARK    6  A    between atoms: C13_20  and  O3_21
ROOT
HETATM    1  C5  UNL     1     -25.565  -9.398  51.946  1.00  0.00     0.105 A
HETATM    2  C6  UNL     1     -24.256  -9.646  52.301  1.00  0.00     0.093 A
HETATM    3 BR1  UNL     1     -22.687  -9.127  51.316  1.00  0.00    -0.044 Br
HETATM    4  C7  UNL     1     -24.303 -10.340  53.499  1.00  0.00     0.169 A
HETATM    5  N2  UNL     1     -25.562 -10.530  53.897  1.00  0.00    -0.270 N
HETATM    6  C13 UNL     1     -26.341  -9.950  52.941  1.00  0.00     0.178 A
ENDROOT
BRANCH   1   7
HETATM    7  N1  UNL     1     -26.030  -8.707  50.780  1.00  0.00    -0.360 N
HETATM    8  C3  UNL     1     -26.919  -7.836  50.046  1.00  0.00     0.171 A
HETATM    9  C4  UNL     1     -25.728  -8.491  49.341  1.00  0.00     0.157 A
BRANCH   8  10
HETATM   10  C2  UNL     1     -28.220  -8.333  49.561  1.00  0.00     0.147 C
HETATM   11  C1  UNL     1     -28.919  -7.592  48.485  1.00  0.00     0.093 C
HETATM   12  O1  UNL     1     -28.741  -9.332  50.012  1.00  0.00    -0.296 OA
ENDBRANCH   8  10
ENDBRANCH   1   7
BRANCH   6  13
HETATM   13  O3  UNL     1     -27.733  -9.899  52.933  1.00  0.00    -0.344 OA
ATOM     14  H3  UNL     1     -28.244  -9.574  53.665  1.00  0.00     0.219 HD
ENDBRANCH   6  13
BRANCH   4  15
HETATM   15  O2  UNL     1     -23.136 -10.745  54.137  1.00  0.00    -0.345 OA
ATOM     16  H2  UNL     1     -23.016 -10.604  55.068  1.00  0.00     0.219 HD
ENDBRANCH   4  15
BRANCH   5  17
HETATM   17  C8  UNL     1     -26.065 -11.209  55.064  1.00  0.00     0.163 C
BRANCH  17  18
HETATM   18  N3  UNL     1     -25.635 -10.686  56.314  1.00  0.00    -0.279 NA
HETATM   19  C9  UNL     1     -26.408 -11.297  57.414  1.00  0.00     0.096 C
HETATM   20  C10 UNL     1     -27.788 -10.724  57.207  1.00  0.00     0.016 C
HETATM   21  C11 UNL     1     -27.488  -9.331  56.696  1.00  0.00     0.016 C
HETATM   22  C12 UNL     1     -25.969  -9.301  56.525  1.00  0.00     0.096 C
ENDBRANCH  17  18
ENDBRANCH   5  17
TORSDOF 6
ENDMDL