MODEL 4
REMARK VINA RESULT: -7.280227413      3.909      6.023
REMARK  5 active torsions:
REMARK  status: ('A' for Active; 'I' for Inactive)
REMARK    1  A    between atoms: O1_2  and  C2_3
REMARK    2  A    between atoms: N1_6  and  C5_7
REMARK    3  A    between atoms: C7_10  and  N2_11
REMARK    4  A    between atoms: C10_14  and  C11_15
REMARK    5  A    between atoms: C11_15  and  N3_16
ROOT
HETATM    1  C5  UNL     1     -27.991 -10.149  56.312  1.00  0.00     0.094 A
HETATM    2  C6  UNL     1     -27.109  -9.838  55.283  1.00  0.00     0.171 A
HETATM    3  F1  UNL     1     -25.971  -9.204  55.652  1.00  0.00    -0.201 F
HETATM    4  C7  UNL     1     -27.376 -10.154  53.964  1.00  0.00     0.073 A
HETATM    5  C14 UNL     1     -28.579 -10.806  53.693  1.00  0.00     0.060 A
HETATM    6  C15 UNL     1     -29.479 -11.132  54.688  1.00  0.00     0.071 A
HETATM    7  N4  UNL     1     -30.709 -11.803  54.383  1.00  0.00    -0.101 NA
HETATM    8  C16 UNL     1     -29.170 -10.796  55.992  1.00  0.00     0.098 A
HETATM    9  C17 UNL     1     -30.100 -11.128  57.055  1.00  0.00     0.104 C
HETATM   10  N5  UNL     1     -30.829 -11.373  57.905  1.00  0.00    -0.191 NA
ENDROOT
BRANCH   1  11
HETATM   11  N1  UNL     1     -27.709  -9.820  57.668  1.00  0.00    -0.374 N
HETATM   12  C4  UNL     1     -28.109  -8.595  58.370  1.00  0.00     0.126 C
HETATM   13  C3  UNL     1     -26.982  -8.245  59.290  1.00  0.00     0.053 C
HETATM   14  C2  UNL     1     -26.162  -9.515  59.373  1.00  0.00     0.140 C
HETATM   15  C18 UNL     1     -26.980 -10.585  58.665  1.00  0.00     0.155 C
BRANCH  14  16
HETATM   16  O1  UNL     1     -25.972  -9.807  60.708  1.00  0.00    -0.389 OA
HETATM   17  C1  UNL     1     -26.740 -10.906  61.054  1.00  0.00     0.202 C
ENDBRANCH  14  16
ENDBRANCH   1  11
BRANCH   4  18
HETATM   18  N2  UNL     1     -26.457  -9.826  52.927  1.00  0.00    -0.378 N
HETATM   19  C8  UNL     1     -25.128 -10.391  53.004  1.00  0.00     0.123 C
HETATM   20  C9  UNL     1     -24.449 -10.344  51.653  1.00  0.00     0.026 C
HETATM   21  C10 UNL     1     -24.479  -8.870  51.231  1.00  0.00     0.014 C
HETATM   22  C12 UNL     1     -25.888  -8.505  50.914  1.00  0.00     0.026 C
HETATM   23  C13 UNL     1     -26.915  -8.965  51.885  1.00  0.00     0.123 C
BRANCH  21  24
HETATM   24  C11 UNL     1     -23.607  -8.771  50.000  1.00  0.00     0.234 C
BRANCH  24  25
HETATM   25  N3  UNL     1     -22.249  -9.141  50.252  1.00  0.00    -0.079 N
ATOM     26  H33 UNL     1     -21.721  -8.356  50.635  1.00  0.00     0.274 HD
ATOM     27  H32 UNL     1     -22.186  -9.784  51.042  1.00  0.00     0.274 HD
ATOM     28  H31 UNL     1     -21.785  -9.526  49.430  1.00  0.00     0.274 HD
ENDBRANCH  24  25
ENDBRANCH  21  24
ENDBRANCH   4  18
TORSDOF 5
ENDMDL