MODEL 1
REMARK VINA RESULT: -8.629243323      0.000      0.000
REMARK  6 active torsions:
REMARK  status: ('A' for Active; 'I' for Inactive)
REMARK    1  A    between atoms: C2_2  and  C4_4
REMARK    2  A    between atoms: C6_6  and  C7_7
REMARK    3  A    between atoms: C14_14  and  C15_15
REMARK    4  A    between atoms: C15_15  and  O1_16
REMARK    5  A    between atoms: C15_15  and  C16_18
REMARK    6  A    between atoms: C16_18  and  C17_19
ROOT
HETATM    1  C4  UNL     1     -41.822  26.427   0.847  1.00  0.00    -0.003 A
HETATM    2  C5  UNL     1     -43.190  26.286   1.149  1.00  0.00     0.022 A
HETATM    3  C6  UNL     1     -43.868  25.112   1.093  1.00  0.00    -0.049 A
HETATM    4  C11 UNL     1     -43.147  23.996   0.715  1.00  0.00     0.021 A
HETATM    5  C12 UNL     1     -41.809  24.052   0.405  1.00  0.00    -0.006 A
HETATM    6  C13 UNL     1     -40.865  23.115   0.015  1.00  0.00     0.041 A
HETATM    7  C14 UNL     1     -39.666  23.731  -0.151  1.00  0.00     0.040 A
HETATM    8  N1  UNL     1     -39.876  25.055   0.139  1.00  0.00    -0.356 N
ATOM      9  H1  UNL     1     -39.152  25.772   0.103  1.00  0.00     0.166 HD
HETATM   10  C18 UNL     1     -41.144  25.287   0.474  1.00  0.00     0.053 A
ENDROOT
BRANCH   7  11
HETATM   11  C15 UNL     1     -38.392  23.125  -0.545  1.00  0.00     0.176 C
BRANCH  11  12
HETATM   12  O1  UNL     1     -37.551  23.198   0.629  1.00  0.00    -0.389 OA
ATOM     13  H1  UNL     1     -36.666  23.304   0.299  1.00  0.00     0.210 HD
ENDBRANCH  11  12
BRANCH  11  14
HETATM   14  C16 UNL     1     -38.444  21.703  -0.993  1.00  0.00     0.155 C
BRANCH  14  15
HETATM   15  C17 UNL     1     -37.170  20.966  -1.115  1.00  0.00     0.390 C
HETATM   16  F1  UNL     1     -36.252  21.695  -1.877  1.00  0.00    -0.171 F
HETATM   17  F2  UNL     1     -36.600  20.458  -0.007  1.00  0.00    -0.171 F
HETATM   18  F3  UNL     1     -37.452  19.850  -1.940  1.00  0.00    -0.171 F
ENDBRANCH  14  15
ENDBRANCH  11  14
ENDBRANCH   7  11
BRANCH   1  19
HETATM   19  C2  UNL     1     -41.208  27.735   0.960  1.00  0.00    -0.059 C
HETATM   20  C1  UNL     1     -40.957  28.284   2.157  1.00  0.00     0.019 C
HETATM   21  C3  UNL     1     -40.872  28.568  -0.211  1.00  0.00     0.048 C
ENDBRANCH   1  19
BRANCH   3  22
HETATM   22  C7  UNL     1     -45.292  24.944   1.403  1.00  0.00    -0.024 C
HETATM   23  C8  UNL     1     -45.936  26.212   1.906  1.00  0.00     0.019 C
HETATM   24  C9  UNL     1     -45.980  24.408   0.178  1.00  0.00     0.019 C
HETATM   25  C10 UNL     1     -45.413  23.873   2.485  1.00  0.00     0.019 C
ENDBRANCH   3  22
TORSDOF 6
ENDMDL