MODEL 4
REMARK VINA RESULT: -7.697949981      0.902      1.253
REMARK  3 active torsions:
REMARK  status: ('A' for Active; 'I' for Inactive)
REMARK    1  A    between atoms: C5_7  and  N2_8
REMARK    2  A    between atoms: N2_8  and  C6_10
REMARK    3  A    between atoms: C14_18  and  C15_19
ROOT
HETATM    1  C1  UNL     1     -43.969  22.581   1.513  1.00  0.00     0.050 C
HETATM    2  C2  UNL     1     -43.290  23.900   1.319  1.00  0.00    -0.034 A
HETATM    3  C3  UNL     1     -43.746  25.171   1.508  1.00  0.00     0.096 A
HETATM    4  N1  UNL     1     -42.766  26.042   1.194  1.00  0.00    -0.363 N
ATOM      5  H1  UNL     1     -42.848  27.058   1.247  1.00  0.00     0.165 HD
HETATM    6  C4  UNL     1     -41.665  25.378   0.800  1.00  0.00     0.069 A
HETATM    7  C5  UNL     1     -40.422  25.841   0.391  1.00  0.00     0.057 A
HETATM    8  C13 UNL     1     -39.496  24.901   0.057  1.00  0.00     0.047 A
HETATM    9  C14 UNL     1     -39.750  23.546   0.110  1.00  0.00     0.051 A
HETATM   10  C16 UNL     1     -41.008  23.117   0.525  1.00  0.00     0.030 A
HETATM   11  C17 UNL     1     -41.981  24.038   0.875  1.00  0.00     0.001 A
ENDROOT
BRANCH   7  12
HETATM   12  N2  UNL     1     -40.188  27.243   0.323  1.00  0.00    -0.383 N
ATOM     13  H2  UNL     1     -40.614  27.744  -0.457  1.00  0.00     0.160 HD
BRANCH  12  14
HETATM   14  C6  UNL     1     -39.418  28.012   1.239  1.00  0.00     0.086 C
HETATM   15  C7  UNL     1     -40.219  28.984   2.086  1.00  0.00     0.030 C
HETATM   16  C8  UNL     1     -39.544  30.334   1.950  1.00  0.00    -0.012 C
HETATM   17  C9  UNL     1     -39.925  30.916   0.624  1.00  0.00     0.005 C
HETATM   18  C12 UNL     1     -38.103  29.886   1.639  1.00  0.00     0.011 C
HETATM   19  C10 UNL     1     -39.318  29.884  -0.343  1.00  0.00     0.007 C
HETATM   20  C11 UNL     1     -38.507  28.945   0.485  1.00  0.00     0.009 C
ENDBRANCH  12  14
ENDBRANCH   7  12
BRANCH   9  21
HETATM   21  C15 UNL     1     -38.749  22.524  -0.251  1.00  0.00     0.417 C
HETATM   22  F1  UNL     1     -37.776  23.131  -1.040  1.00  0.00    -0.166 F
HETATM   23  F2  UNL     1     -39.330  21.544  -1.041  1.00  0.00    -0.166 F
HETATM   24  F3  UNL     1     -38.092  22.011   0.850  1.00  0.00    -0.166 F
ENDBRANCH   9  21
TORSDOF 3
ENDMDL