MODEL 1
REMARK VINA RESULT: -7.450476636      0.000      0.000
REMARK  4 active torsions:
REMARK  status: ('A' for Active; 'I' for Inactive)
REMARK    1  A    between atoms: C3_3  and  C4_4
REMARK    2  A    between atoms: C5_10  and  C6_11
REMARK    3  A    between atoms: C6_11  and  C8_13
REMARK    4  A    between atoms: C17_22  and  N2_23
ROOT
HETATM    1  C1  UNL     1     -41.913  22.404   0.951  1.00  0.00     0.053 C
HETATM    2  C2  UNL     1     -41.576  23.813   0.822  1.00  0.00    -0.004 A
HETATM    3  C3  UNL     1     -40.333  24.194   0.388  1.00  0.00     0.125 A
HETATM    4  N1  UNL     1     -40.005  25.507   0.271  1.00  0.00    -0.355 N
ATOM      5  H1  UNL     1     -39.067  25.739  -0.054  1.00  0.00     0.166 HD
HETATM    6  C5  UNL     1     -40.844  26.521   0.559  1.00  0.00     0.016 A
HETATM    7  C16 UNL     1     -42.097  26.140   0.996  1.00  0.00     0.055 A
HETATM    8  C17 UNL     1     -42.492  24.829   1.137  1.00  0.00     0.035 A
ENDROOT
BRANCH   6   9
HETATM    9  C6  UNL     1     -40.497  27.932   0.405  1.00  0.00     0.036 C
HETATM   10  C7  UNL     1     -41.609  28.774   0.981  1.00  0.00     0.017 C
BRANCH   9  11
HETATM   11  C8  UNL     1     -39.163  28.376   0.923  1.00  0.00    -0.005 C
HETATM   12  C9  UNL     1     -39.194  29.049   2.268  1.00  0.00     0.005 C
HETATM   13  C10 UNL     1     -37.841  29.120   2.915  1.00  0.00     0.000 C
HETATM   14  C11 UNL     1     -36.940  30.204   2.550  1.00  0.00     0.000 C
HETATM   15  C12 UNL     1     -37.371  31.219   1.561  1.00  0.00     0.000 C
HETATM   16  C13 UNL     1     -36.792  30.861   0.182  1.00  0.00     0.000 C
HETATM   17  C14 UNL     1     -37.144  29.417  -0.153  1.00  0.00     0.000 C
HETATM   18  C15 UNL     1     -38.636  29.340  -0.158  1.00  0.00     0.005 C
ENDBRANCH   9  11
ENDBRANCH   6   9
BRANCH   3  19
HETATM   19  C4  UNL     1     -39.322  23.213   0.027  1.00  0.00     0.433 C
HETATM   20  F1  UNL     1     -38.287  23.852  -0.661  1.00  0.00    -0.165 F
HETATM   21  F2  UNL     1     -38.801  22.444   0.995  1.00  0.00    -0.165 F
HETATM   22  F3  UNL     1     -39.846  22.322  -0.939  1.00  0.00    -0.165 F
ENDBRANCH   3  19
BRANCH   8  23
HETATM   23  N2  UNL     1     -43.652  24.510   1.545  1.00  0.00    -0.399 N
ATOM     24  H22 UNL     1     -44.262  23.884   1.018  1.00  0.00     0.156 HD
ATOM     25  H21 UNL     1     -43.990  24.892   2.429  1.00  0.00     0.156 HD
ENDBRANCH   8  23
TORSDOF 4
ENDMDL