MODEL 2
REMARK VINA RESULT: -8.332478271      0.925      2.062
REMARK  3 active torsions:
REMARK  status: ('A' for Active; 'I' for Inactive)
REMARK    1  A    between atoms: C3_4  and  C4_5
REMARK    2  A    between atoms: C7_8  and  C8_9
REMARK    3  A    between atoms: C16_21  and  C17_22
ROOT
HETATM    1  N1  UNL     1     -33.945  21.999  -2.620  1.00  0.00    -0.191 NA
HETATM    2  C1  UNL     1     -34.339  21.318  -1.775  1.00  0.00     0.102 C
HETATM    3  C2  UNL     1     -34.795  20.460  -0.731  1.00  0.00     0.090 A
HETATM    4  C3  UNL     1     -35.999  20.498  -0.098  1.00  0.00     0.029 A
HETATM    5  C15 UNL     1     -35.933  19.450   0.830  1.00  0.00     0.103 A
HETATM    6  N3  UNL     1     -34.749  18.825   0.747  1.00  0.00    -0.360 N
ATOM      7  H3  UNL     1     -34.454  18.031   1.316  1.00  0.00     0.165 HD
HETATM    8  C16 UNL     1     -34.024  19.414  -0.197  1.00  0.00     0.138 A
ENDROOT
BRANCH   4   9
HETATM    9  C4  UNL     1     -37.136  21.387  -0.286  1.00  0.00     0.045 A
HETATM   10  C5  UNL     1     -37.579  22.010  -1.408  1.00  0.00     0.032 A
HETATM   11  C6  UNL     1     -38.692  22.737  -1.046  1.00  0.00     0.027 A
HETATM   12  C7  UNL     1     -38.941  22.567   0.301  1.00  0.00     0.013 A
HETATM   13  N2  UNL     1     -37.981  21.745   0.731  1.00  0.00    -0.358 N
ATOM     14  H2  UNL     1     -37.889  21.424   1.694  1.00  0.00     0.166 HD
BRANCH  12  15
HETATM   15  C8  UNL     1     -40.054  23.186   1.086  1.00  0.00     0.035 C
HETATM   16  C9  UNL     1     -40.166  24.659   0.898  1.00  0.00     0.011 C
HETATM   17  C10 UNL     1     -40.747  25.121  -0.390  1.00  0.00     0.001 C
HETATM   18  C11 UNL     1     -42.021  24.470  -0.805  1.00  0.00     0.000 C
HETATM   19  C12 UNL     1     -42.981  24.244   0.321  1.00  0.00     0.000 C
HETATM   20  C13 UNL     1     -42.494  23.274   1.347  1.00  0.00     0.001 C
HETATM   21  C14 UNL     1     -41.341  22.433   0.878  1.00  0.00     0.011 C
ENDBRANCH  12  15
ENDBRANCH   4   9
BRANCH   8  22
HETATM   22  C17 UNL     1     -32.637  19.051  -0.632  1.00  0.00     0.434 C
HETATM   23  F1  UNL     1     -31.914  20.181  -0.929  1.00  0.00    -0.165 F
HETATM   24  F2  UNL     1     -32.786  18.297  -1.792  1.00  0.00    -0.165 F
HETATM   25  F3  UNL     1     -32.069  18.292   0.368  1.00  0.00    -0.165 F
ENDBRANCH   8  22
TORSDOF 3
ENDMDL