MODEL 2
REMARK VINA RESULT: -7.135268958      2.470      6.482
REMARK  3 active torsions:
REMARK  status: ('A' for Active; 'I' for Inactive)
REMARK    1  A    between atoms: C2_2  and  C4_4
REMARK    2  A    between atoms: C7_7  and  C8_8
REMARK    3  A    between atoms: C15_20  and  C16_21
ROOT
HETATM    1  C4  UNL     1     -43.870  23.576   1.125  1.00  0.00    -0.054 A
HETATM    2  C5  UNL     1     -43.180  22.388   1.204  1.00  0.00     0.008 A
HETATM    3  C6  UNL     1     -41.806  22.400   0.976  1.00  0.00     0.011 A
HETATM    4  C7  UNL     1     -41.133  23.554   0.686  1.00  0.00    -0.013 A
HETATM    5  C15 UNL     1     -41.803  24.782   0.602  1.00  0.00     0.056 A
HETATM    6  C17 UNL     1     -43.155  24.757   0.827  1.00  0.00     0.024 A
ENDROOT
BRANCH   4   7
HETATM    7  C8  UNL     1     -39.647  23.610   0.613  1.00  0.00     0.223 C
HETATM    8  C9  UNL     1     -39.012  23.609  -0.708  1.00  0.00     0.078 C
HETATM    9  C10 UNL     1     -38.331  22.330  -0.316  1.00  0.00     0.144 C
HETATM   10  C11 UNL     1     -38.366  21.476  -1.598  1.00  0.00     0.042 C
HETATM   11  C14 UNL     1     -36.928  22.455   0.226  1.00  0.00     0.152 C
HETATM   12  N2  UNL     1     -39.271  22.125   0.684  1.00  0.00    -0.056 N
HETATM   13  C12 UNL     1     -37.716  20.176  -1.536  1.00  0.00     0.022 C
HETATM   14  C13 UNL     1     -36.822  20.079  -0.305  1.00  0.00     0.114 C
HETATM   15  N1  UNL     1     -36.144  21.325  -0.148  1.00  0.00    -0.419 N
ATOM     16  H1  UNL     1     -35.138  21.404  -0.298  1.00  0.00     0.153 HD
ATOM     17  H22 UNL     1     -38.994  21.707   1.572  1.00  0.00     0.279 HD
ATOM     18  H21 UNL     1     -39.988  21.408   0.577  1.00  0.00     0.279 HD
ENDBRANCH   4   7
BRANCH   5  19
HETATM   19  C16 UNL     1     -41.059  25.985   0.209  1.00  0.00     0.418 C
HETATM   20  F1  UNL     1     -40.973  26.080  -1.195  1.00  0.00    -0.166 F
HETATM   21  F2  UNL     1     -41.950  27.055   0.496  1.00  0.00    -0.166 F
HETATM   22  F3  UNL     1     -39.926  26.278   0.863  1.00  0.00    -0.166 F
ENDBRANCH   5  19
BRANCH   1  23
HETATM   23  C2  UNL     1     -45.331  23.706   1.293  1.00  0.00     0.010 C
HETATM   24  C1  UNL     1     -45.572  23.904   2.813  1.00  0.00     0.015 C
HETATM   25  C3  UNL     1     -45.899  24.891   0.594  1.00  0.00     0.015 C
ENDBRANCH   1  23
TORSDOF 3
ENDMDL