MODEL 3
REMARK VINA RESULT: -6.742001401      4.375      6.360
REMARK  4 active torsions:
REMARK  status: ('A' for Active; 'I' for Inactive)
REMARK    1  A    between atoms: C2_2  and  C4_4
REMARK    2  A    between atoms: C6_6  and  C7_7
REMARK    3  A    between atoms: C11_16  and  C12_17
REMARK    4  A    between atoms: C15_20  and  O1_21
ROOT
HETATM    1  C4  UNL     1     -42.817  25.892   1.375  1.00  0.00    -0.041 A
HETATM    2  C5  UNL     1     -44.037  26.524   1.522  1.00  0.00     0.024 A
HETATM    3  C6  UNL     1     -45.212  25.824   1.657  1.00  0.00     0.050 A
HETATM    4  C8  UNL     1     -45.216  24.429   1.644  1.00  0.00     0.046 A
HETATM    5  C9  UNL     1     -44.024  23.800   1.493  1.00  0.00     0.044 A
HETATM    6  N1  UNL     1     -43.733  22.501   1.337  1.00  0.00    -0.365 N
ATOM      7  H1  UNL     1     -44.415  21.743   1.382  1.00  0.00     0.165 HD
HETATM    8  C10 UNL     1     -42.439  22.340   1.118  1.00  0.00     0.096 A
HETATM    9  C11 UNL     1     -41.823  23.607   1.127  1.00  0.00    -0.025 A
HETATM   10  C17 UNL     1     -42.833  24.509   1.363  1.00  0.00     0.005 A
ENDROOT
BRANCH   9  11
HETATM   11  C12 UNL     1     -40.387  23.728   1.006  1.00  0.00     0.023 C
HETATM   12  C13 UNL     1     -39.920  24.077  -0.453  1.00  0.00     0.012 C
HETATM   13  C14 UNL     1     -38.451  23.636  -0.334  1.00  0.00     0.032 C
HETATM   14  C15 UNL     1     -38.493  22.359   0.531  1.00  0.00     0.118 C
HETATM   15  C16 UNL     1     -39.959  22.217   0.824  1.00  0.00     0.041 C
BRANCH  14  16
HETATM   16  O1  UNL     1     -37.924  21.321  -0.175  1.00  0.00    -0.396 OA
ATOM     17  H1  UNL     1     -37.107  21.076   0.242  1.00  0.00     0.210 HD
ENDBRANCH  14  16
ENDBRANCH   9  11
BRANCH   1  18
HETATM   18  C2  UNL     1     -41.532  26.603   1.391  1.00  0.00     0.011 C
HETATM   19  C1  UNL     1     -41.327  27.431   0.119  1.00  0.00     0.015 C
HETATM   20  C3  UNL     1     -41.844  27.873   2.343  1.00  0.00     0.015 C
ENDBRANCH   1  18
BRANCH   3  21
HETATM   21  C7  UNL     1     -46.569  26.479   1.787  1.00  0.00     0.417 C
HETATM   22  F1  UNL     1     -47.456  25.720   2.486  1.00  0.00    -0.166 F
HETATM   23  F2  UNL     1     -47.031  26.655   0.469  1.00  0.00    -0.166 F
HETATM   24  F3  UNL     1     -46.505  27.734   2.317  1.00  0.00    -0.166 F
ENDBRANCH   3  21
TORSDOF 4
ENDMDL