MODEL 2
REMARK VINA RESULT: -7.319422612      0.743      1.211
REMARK  3 active torsions:
REMARK  status: ('A' for Active; 'I' for Inactive)
REMARK    1  A    between atoms: C1_2  and  C2_5
REMARK    2  A    between atoms: C3_9  and  C4_10
REMARK    3  A    between atoms: C4_10  and  C5_11
ROOT
HETATM    1  C2  UNL     1     -43.628  24.525   1.653  1.00  0.00     0.343 C
HETATM    2  N1  UNL     1     -43.661  25.398   0.497  1.00  0.00    -0.048 N
ATOM      3  H11 UNL     1     -44.399  26.102   0.510  1.00  0.00     0.279 HD
ATOM      4  H12 UNL     1     -43.964  24.955  -0.370  1.00  0.00     0.279 HD
HETATM    5  C3  UNL     1     -42.259  25.947   0.474  1.00  0.00     0.223 C
HETATM    6  C11 UNL     1     -41.510  24.720   0.661  1.00  0.00     0.010 A
HETATM    7  C12 UNL     1     -42.301  23.852   1.406  1.00  0.00     0.059 A
HETATM    8  N2  UNL     1     -41.589  22.733   1.571  1.00  0.00    -0.356 N
ATOM      9  H2  UNL     1     -41.913  21.912   2.083  1.00  0.00     0.166 HD
HETATM   10  C13 UNL     1     -40.395  22.832   0.976  1.00  0.00     0.043 A
HETATM   11  C14 UNL     1     -39.326  21.967   0.840  1.00  0.00     0.030 A
HETATM   12  C15 UNL     1     -38.177  22.279   0.149  1.00  0.00     0.002 A
HETATM   13  C16 UNL     1     -38.078  23.533  -0.453  1.00  0.00     0.001 A
HETATM   14  C17 UNL     1     -39.145  24.391  -0.316  1.00  0.00     0.014 A
HETATM   15  C18 UNL     1     -40.296  24.070   0.383  1.00  0.00     0.001 A
ENDROOT
BRANCH   5  16
HETATM   16  C4  UNL     1     -42.273  27.013   1.479  1.00  0.00     0.042 C
BRANCH  16  17
HETATM   17  C5  UNL     1     -41.039  27.755   1.848  1.00  0.00    -0.012 C
HETATM   18  C6  UNL     1     -40.367  28.109   0.506  1.00  0.00     0.005 C
HETATM   19  C7  UNL     1     -41.018  29.356  -0.023  1.00  0.00     0.000 C
HETATM   20  C8  UNL     1     -40.415  30.518   0.778  1.00  0.00     0.000 C
HETATM   21  C9  UNL     1     -40.404  30.154   2.222  1.00  0.00     0.000 C
HETATM   22  C10 UNL     1     -41.372  29.036   2.572  1.00  0.00     0.005 C
ENDBRANCH  16  17
ENDBRANCH   5  16
BRANCH   1  23
HETATM   23  C1  UNL     1     -44.747  23.476   1.547  1.00  0.00     0.421 C
HETATM   24  F1  UNL     1     -44.250  22.212   1.547  1.00  0.00    -0.168 F
HETATM   25  F2  UNL     1     -45.568  23.722   2.654  1.00  0.00    -0.168 F
HETATM   26  F3  UNL     1     -45.462  23.785   0.405  1.00  0.00    -0.168 F
ENDBRANCH   1  23
TORSDOF 3
ENDMDL