MODEL 2
REMARK VINA RESULT: -6.443163309      1.308      1.934
REMARK  4 active torsions:
REMARK  status: ('A' for Active; 'I' for Inactive)
REMARK    1  A    between atoms: C3_5  and  C4_6
REMARK    2  A    between atoms: C10_12  and  C11_13
REMARK    3  A    between atoms: C11_13  and  C14_16
REMARK    4  A    between atoms: C15_20  and  C16_21
ROOT
HETATM    1  C1  UNL     1     -42.132  28.679   3.198  1.00  0.00     0.069 C
HETATM    2  C2  UNL     1     -42.711  27.499   2.519  1.00  0.00     0.023 A
HETATM    3  N1  UNL     1     -42.071  26.540   1.897  1.00  0.00    -0.361 N
ATOM      4  H1  UNL     1     -41.055  26.500   1.809  1.00  0.00     0.165 HD
HETATM    5  C3  UNL     1     -42.912  25.601   1.380  1.00  0.00     0.022 A
HETATM    6  C10 UNL     1     -44.228  25.988   1.699  1.00  0.00     0.001 A
HETATM    7  C15 UNL     1     -44.076  27.183   2.414  1.00  0.00     0.072 A
ENDROOT
BRANCH   6   8
HETATM    8  C11 UNL     1     -45.486  25.299   1.474  1.00  0.00     0.080 C
HETATM    9  C12 UNL     1     -46.629  26.355   1.355  1.00  0.00     0.029 C
HETATM   10  C13 UNL     1     -45.599  24.511   0.198  1.00  0.00     0.029 C
BRANCH   8  11
HETATM   11  C14 UNL     1     -46.058  24.500   2.645  1.00  0.00     0.398 C
HETATM   12  F1  UNL     1     -47.160  23.736   2.263  1.00  0.00    -0.170 F
HETATM   13  F2  UNL     1     -45.104  23.400   2.850  1.00  0.00    -0.170 F
HETATM   14  F3  UNL     1     -46.105  25.011   3.859  1.00  0.00    -0.170 F
ENDBRANCH   8  11
ENDBRANCH   6   8
BRANCH   5  15
HETATM   15  C4  UNL     1     -42.457  24.482   0.564  1.00  0.00     0.036 C
HETATM   16  C5  UNL     1     -41.350  25.051  -0.393  1.00  0.00     0.011 C
HETATM   17  C6  UNL     1     -40.011  24.952   0.266  1.00  0.00     0.001 C
HETATM   18  C7  UNL     1     -39.512  23.521  -0.009  1.00  0.00     0.000 C
HETATM   19  C8  UNL     1     -40.728  22.667   0.212  1.00  0.00     0.001 C
HETATM   20  C9  UNL     1     -41.737  23.336   1.176  1.00  0.00     0.011 C
ENDBRANCH   5  15
BRANCH   7  21
HETATM   21  C16 UNL     1     -44.987  28.110   3.057  1.00  0.00     0.212 C
HETATM   22  O1  UNL     1     -45.377  27.903   4.221  1.00  0.00    -0.644 OA
HETATM   23  O2  UNL     1     -45.424  29.227   2.400  1.00  0.00    -0.644 OA
ENDBRANCH   7  21
TORSDOF 4
ENDMDL