MODEL 3
REMARK VINA RESULT: -5.256819509      0.354      1.761
REMARK  2 active torsions:
REMARK  status: ('A' for Active; 'I' for Inactive)
REMARK    1  A    between atoms: C1_2  and  C2_3
REMARK    2  A    between atoms: C12_16  and  C13_17
ROOT
HETATM    1  C2  UNL     1     -47.134  25.011   2.660  1.00  0.00    -0.047 C
HETATM    2  C3  UNL     1     -47.803  26.100   1.957  1.00  0.00    -0.021 C
HETATM    3  C4  UNL     1     -47.427  27.519   2.162  1.00  0.00     0.027 C
HETATM    4  C5  UNL     1     -48.223  28.311   1.129  1.00  0.00     0.004 C
HETATM    5  C6  UNL     1     -48.009  27.894  -0.276  1.00  0.00     0.000 C
HETATM    6  C7  UNL     1     -49.169  27.197  -0.892  1.00  0.00     0.002 C
HETATM    7  C8  UNL     1     -48.945  26.449  -2.132  1.00  0.00     0.027 C
HETATM    8  C9  UNL     1     -47.807  25.524  -2.241  1.00  0.00     0.232 C
HETATM    9  N1  UNL     1     -47.975  24.227  -1.613  1.00  0.00    -0.075 N
ATOM     10  H11 UNL     1     -48.092  23.487  -2.304  1.00  0.00     0.277 HD
ATOM     11  H12 UNL     1     -48.879  24.150  -1.147  1.00  0.00     0.277 HD
HETATM   12  C10 UNL     1     -46.857  23.937  -0.687  1.00  0.00     0.233 C
HETATM   13  C11 UNL     1     -47.323  23.570   0.661  1.00  0.00     0.041 C
HETATM   14  C12 UNL     1     -46.472  23.929   1.848  1.00  0.00     0.051 C
ENDROOT
BRANCH  14  15
HETATM   15  C13 UNL     1     -45.079  24.038   1.537  1.00  0.00    -0.044 A
HETATM   16  C14 UNL     1     -44.150  23.024   1.526  1.00  0.00     0.050 A
HETATM   17  C15 UNL     1     -42.812  23.189   1.226  1.00  0.00     0.119 A
HETATM   18  F2  UNL     1     -41.934  22.150   1.229  1.00  0.00    -0.206 F
HETATM   19  C16 UNL     1     -42.356  24.461   0.910  1.00  0.00     0.084 A
HETATM   20  C17 UNL     1     -43.254  25.490   0.912  1.00  0.00     0.119 A
HETATM   21  F3  UNL     1     -42.768  26.731   0.596  1.00  0.00    -0.206 F
HETATM   22  C18 UNL     1     -44.578  25.282   1.217  1.00  0.00     0.050 A
ENDBRANCH  14  15
BRANCH   1  23
HETATM   23  C1  UNL     1     -46.416  25.331   3.935  1.00  0.00     0.257 C
HETATM   24  F1  UNL     1     -46.230  24.289   4.788  1.00  0.00    -0.251 F
ENDBRANCH   1  23
TORSDOF 2
ENDMDL