MODEL 5
REMARK VINA RESULT: -6.393516970      3.560      6.505
REMARK  3 active torsions:
REMARK  status: ('A' for Active; 'I' for Inactive)
REMARK    1  A    between atoms: C2_2  and  C3_3
REMARK    2  A    between atoms: C6_8  and  C7_9
REMARK    3  A    between atoms: C11_13  and  C12_14
ROOT
HETATM    1  C7  UNL     1     -43.661  25.324   1.320  1.00  0.00     0.026 A
HETATM    2  C8  UNL     1     -43.596  23.946   1.383  1.00  0.00    -0.046 A
HETATM    3  C9  UNL     1     -44.781  23.161   1.787  1.00  0.00     0.049 C
HETATM    4  C10 UNL     1     -42.440  23.221   1.110  1.00  0.00     0.025 A
HETATM    5  C11 UNL     1     -41.293  23.880   0.757  1.00  0.00     0.060 A
HETATM    6  C13 UNL     1     -41.309  25.264   0.678  1.00  0.00     0.008 A
HETATM    7  C14 UNL     1     -40.308  26.140   0.312  1.00  0.00     0.039 A
HETATM    8  C15 UNL     1     -40.883  27.380   0.367  1.00  0.00     0.006 A
HETATM    9  C16 UNL     1     -40.200  28.677   0.054  1.00  0.00     0.068 C
HETATM   10  N2  UNL     1     -42.170  27.254   0.749  1.00  0.00    -0.358 N
ATOM     11  H2  UNL     1     -42.816  28.035   0.864  1.00  0.00     0.166 HD
HETATM   12  C17 UNL     1     -42.489  25.971   0.958  1.00  0.00     0.056 A
ENDROOT
BRANCH   1  13
HETATM   13  C6  UNL     1     -44.928  26.018   1.537  1.00  0.00     0.069 A
HETATM   14  C4  UNL     1     -45.311  26.913   2.505  1.00  0.00     0.034 A
HETATM   15  N1  UNL     1     -46.645  27.183   2.348  1.00  0.00    -0.348 N
HETATM   16  C5  UNL     1     -44.466  27.459   3.608  1.00  0.00     0.070 C
HETATM   17  C3  UNL     1     -47.112  26.480   1.312  1.00  0.00     0.081 A
ATOM     18  H1  UNL     1     -47.193  27.817   2.928  1.00  0.00     0.167 HD
HETATM   19  N3  UNL     1     -46.081  25.787   0.834  1.00  0.00    -0.344 N
ATOM     20  H3  UNL     1     -46.143  25.156   0.035  1.00  0.00     0.167 HD
BRANCH  17  21
HETATM   21  C2  UNL     1     -48.532  26.479   0.793  1.00  0.00     0.072 C
HETATM   22  C1  UNL     1     -48.544  25.706  -0.505  1.00  0.00     0.013 C
ENDBRANCH  17  21
ENDBRANCH   1  13
BRANCH   5  23
HETATM   23  C12 UNL     1     -40.054  23.123   0.465  1.00  0.00     0.418 C
HETATM   24  F1  UNL     1     -39.805  22.206   1.468  1.00  0.00    -0.166 F
HETATM   25  F2  UNL     1     -38.946  23.936   0.360  1.00  0.00    -0.166 F
HETATM   26  F3  UNL     1     -40.197  22.367  -0.706  1.00  0.00    -0.166 F
ENDBRANCH   5  23
TORSDOF 3
ENDMDL