MODEL 3
REMARK VINA RESULT: -6.800480293      2.182      3.732
REMARK  3 active torsions:
REMARK  status: ('A' for Active; 'I' for Inactive)
REMARK    1  A    between atoms: C2_2  and  C4_4
REMARK    2  A    between atoms: C9_9  and  C10_10
REMARK    3  A    between atoms: C15_17  and  C16_18
ROOT
HETATM    1  C10 UNL     1      -6.036  23.150  12.612  1.00  0.00     0.086 A
HETATM    2  N1  UNL     1      -4.756  23.119  12.209  1.00  0.00    -0.344 N
ATOM      3  H1  UNL     1      -3.953  23.092  12.837  1.00  0.00     0.167 HD
HETATM    4  C11 UNL     1      -4.675  23.127  10.863  1.00  0.00     0.061 A
HETATM    5  C12 UNL     1      -3.574  23.105  10.008  1.00  0.00     0.032 A
HETATM    6  C13 UNL     1      -3.814  23.120   8.664  1.00  0.00     0.003 A
HETATM    7  C14 UNL     1      -5.100  23.157   8.191  1.00  0.00     0.019 A
HETATM    8  C15 UNL     1      -6.180  23.180   9.046  1.00  0.00     0.076 A
HETATM    9  C17 UNL     1      -5.963  23.164  10.406  1.00  0.00     0.075 A
HETATM   10  N2  UNL     1      -6.764  23.177  11.488  1.00  0.00    -0.343 N
ATOM     11  H2  UNL     1      -7.783  23.203  11.455  1.00  0.00     0.167 HD
ENDROOT
BRANCH   1  12
HETATM   12  C9  UNL     1      -6.524  23.155  14.010  1.00  0.00     0.058 C
HETATM   13  C4  UNL     1      -7.163  21.898  14.473  1.00  0.00     0.000 C
HETATM   14  C5  UNL     1      -8.677  22.079  14.405  1.00  0.00     0.006 C
HETATM   15  C6  UNL     1      -9.099  23.088  15.464  1.00  0.00     0.000 C
HETATM   16  C7  UNL     1      -8.107  24.234  15.536  1.00  0.00     0.001 C
HETATM   17  C8  UNL     1      -7.472  24.355  14.176  1.00  0.00     0.013 C
BRANCH  13  18
HETATM   18  C2  UNL     1      -6.722  20.646  13.797  1.00  0.00    -0.018 C
HETATM   19  C1  UNL     1      -5.545  20.069  14.556  1.00  0.00     0.010 C
HETATM   20  C3  UNL     1      -7.783  19.589  13.725  1.00  0.00     0.010 C
ENDBRANCH  13  18
ENDBRANCH   1  12
BRANCH   8  21
HETATM   21  C16 UNL     1      -7.568  23.219   8.531  1.00  0.00     0.419 C
HETATM   22  F1  UNL     1      -8.298  22.105   8.888  1.00  0.00    -0.166 F
HETATM   23  F2  UNL     1      -7.468  23.314   7.139  1.00  0.00    -0.166 F
HETATM   24  F3  UNL     1      -8.207  24.370   8.953  1.00  0.00    -0.166 F
ENDBRANCH   8  21
TORSDOF 3
ENDMDL