MODEL 3
REMARK VINA RESULT: -5.662431067      1.234      2.079
REMARK  4 active torsions:
REMARK  status: ('A' for Active; 'I' for Inactive)
REMARK    1  A    between atoms: C5_7  and  C6_8
REMARK    2  A    between atoms: C9_11  and  C10_12
REMARK    3  A    between atoms: C10_12  and  N3_16
REMARK    4  A    between atoms: C15_21  and  C17_23
ROOT
HETATM    1  C10 UNL     1      -4.349  23.866  10.869  1.00  0.00     0.111 C
HETATM    2  N2  UNL     1      -4.259  25.109  10.921  1.00  0.00    -0.385 N
ATOM      3  H21 UNL     1      -3.386  25.584  11.152  1.00  0.00     0.157 HD
ATOM      4  H22 UNL     1      -5.208  25.465  10.810  1.00  0.00     0.157 HD
ENDROOT
BRANCH   1   5
HETATM    5  C9  UNL     1      -5.576  23.199  10.544  1.00  0.00     0.042 A
HETATM    6  C2  UNL     1      -6.282  23.208   9.374  1.00  0.00     0.020 A
HETATM    7  C1  UNL     1      -5.857  23.540   7.993  1.00  0.00     0.069 C
HETATM    8  N1  UNL     1      -7.527  22.681   9.531  1.00  0.00    -0.362 N
HETATM    9  C3  UNL     1      -7.651  22.321  10.767  1.00  0.00     0.017 A
ATOM     10  H1  UNL     1      -8.236  22.587   8.804  1.00  0.00     0.165 HD
HETATM   11  C4  UNL     1      -8.900  21.680  11.288  1.00  0.00     0.069 C
HETATM   12  C5  UNL     1      -6.439  22.619  11.484  1.00  0.00     0.004 A
BRANCH  12  13
HETATM   13  C6  UNL     1      -6.472  22.318  12.867  1.00  0.00    -0.074 C
HETATM   14  C7  UNL     1      -5.563  21.568  13.708  1.00  0.00     0.044 C
HETATM   15  C8  UNL     1      -6.829  23.670  13.636  1.00  0.00     0.044 C
ENDBRANCH  12  13
ENDBRANCH   1   5
BRANCH   1  16
HETATM   16  N3  UNL     1      -2.983  23.354  11.028  1.00  0.00    -0.352 N
HETATM   17  C11 UNL     1      -2.044  24.059  11.825  1.00  0.00     0.125 C
HETATM   18  C12 UNL     1      -1.158  23.220  12.709  1.00  0.00     0.020 C
HETATM   19  C13 UNL     1      -1.474  21.765  12.506  1.00  0.00     0.004 C
HETATM   20  C14 UNL     1      -1.376  21.506  11.038  1.00  0.00     0.036 C
HETATM   21  C15 UNL     1      -2.510  22.202  10.305  1.00  0.00     0.089 C
HETATM   22  C16 UNL     1      -3.610  21.162  10.128  1.00  0.00     0.044 C
BRANCH  21  23
HETATM   23  C17 UNL     1      -1.861  22.510   8.964  1.00  0.00     0.380 C
HETATM   24  F1  UNL     1      -2.526  23.062   7.983  1.00  0.00    -0.212 F
HETATM   25  F2  UNL     1      -1.273  21.298   8.514  1.00  0.00    -0.212 F
ENDBRANCH  21  23
ENDBRANCH   1  16
TORSDOF 4
ENDMDL