MODEL 5
REMARK VINA RESULT: -5.515137674      2.685      6.366
REMARK  4 active torsions:
REMARK  status: ('A' for Active; 'I' for Inactive)
REMARK    1  A    between atoms: C2_2  and  C3_3
REMARK    2  A    between atoms: C6_6  and  N1_7
REMARK    3  A    between atoms: N1_7  and  N2_8
REMARK    4  A    between atoms: C11_15  and  C12_16
ROOT
HETATM    1  C3  UNL     1      -8.455  19.509  15.408  1.00  0.00    -0.014 C
HETATM    2  C4  UNL     1      -7.115  18.887  15.151  1.00  0.00     0.007 C
HETATM    3  C5  UNL     1      -6.456  19.542  13.968  1.00  0.00     0.034 C
HETATM    4  C6  UNL     1      -6.373  21.047  14.148  1.00  0.00     0.081 C
HETATM    5  C7  UNL     1      -6.003  21.609  12.825  1.00  0.00    -0.025 A
HETATM    6  C8  UNL     1      -4.664  21.864  12.540  1.00  0.00     0.010 A
HETATM    7  C9  UNL     1      -4.297  22.381  11.322  1.00  0.00     0.002 A
HETATM    8  C10 UNL     1      -5.288  22.632  10.411  1.00  0.00     0.017 A
HETATM    9  C11 UNL     1      -6.643  22.377  10.692  1.00  0.00     0.054 A
HETATM   10  C13 UNL     1      -7.021  21.858  11.910  1.00  0.00    -0.035 A
HETATM   11  C14 UNL     1      -8.420  21.543  12.274  1.00  0.00     0.040 C
HETATM   12  C15 UNL     1      -8.655  22.043  13.671  1.00  0.00     0.011 C
HETATM   13  C16 UNL     1      -7.602  21.697  14.649  1.00  0.00     0.017 C
HETATM   14  C17 UNL     1      -8.215  20.937  15.838  1.00  0.00     0.011 C
ENDROOT
BRANCH   4  15
HETATM   15  N1  UNL     1      -5.281  21.244  15.101  1.00  0.00    -0.133 NA
BRANCH  15  16
HETATM   16  N2  UNL     1      -5.489  22.251  15.991  1.00  0.00    -0.347 N
ATOM     17  H22 UNL     1      -6.035  23.078  15.752  1.00  0.00     0.172 HD
ATOM     18  H21 UNL     1      -5.054  22.103  16.902  1.00  0.00     0.172 HD
ENDBRANCH  15  16
ENDBRANCH   4  15
BRANCH   1  19
HETATM   19  C2  UNL     1      -9.099  18.756  16.557  1.00  0.00     0.000 C
HETATM   20  C1  UNL     1     -10.161  17.796  16.066  1.00  0.00     0.005 C
ENDBRANCH   1  19
BRANCH   9  21
HETATM   21  C12 UNL     1      -7.683  22.682   9.685  1.00  0.00     0.418 C
HETATM   22  F1  UNL     1      -7.673  24.085   9.519  1.00  0.00    -0.166 F
HETATM   23  F2  UNL     1      -7.421  22.098   8.470  1.00  0.00    -0.166 F
HETATM   24  F3  UNL     1      -8.964  22.352  10.124  1.00  0.00    -0.166 F
ENDBRANCH   9  21
TORSDOF 4
ENDMDL