MODEL 4
REMARK VINA RESULT: -7.282616183      1.393      2.165
REMARK  3 active torsions:
REMARK  status: ('A' for Active; 'I' for Inactive)
REMARK    1  A    between atoms: C5_7  and  C6_8
REMARK    2  A    between atoms: C7_9  and  C8_10
REMARK    3  A    between atoms: C11_13  and  C12_14
ROOT
HETATM    1  C8  UNL     1      -7.104  22.533  10.471  1.00  0.00    -0.007 A
HETATM    2  C9  UNL     1      -8.271  22.728   9.822  1.00  0.00     0.014 A
HETATM    3  C10 UNL     1      -8.280  23.222   8.512  1.00  0.00     0.018 A
HETATM    4  C11 UNL     1      -7.084  23.503   7.908  1.00  0.00     0.061 A
HETATM    5  C13 UNL     1      -5.890  23.314   8.543  1.00  0.00     0.025 A
HETATM    6  C14 UNL     1      -4.564  23.512   8.168  1.00  0.00     0.121 A
HETATM    7  N2  UNL     1      -3.821  23.147   9.219  1.00  0.00    -0.311 N
ATOM      8  H2  UNL     1      -2.802  23.177   9.255  1.00  0.00     0.186 HD
HETATM    9  N3  UNL     1      -4.601  22.742  10.200  1.00  0.00    -0.299 N
ATOM     10  H3  UNL     1      -4.272  22.411  11.107  1.00  0.00     0.187 HD
HETATM   11  C15 UNL     1      -5.902  22.826   9.832  1.00  0.00     0.070 A
ENDROOT
BRANCH   1  12
HETATM   12  C7  UNL     1      -7.018  22.014  11.852  1.00  0.00     0.014 C
HETATM   13  C6  UNL     1      -6.889  22.787  12.872  1.00  0.00     0.015 C
BRANCH  13  14
HETATM   14  C5  UNL     1      -6.788  22.484  14.280  1.00  0.00    -0.006 A
HETATM   15  C3  UNL     1      -7.254  23.326  15.307  1.00  0.00     0.016 A
HETATM   16  N1  UNL     1      -6.991  22.717  16.463  1.00  0.00    -0.362 N
HETATM   17  C4  UNL     1      -7.913  24.646  15.093  1.00  0.00     0.069 C
HETATM   18  C2  UNL     1      -6.398  21.561  16.245  1.00  0.00     0.012 A
ATOM     19  H1  UNL     1      -7.215  23.092  17.385  1.00  0.00     0.165 HD
HETATM   20  C1  UNL     1      -5.951  20.597  17.285  1.00  0.00     0.068 C
HETATM   21  C16 UNL     1      -6.248  21.369  14.863  1.00  0.00    -0.028 A
HETATM   22  C17 UNL     1      -5.613  20.156  14.284  1.00  0.00     0.051 C
ENDBRANCH  13  14
ENDBRANCH   1  12
BRANCH   4  23
HETATM   23  C12 UNL     1      -7.061  24.028   6.522  1.00  0.00     0.418 C
HETATM   24  F1  UNL     1      -8.350  24.193   6.058  1.00  0.00    -0.166 F
HETATM   25  F2  UNL     1      -6.409  25.260   6.496  1.00  0.00    -0.166 F
HETATM   26  F3  UNL     1      -6.420  23.148   5.668  1.00  0.00    -0.166 F
ENDBRANCH   4  23
TORSDOF 3
ENDMDL