MODEL 4
REMARK VINA RESULT: -7.563761560      1.520      2.582
REMARK  4 active torsions:
REMARK  status: ('A' for Active; 'I' for Inactive)
REMARK    1  A    between atoms: C2_2  and  C4_4
REMARK    2  A    between atoms: C7_7  and  C8_8
REMARK    3  A    between atoms: C10_10  and  C11_11
REMARK    4  A    between atoms: C16_16  and  C17_17
ROOT
HETATM    1  C8  UNL     1      -6.882  22.539  10.995  1.00  0.00    -0.026 A
HETATM    2  C9  UNL     1      -5.517  22.562  11.239  1.00  0.00     0.017 A
HETATM    3  C10 UNL     1      -4.621  22.849  10.224  1.00  0.00    -0.049 A
HETATM    4  C15 UNL     1      -5.140  23.113   8.975  1.00  0.00     0.024 A
HETATM    5  C16 UNL     1      -6.501  23.087   8.738  1.00  0.00     0.049 A
HETATM    6  C18 UNL     1      -7.399  22.800   9.748  1.00  0.00     0.025 A
ENDROOT
BRANCH   1   7
HETATM    7  C7  UNL     1      -7.772  22.244  12.116  1.00  0.00     0.219 C
HETATM    8  C6  UNL     1      -7.247  22.764  13.420  1.00  0.00     0.040 C
HETATM    9  C5  UNL     1      -7.893  21.724  14.379  1.00  0.00     0.040 C
HETATM   10  C4  UNL     1      -7.386  20.510  13.563  1.00  0.00     0.214 C
HETATM   11  N1  UNL     1      -8.048  20.821  12.302  1.00  0.00    -0.059 N
ATOM     12  H12 UNL     1      -7.767  20.230  11.520  1.00  0.00     0.278 HD
ATOM     13  H11 UNL     1      -9.037  20.575  12.272  1.00  0.00     0.278 HD
BRANCH  10  14
HETATM   14  C2  UNL     1      -7.791  19.253  14.191  1.00  0.00    -0.063 C
HETATM   15  C1  UNL     1      -7.619  19.154  15.514  1.00  0.00     0.016 C
HETATM   16  C3  UNL     1      -8.399  18.130  13.481  1.00  0.00     0.044 C
ENDBRANCH  10  14
ENDBRANCH   1   7
BRANCH   3  17
HETATM   17  C11 UNL     1      -3.154  22.869  10.368  1.00  0.00    -0.024 C
HETATM   18  C12 UNL     1      -2.584  21.612  10.946  1.00  0.00     0.019 C
HETATM   19  C13 UNL     1      -2.699  24.070  11.154  1.00  0.00     0.019 C
HETATM   20  C14 UNL     1      -2.566  22.991   8.955  1.00  0.00     0.019 C
ENDBRANCH   3  17
BRANCH   5  21
HETATM   21  C17 UNL     1      -7.066  23.385   7.382  1.00  0.00     0.417 C
HETATM   22  F1  UNL     1      -7.777  22.306   6.905  1.00  0.00    -0.166 F
HETATM   23  F2  UNL     1      -5.959  23.580   6.535  1.00  0.00    -0.166 F
HETATM   24  F3  UNL     1      -7.832  24.524   7.458  1.00  0.00    -0.166 F
ENDBRANCH   5  21
TORSDOF 4
ENDMDL