MODEL 3
REMARK VINA RESULT: -6.599241404      0.546      1.176
REMARK  3 active torsions:
REMARK  status: ('A' for Active; 'I' for Inactive)
REMARK    1  A    between atoms: C2_2  and  C4_4
REMARK    2  A    between atoms: C2_2  and  C18_21
REMARK    3  A    between atoms: C5_5  and  C6_6
ROOT
HETATM    1  C4  UNL     1      -3.876  22.489  10.192  1.00  0.00    -0.002 A
HETATM    2  C5  UNL     1      -3.332  22.736   8.941  1.00  0.00     0.043 A
HETATM    3  N1  UNL     1      -4.409  23.093   8.161  1.00  0.00    -0.353 N
ATOM      4  H1  UNL     1      -4.329  23.333   7.173  1.00  0.00     0.166 HD
HETATM    5  C12 UNL     1      -5.548  23.097   8.812  1.00  0.00     0.068 A
HETATM    6  C13 UNL     1      -6.836  23.410   8.369  1.00  0.00     0.073 A
HETATM    7  N2  UNL     1      -7.015  23.788   6.999  1.00  0.00    -0.100 NA
HETATM    8  C14 UNL     1      -7.886  23.360   9.210  1.00  0.00     0.029 A
HETATM    9  C15 UNL     1      -7.651  22.995  10.498  1.00  0.00     0.003 A
HETATM   10  C16 UNL     1      -6.365  22.681  10.948  1.00  0.00     0.014 A
HETATM   11  C17 UNL     1      -5.265  22.723  10.106  1.00  0.00     0.002 A
ENDROOT
BRANCH   1  12
HETATM   12  C2  UNL     1      -3.208  21.896  11.323  1.00  0.00     0.080 C
HETATM   13  C1  UNL     1      -3.870  21.349  12.498  1.00  0.00     0.029 C
HETATM   14  C3  UNL     1      -2.353  20.672  10.864  1.00  0.00     0.029 C
BRANCH  12  15
HETATM   15  C18 UNL     1      -2.162  22.908  11.842  1.00  0.00     0.398 C
HETATM   16  F1  UNL     1      -0.944  22.888  11.269  1.00  0.00    -0.170 F
HETATM   17  F2  UNL     1      -1.920  22.666  13.201  1.00  0.00    -0.170 F
HETATM   18  F3  UNL     1      -2.650  24.192  11.689  1.00  0.00    -0.170 F
ENDBRANCH  12  15
ENDBRANCH   1  12
BRANCH   2  19
HETATM   19  C6  UNL     1      -1.994  22.837   8.372  1.00  0.00    -0.053 C
HETATM   20  C7  UNL     1      -1.457  24.267   8.391  1.00  0.00     0.036 C
HETATM   21  C8  UNL     1      -0.398  24.323   7.310  1.00  0.00     0.004 C
HETATM   22  C9  UNL     1       0.713  23.409   7.790  1.00  0.00     0.001 C
HETATM   23  C10 UNL     1       0.330  21.973   7.837  1.00  0.00     0.004 C
HETATM   24  C11 UNL     1      -1.198  21.818   7.729  1.00  0.00     0.036 C
ENDBRANCH   2  19
TORSDOF 3
ENDMDL