MODEL 4
REMARK VINA RESULT: -6.802975075      4.452      6.034
REMARK  3 active torsions:
REMARK  status: ('A' for Active; 'I' for Inactive)
REMARK    1  A    between atoms: C2_2  and  C3_3
REMARK    2  A    between atoms: C3_3  and  C4_4
REMARK    3  A    between atoms: C15_19  and  C16_20
ROOT
HETATM    1  C3  UNL     1      -6.861  21.643  13.989  1.00  0.00     0.017 C
HETATM    2  C7  UNL     1      -6.238  21.931  12.678  1.00  0.00     0.011 A
HETATM    3  C8  UNL     1      -4.881  22.004  12.443  1.00  0.00     0.110 A
HETATM    4  N1  UNL     1      -4.628  22.306  11.154  1.00  0.00    -0.342 N
ATOM      5  H1  UNL     1      -3.702  22.417  10.741  1.00  0.00     0.167 HD
HETATM    6  C9  UNL     1      -5.799  22.436  10.501  1.00  0.00     0.044 A
HETATM    7  C10 UNL     1      -6.060  22.730   9.186  1.00  0.00     0.030 A
HETATM    8  C11 UNL     1      -7.370  22.799   8.768  1.00  0.00     0.002 A
HETATM    9  C12 UNL     1      -8.401  22.576   9.663  1.00  0.00     0.001 A
HETATM   10  C13 UNL     1      -8.102  22.284  10.976  1.00  0.00     0.014 A
HETATM   11  C14 UNL     1      -6.810  22.205  11.437  1.00  0.00     0.002 A
HETATM   12  N2  UNL     1      -4.059  21.733  13.584  1.00  0.00    -0.362 N
ATOM     13  H2  UNL     1      -3.165  22.202  13.732  1.00  0.00     0.161 HD
HETATM   14  C15 UNL     1      -4.576  20.753  14.517  1.00  0.00     0.195 C
HETATM   15  C17 UNL     1      -5.884  21.186  15.029  1.00  0.00     0.030 C
HETATM   16  C18 UNL     1      -6.515  20.197  15.999  1.00  0.00     0.014 C
ENDROOT
BRANCH   1  17
HETATM   17  C2  UNL     1      -7.971  20.631  13.818  1.00  0.00    -0.022 C
HETATM   18  C1  UNL     1      -7.753  19.448  13.272  1.00  0.00     0.008 C
ENDBRANCH   1  17
BRANCH   1  19
HETATM   19  C4  UNL     1      -7.542  22.935  14.410  1.00  0.00    -0.005 C
HETATM   20  C5  UNL     1      -8.980  22.791  14.726  1.00  0.00     0.011 C
HETATM   21  C6  UNL     1      -6.870  23.578  15.602  1.00  0.00     0.011 C
ENDBRANCH   1  19
BRANCH  14  22
HETATM   22  C16 UNL     1      -3.513  20.538  15.540  1.00  0.00     0.407 C
HETATM   23  F1  UNL     1      -3.449  19.293  16.064  1.00  0.00    -0.169 F
HETATM   24  F2  UNL     1      -2.284  20.813  14.940  1.00  0.00    -0.169 F
HETATM   25  F3  UNL     1      -3.631  21.437  16.585  1.00  0.00    -0.169 F
ENDBRANCH  14  22
TORSDOF 3
ENDMDL