MODEL 2
REMARK VINA RESULT: -7.646010774      3.269      6.356
REMARK  4 active torsions:
REMARK  status: ('A' for Active; 'I' for Inactive)
REMARK    1  A    between atoms: C3_3  and  C4_4
REMARK    2  A    between atoms: C4_4  and  O1_5
REMARK    3  A    between atoms: C6_8  and  C7_9
REMARK    4  A    between atoms: C10_17  and  C11_18
ROOT
HETATM    1  C1  UNL     1      -4.856  23.478   7.693  1.00  0.00     0.050 C
HETATM    2  C2  UNL     1      -5.404  23.164   9.022  1.00  0.00    -0.041 A
HETATM    3  C3  UNL     1      -6.799  23.111   9.146  1.00  0.00    -0.027 A
HETATM    4  C5  UNL     1      -7.295  22.798  10.383  1.00  0.00     0.028 A
HETATM    5  C6  UNL     1      -6.489  22.545  11.464  1.00  0.00     0.076 A
HETATM    6  C8  UNL     1      -5.106  22.596  11.345  1.00  0.00     0.058 A
HETATM    7  N1  UNL     1      -4.106  22.387  12.217  1.00  0.00    -0.364 N
ATOM      8  H1  UNL     1      -4.201  22.140  13.202  1.00  0.00     0.165 HD
HETATM    9  C9  UNL     1      -2.964  22.564  11.552  1.00  0.00     0.096 A
HETATM   10  C10 UNL     1      -3.220  22.899  10.209  1.00  0.00    -0.025 A
HETATM   11  C17 UNL     1      -4.591  22.912  10.100  1.00  0.00     0.006 A
ENDROOT
BRANCH  10  12
HETATM   12  C11 UNL     1      -2.188  23.198   9.240  1.00  0.00     0.021 C
HETATM   13  C12 UNL     1      -1.466  21.850   8.937  1.00  0.00     0.009 C
HETATM   14  C13 UNL     1      -0.320  22.126   7.974  1.00  0.00     0.001 C
HETATM   15  C14 UNL     1      -0.255  23.544   7.513  1.00  0.00     0.000 C
HETATM   16  C15 UNL     1      -0.239  24.505   8.660  1.00  0.00     0.001 C
HETATM   17  C16 UNL     1      -0.991  23.977   9.855  1.00  0.00     0.009 C
ENDBRANCH  10  12
BRANCH   3  18
HETATM   18  C4  UNL     1      -7.686  23.371   7.973  1.00  0.00     0.203 C
BRANCH  18  19
HETATM   19  O1  UNL     1      -8.000  22.175   7.323  1.00  0.00    -0.396 OA
ATOM     20  H1  UNL     1      -7.210  21.689   7.123  1.00  0.00     0.209 HD
ENDBRANCH  18  19
ENDBRANCH   3  18
BRANCH   5  21
HETATM   21  C7  UNL     1      -7.079  22.211  12.779  1.00  0.00     0.419 C
HETATM   22  F1  UNL     1      -6.767  23.118  13.763  1.00  0.00    -0.166 F
HETATM   23  F2  UNL     1      -6.658  20.926  13.126  1.00  0.00    -0.166 F
HETATM   24  F3  UNL     1      -8.456  22.146  12.702  1.00  0.00    -0.166 F
ENDBRANCH   5  21
TORSDOF 4
ENDMDL