MODEL 2
REMARK VINA RESULT: -8.053280719      4.332      7.613
REMARK  3 active torsions:
REMARK  status: ('A' for Active; 'I' for Inactive)
REMARK    1  A    between atoms: C6_7  and  C7_8
REMARK    2  A    between atoms: C7_8  and  C8_9
REMARK    3  A    between atoms: C12_13  and  C13_14
ROOT
HETATM    1  C7  UNL     1      -7.247  22.707   6.217  1.00  0.00     0.045 C
ENDROOT
BRANCH   1   2
HETATM    2  C6  UNL     1      -6.507  23.004   7.437  1.00  0.00    -0.030 A
HETATM    3  C5  UNL     1      -6.847  22.879   8.761  1.00  0.00     0.000 A
HETATM    4  C4  UNL     1      -7.954  22.365   9.414  1.00  0.00     0.014 A
HETATM    5  C17 UNL     1      -5.837  23.354   9.579  1.00  0.00     0.067 A
HETATM    6  C3  UNL     1      -8.056  22.325  10.775  1.00  0.00     0.003 A
HETATM    7  C2  UNL     1      -7.005  22.819  11.559  1.00  0.00     0.029 A
HETATM    8  C1  UNL     1      -5.880  23.340  10.957  1.00  0.00     0.073 A
HETATM    9  N1  UNL     1      -4.846  23.832  11.793  1.00  0.00    -0.100 NA
HETATM   10  N2  UNL     1      -4.852  23.780   8.755  1.00  0.00    -0.363 N
HETATM   11  C16 UNL     1      -5.221  23.584   7.481  1.00  0.00     0.096 A
ATOM     12  H2  UNL     1      -3.966  24.188   9.056  1.00  0.00     0.165 HD
ENDBRANCH   1   2
BRANCH   1  13
HETATM   13  C8  UNL     1      -7.585  23.893   5.337  1.00  0.00    -0.009 C
HETATM   14  C9  UNL     1      -8.094  24.964   6.236  1.00  0.00     0.016 C
HETATM   15  C10 UNL     1      -8.596  26.244   5.471  1.00  0.00     0.081 C
HETATM   16  C11 UNL     1      -8.735  25.873   4.129  1.00  0.00    -0.169 C
HETATM   17  C12 UNL     1      -8.805  25.415   2.802  1.00  0.00     0.159 C
HETATM   18  C14 UNL     1      -8.302  23.931   2.824  1.00  0.00     0.025 C
HETATM   19  C15 UNL     1      -8.361  23.350   4.220  1.00  0.00     0.006 C
BRANCH  17  20
HETATM   20  C13 UNL     1      -7.900  26.176   1.813  1.00  0.00     0.400 C
HETATM   21  F1  UNL     1      -6.606  26.083   2.308  1.00  0.00    -0.170 F
HETATM   22  F2  UNL     1      -8.227  27.486   1.723  1.00  0.00    -0.170 F
HETATM   23  F3  UNL     1      -7.926  25.613   0.581  1.00  0.00    -0.170 F
ENDBRANCH  17  20
ENDBRANCH   1  13
TORSDOF 3
ENDMDL