MODEL 4
REMARK VINA RESULT: -6.881836633      3.930      5.987
REMARK  3 active torsions:
REMARK  status: ('A' for Active; 'I' for Inactive)
REMARK    1  A    between atoms: C4_8  and  C5_9
REMARK    2  A    between atoms: C5_9  and  C7_11
REMARK    3  A    between atoms: C11_17  and  C12_18
ROOT
HETATM    1  C7  UNL     1      -6.115  21.848  13.315  1.00  0.00     0.025 A
HETATM    2  N3  UNL     1      -5.006  22.160  12.640  1.00  0.00    -0.358 N
ATOM      3  H3  UNL     1      -4.070  22.147  13.047  1.00  0.00     0.166 HD
HETATM    4  C8  UNL     1      -5.267  22.494  11.356  1.00  0.00     0.043 A
HETATM    5  C9  UNL     1      -4.476  22.879  10.297  1.00  0.00     0.031 A
HETATM    6  C10 UNL     1      -5.012  23.167   9.071  1.00  0.00     0.019 A
HETATM    7  C11 UNL     1      -6.381  23.060   8.916  1.00  0.00     0.054 A
HETATM    8  C13 UNL     1      -7.200  22.679   9.954  1.00  0.00    -0.034 A
HETATM    9  C14 UNL     1      -8.658  22.559   9.819  1.00  0.00     0.050 C
HETATM   10  C15 UNL     1      -6.656  22.383  11.212  1.00  0.00     0.005 A
HETATM   11  C16 UNL     1      -7.181  21.988  12.411  1.00  0.00    -0.026 A
HETATM   12  C17 UNL     1      -8.608  21.754  12.742  1.00  0.00     0.051 C
ENDROOT
BRANCH   1  13
HETATM   13  C5  UNL     1      -6.185  21.425  14.746  1.00  0.00     0.068 C
HETATM   14  C6  UNL     1      -6.410  22.628  15.652  1.00  0.00     0.021 C
BRANCH  13  15
HETATM   15  C4  UNL     1      -5.100  20.550  15.178  1.00  0.00    -0.008 A
HETATM   16  C2  UNL     1      -4.984  19.192  15.029  1.00  0.00     0.030 A
HETATM   17  C1  UNL     1      -5.919  18.264  14.384  1.00  0.00     0.070 C
HETATM   18  N1  UNL     1      -3.798  18.789  15.588  1.00  0.00    -0.305 N
HETATM   19  N2  UNL     1      -3.168  19.838  16.081  1.00  0.00    -0.311 N
ATOM     20  H1  UNL     1      -3.457  17.829  15.618  1.00  0.00     0.186 HD
HETATM   21  C3  UNL     1      -3.927  20.923  15.851  1.00  0.00     0.117 A
ATOM     22  H2  UNL     1      -2.265  19.828  16.553  1.00  0.00     0.186 HD
ENDBRANCH  13  15
ENDBRANCH   1  13
BRANCH   7  23
HETATM   23  C12 UNL     1      -6.952  23.374   7.583  1.00  0.00     0.418 C
HETATM   24  F1  UNL     1      -7.678  24.557   7.567  1.00  0.00    -0.166 F
HETATM   25  F2  UNL     1      -7.601  22.317   6.999  1.00  0.00    -0.166 F
HETATM   26  F3  UNL     1      -5.888  23.656   6.686  1.00  0.00    -0.166 F
ENDBRANCH   7  23
TORSDOF 3
ENDMDL