MODEL 4
REMARK VINA RESULT: -7.949729185      3.915      7.905
REMARK  4 active torsions:
REMARK  status: ('A' for Active; 'I' for Inactive)
REMARK    1  A    between atoms: C7_7  and  C8_8
REMARK    2  A    between atoms: C8_8  and  O1_9
REMARK    3  A    between atoms: C11_13  and  C12_14
REMARK    4  A    between atoms: C12_14  and  C13_15
REMARK       I    between atoms: C13_15  and  N1_17
ROOT
HETATM    1  C1  UNL     1       7.278  21.589  -6.484  1.00  0.00     0.024 C
HETATM    2  C2  UNL     1       6.678  20.365  -7.122  1.00  0.00     0.021 C
HETATM    3  C3  UNL     1       6.776  20.520  -8.614  1.00  0.00     0.017 C
HETATM    4  C4  UNL     1       8.131  20.085  -9.072  1.00  0.00     0.006 C
HETATM    5  C5  UNL     1       8.288  18.609  -8.660  1.00  0.00    -0.009 C
HETATM    6  C6  UNL     1       9.220  17.903  -9.544  1.00  0.00     0.021 C
HETATM    7  C7  UNL     1      10.513  17.380  -8.994  1.00  0.00     0.005 C
HETATM    8  C9  UNL     1      11.479  17.352 -10.203  1.00  0.00     0.020 C
HETATM    9  C10 UNL     1      12.873  17.429  -9.624  1.00  0.00     0.036 C
HETATM   10  C11 UNL     1      12.656  18.410  -8.483  1.00  0.00    -0.068 C
HETATM   11  C17 UNL     1      11.233  18.336  -8.098  1.00  0.00    -0.066 C
HETATM   12  C18 UNL     1      10.857  18.344  -6.679  1.00  0.00     0.036 C
HETATM   13  C19 UNL     1       9.533  19.108  -6.527  1.00  0.00     0.010 C
HETATM   14  C20 UNL     1       8.379  18.481  -7.199  1.00  0.00    -0.005 C
HETATM   15  C21 UNL     1       7.122  19.080  -6.567  1.00  0.00     0.006 C
HETATM   16  C22 UNL     1       5.966  18.122  -6.565  1.00  0.00     0.013 C
HETATM   17  C23 UNL     1       4.832  19.079  -6.168  1.00  0.00     0.079 C
HETATM   18  C24 UNL     1       5.206  20.371  -6.807  1.00  0.00     0.135 C
HETATM   19  O3  UNL     1       4.411  21.263  -7.023  1.00  0.00    -0.297 OA
ENDROOT
BRANCH  10  20
HETATM   20  C12 UNL     1      13.723  18.467  -7.483  1.00  0.00     0.137 C
BRANCH  20  21
HETATM   21  C13 UNL     1      14.558  19.633  -7.322  1.00  0.00     0.224 C
HETATM   22  O2  UNL     1      15.570  19.785  -8.044  1.00  0.00    -0.273 OA
HETATM   23  N1  UNL     1      14.321  20.662  -6.379  1.00  0.00    -0.342 N
HETATM   24  C14 UNL     1      15.150  21.840  -6.217  1.00  0.00     0.137 C
HETATM   25  C16 UNL     1      13.237  20.731  -5.419  1.00  0.00     0.199 C
HETATM   26  C15 UNL     1      15.718  21.784  -4.799  1.00  0.00     0.095 C
HETATM   27  S1  UNL     1      14.214  21.184  -3.923  1.00  0.00    -0.148 SA
ENDBRANCH  20  21
ENDBRANCH  10  20
BRANCH   7  28
HETATM   28  C8  UNL     1      10.357  15.977  -8.611  1.00  0.00     0.178 C
BRANCH  28  29
HETATM   29  O1  UNL     1       9.619  15.167  -9.467  1.00  0.00    -0.400 OA
ATOM     30  H1  UNL     1       9.077  14.498  -9.067  1.00  0.00     0.209 HD
ENDBRANCH  28  29
ENDBRANCH   7  28
TORSDOF 4
ENDMDL