MODEL 3
REMARK VINA RESULT: -7.894878830      2.902      6.027
REMARK  3 active torsions:
REMARK  status: ('A' for Active; 'I' for Inactive)
REMARK    1  A    between atoms: C5_5  and  C6_6
REMARK    2  A    between atoms: N3_18  and  C15_19
REMARK    3  A    between atoms: C15_19  and  C16_20
ROOT
HETATM    1  C6  UNL     1       7.776  19.027  -7.071  1.00  0.00    -0.034 A
HETATM    2  C7  UNL     1       6.669  18.735  -7.834  1.00  0.00     0.096 A
HETATM    3  N1  UNL     1       5.946  19.855  -7.982  1.00  0.00    -0.357 N
ATOM      4  H1  UNL     1       5.071  19.934  -8.502  1.00  0.00     0.166 HD
HETATM    5  C8  UNL     1       6.571  20.862  -7.327  1.00  0.00     0.114 A
HETATM    6  C9  UNL     1       6.078  22.208  -7.274  1.00  0.00     0.117 C
HETATM    7  N2  UNL     1       5.688  23.299  -7.228  1.00  0.00    -0.190 NA
HETATM    8  C10 UNL     1       7.734  20.364  -6.741  1.00  0.00     0.050 A
ENDROOT
BRANCH   1   9
HETATM    9  C5  UNL     1       8.832  18.063  -6.678  1.00  0.00     0.044 C
HETATM   10  C4  UNL     1      10.135  18.389  -7.323  1.00  0.00     0.096 C
HETATM   11  C3  UNL     1      11.039  17.458  -6.482  1.00  0.00     0.051 C
HETATM   12  N4  UNL     1      10.258  18.182  -8.704  1.00  0.00    -0.383 N
HETATM   13  C2  UNL     1      12.340  17.437  -7.089  1.00  0.00     0.228 C
HETATM   14  C12 UNL     1      10.716  17.905  -5.129  1.00  0.00    -0.023 C
HETATM   15  C1  UNL     1      13.569  17.428  -6.239  1.00  0.00     0.043 C
HETATM   16  N5  UNL     1      12.575  18.478  -8.115  1.00  0.00     0.115 N
HETATM   17  C23 UNL     1      11.559  18.510  -9.129  1.00  0.00     0.320 C
HETATM   18  C26 UNL     1      13.830  18.128  -8.770  1.00  0.00     0.276 C
HETATM   19  C24 UNL     1      12.104  17.714 -10.280  1.00  0.00     0.059 C
HETATM   20  C25 UNL     1      13.544  18.255 -10.276  1.00  0.00     0.034 C
HETATM   21  C11 UNL     1       9.225  18.237  -5.221  1.00  0.00     0.022 C
HETATM   22  C13 UNL     1      11.359  19.131  -4.599  1.00  0.00     0.055 C
HETATM   23  C21 UNL     1      10.818  16.725  -4.174  1.00  0.00     0.055 C
HETATM   24  C14 UNL     1      10.841  19.395  -3.201  1.00  0.00     0.064 C
HETATM   25  N3  UNL     1      11.237  18.357  -2.350  1.00  0.00    -0.373 N
HETATM   26  C20 UNL     1      11.408  17.057  -2.854  1.00  0.00     0.064 C
HETATM   27  C22 UNL     1       9.611  17.080  -9.289  1.00  0.00     0.146 C
BRANCH  25  28
HETATM   28  C15 UNL     1      10.604  18.298  -1.065  1.00  0.00     0.131 C
BRANCH  28  29
HETATM   29  C16 UNL     1      10.924  17.127  -0.221  1.00  0.00     0.004 C
HETATM   30  C17 UNL     1      11.898  17.438   0.895  1.00  0.00     0.006 C
HETATM   31  C18 UNL     1      10.706  17.755   1.773  1.00  0.00     0.001 C
HETATM   32  C19 UNL     1       9.871  16.899   0.847  1.00  0.00     0.006 C
ENDBRANCH  28  29
ENDBRANCH  25  28
ENDBRANCH   1   9
TORSDOF 3
ENDMDL