MODEL 3
REMARK VINA RESULT: -7.418685055      1.691      3.755
REMARK  8 active torsions:
REMARK  status: ('A' for Active; 'I' for Inactive)
REMARK    1  A    between atoms: C1_2  and  C2_3
REMARK    2  A    between atoms: C1_2  and  C8_9
REMARK    3  A    between atoms: N1_14  and  C13_15
REMARK    4  A    between atoms: C13_15  and  O2_16
REMARK    5  A    between atoms: C13_15  and  N2_18
REMARK    6  A    between atoms: C16_21  and  N3_22
REMARK    7  A    between atoms: C19_25  and  C20_26
REMARK    8  A    between atoms: C20_26  and  O3_27
ROOT
HETATM    1  C13 UNL     1      14.310  18.498  -6.349  1.00  0.00     0.217 C
ENDROOT
BRANCH   1   2
HETATM    2  N1  UNL     1      14.575  19.098  -5.110  1.00  0.00    -0.336 N
HETATM    3  C8  UNL     1      15.065  18.218  -3.991  1.00  0.00     0.158 C
HETATM    4  C9  UNL     1      16.058  19.061  -3.268  1.00  0.00     0.033 C
HETATM    5  C10 UNL     1      16.772  20.051  -4.190  1.00  0.00     0.004 C
HETATM    6  C11 UNL     1      15.832  21.074  -4.779  1.00  0.00     0.020 C
HETATM    7  C12 UNL     1      14.436  20.458  -4.691  1.00  0.00     0.127 C
BRANCH   3   8
HETATM    8  C1  UNL     1      13.886  17.942  -3.136  1.00  0.00     0.153 C
HETATM    9  O1  UNL     1      13.978  18.136  -1.902  1.00  0.00    -0.295 OA
BRANCH   8  10
HETATM   10  C2  UNL     1      12.582  17.454  -3.582  1.00  0.00     0.057 C
HETATM   11  C3  UNL     1      11.451  18.454  -3.483  1.00  0.00     0.012 C
HETATM   12  C4  UNL     1      10.178  17.870  -4.076  1.00  0.00     0.001 C
HETATM   13  C5  UNL     1      10.412  16.479  -4.608  1.00  0.00     0.000 C
HETATM   14  C6  UNL     1      11.060  15.541  -3.652  1.00  0.00     0.001 C
HETATM   15  C7  UNL     1      12.117  16.228  -2.826  1.00  0.00     0.012 C
ENDBRANCH   8  10
ENDBRANCH   3   8
ENDBRANCH   1   2
BRANCH   1  16
HETATM   16  O2  UNL     1      15.163  17.528  -6.683  1.00  0.00    -0.332 OA
ATOM     17  H2  UNL     1      16.072  17.724  -6.493  1.00  0.00     0.220 HD
ENDBRANCH   1  16
BRANCH   1  18
HETATM   18  N2  UNL     1      13.341  18.703  -7.308  1.00  0.00    -0.347 N
HETATM   19  C14 UNL     1      13.742  18.709  -8.738  1.00  0.00     0.128 C
HETATM   20  C15 UNL     1      12.551  18.735  -9.635  1.00  0.00     0.055 C
HETATM   21  C16 UNL     1      11.389  17.901  -9.233  1.00  0.00     0.226 C
HETATM   22  C23 UNL     1      11.246  17.725  -7.753  1.00  0.00     0.055 C
HETATM   23  C24 UNL     1      11.956  18.934  -7.102  1.00  0.00     0.128 C
BRANCH  21  24
HETATM   24  N3  UNL     1      11.292  16.698  -9.977  1.00  0.00     0.093 N
HETATM   25  C17 UNL     1      10.347  15.729  -9.535  1.00  0.00     0.273 C
HETATM   26  C18 UNL     1       9.896  14.972 -10.793  1.00  0.00     0.037 C
HETATM   27  C19 UNL     1      11.088  14.376 -11.506  1.00  0.00     0.012 C
HETATM   28  C21 UNL     1      12.261  15.285 -11.625  1.00  0.00     0.037 C
HETATM   29  C22 UNL     1      12.512  16.046 -10.322  1.00  0.00     0.273 C
BRANCH  27  30
HETATM   30  C20 UNL     1      10.602  14.017 -12.916  1.00  0.00     0.168 C
BRANCH  30  31
HETATM   31  O3  UNL     1      11.754  13.932 -13.700  1.00  0.00    -0.400 OA
ATOM     32  H3  UNL     1      11.840  13.014 -13.929  1.00  0.00     0.209 HD
ENDBRANCH  30  31
ENDBRANCH  27  30
ENDBRANCH  21  24
ENDBRANCH   1  18
TORSDOF 8
ENDMDL