MODEL 5
REMARK VINA RESULT: -5.938132668      6.823     10.002
REMARK  4 active torsions:
REMARK  status: ('A' for Active; 'I' for Inactive)
REMARK    1  A    between atoms: C2_2  and  N1_3
REMARK    2  A    between atoms: N2_6  and  C5_7
REMARK    3  A    between atoms: C8_10  and  O1_11
REMARK    4  A    between atoms: C22_27  and  C23_28
ROOT
HETATM    1  C5  UNL     1       6.392  22.506  -5.483  1.00  0.00    -0.005 C
HETATM    2  C6  UNL     1       6.726  23.014  -6.758  1.00  0.00    -0.004 C
HETATM    3  C7  UNL     1       6.720  22.266  -8.085  1.00  0.00     0.067 C
HETATM    4  C8  UNL     1       6.713  20.868  -7.782  1.00  0.00     0.069 C
HETATM    5  C9  UNL     1       7.212  19.696  -8.504  1.00  0.00     0.017 C
HETATM    6  C10 UNL     1       6.383  19.492  -9.770  1.00  0.00     0.013 C
HETATM    7  C11 UNL     1       6.894  18.580  -7.495  1.00  0.00     0.008 C
HETATM    8  C12 UNL     1       6.558  18.997  -6.072  1.00  0.00     0.012 C
HETATM    9  C13 UNL     1       5.552  20.119  -5.916  1.00  0.00    -0.019 C
HETATM   10  C14 UNL     1       4.249  19.334  -5.643  1.00  0.00     0.017 C
HETATM   11  C15 UNL     1       2.989  19.967  -6.000  1.00  0.00     0.015 C
HETATM   12  C16 UNL     1       2.928  20.817  -7.198  1.00  0.00     0.007 C
HETATM   13  C17 UNL     1       4.232  21.379  -7.705  1.00  0.00     0.009 C
HETATM   14  C18 UNL     1       5.373  20.520  -7.359  1.00  0.00     0.030 C
HETATM   15  C19 UNL     1       2.389  20.579  -4.724  1.00  0.00     0.276 C
HETATM   16  N3  UNL     1       3.572  20.809  -3.867  1.00  0.00     0.085 N
HETATM   17  C20 UNL     1       3.071  21.188  -2.576  1.00  0.00     0.309 C
HETATM   18  C21 UNL     1       4.358  21.768  -4.551  1.00  0.00     0.288 C
HETATM   19  C22 UNL     1       5.765  21.249  -5.018  1.00  0.00     0.031 C
ENDROOT
BRANCH   1  20
HETATM   20  N2  UNL     1       6.036  23.696  -4.682  1.00  0.00    -0.283 NA
HETATM   21  C4  UNL     1       7.196  24.173  -3.915  1.00  0.00     0.125 C
HETATM   22  C3  UNL     1       6.618  25.285  -3.018  1.00  0.00     0.287 C
HETATM   23  N1  UNL     1       6.640  26.470  -3.801  1.00  0.00     0.090 N
HETATM   24  C26 UNL     1       6.499  26.093  -5.187  1.00  0.00     0.287 C
HETATM   25  C25 UNL     1       5.629  24.859  -5.351  1.00  0.00     0.125 C
BRANCH  23  26
HETATM   26  C2  UNL     1       7.869  27.197  -3.552  1.00  0.00     0.268 C
HETATM   27  C1  UNL     1       8.235  27.315  -2.112  1.00  0.00     0.037 C
ENDBRANCH  23  26
ENDBRANCH   1  20
BRANCH  19  28
HETATM   28  C23 UNL     1       6.233  20.750  -3.675  1.00  0.00     0.013 C
HETATM   29  C24 UNL     1       7.606  20.750  -3.228  1.00  0.00     0.006 C
ENDBRANCH  19  28
BRANCH   4  30
HETATM   30  O1  UNL     1       7.821  20.902  -6.888  1.00  0.00    -0.389 OA
ATOM     31  H1  UNL     1       7.507  21.631  -6.367  1.00  0.00     0.210 HD
ENDBRANCH   4  30
TORSDOF 4
ENDMDL