MODEL 1
REMARK VINA RESULT: -7.685622727      0.000      0.000
REMARK  6 active torsions:
REMARK  status: ('A' for Active; 'I' for Inactive)
REMARK    1  A    between atoms: C4_6  and  C5_7
REMARK    2  A    between atoms: C6_8  and  C7_9
REMARK    3  A    between atoms: C7_9  and  O1_12
REMARK    4  A    between atoms: C16_20  and  C17_21
REMARK    5  A    between atoms: C17_21  and  O2_22
REMARK    6  A    between atoms: C17_21  and  N2_24
ROOT
HETATM    1  C1  UNL     1      11.508  14.395 -10.809  1.00  0.00     0.145 C
HETATM    2  N1  UNL     1      12.066  15.527 -10.175  1.00  0.00    -0.400 N
ATOM      3  H1  UNL     1      13.083  15.573 -10.114  1.00  0.00     0.158 HD
HETATM    4  C2  UNL     1      11.413  16.490  -9.673  1.00  0.00    -0.008 C
HETATM    5  C3  UNL     1       9.951  16.611  -9.656  1.00  0.00     0.070 C
HETATM    6  C4  UNL     1       9.717  17.183  -8.265  1.00  0.00     0.076 C
HETATM    7  C10 UNL     1      10.994  17.850  -7.810  1.00  0.00     0.020 C
HETATM    8  C11 UNL     1      11.457  17.183  -6.591  1.00  0.00     0.001 C
HETATM    9  C12 UNL     1      10.338  17.035  -5.551  1.00  0.00     0.006 C
HETATM   10  C13 UNL     1      10.931  18.337  -4.950  1.00  0.00     0.010 C
HETATM   11  C14 UNL     1      12.236  17.836  -5.562  1.00  0.00    -0.032 C
HETATM   12  C15 UNL     1      12.782  16.767  -4.583  1.00  0.00     0.016 C
HETATM   13  C16 UNL     1      13.193  18.918  -5.826  1.00  0.00     0.057 C
HETATM   14  C21 UNL     1      14.353  18.503  -6.639  1.00  0.00    -0.009 C
HETATM   15  C22 UNL     1      15.637  19.239  -6.448  1.00  0.00     0.010 C
HETATM   16  C23 UNL     1      13.989  18.731  -8.120  1.00  0.00     0.006 C
HETATM   17  C24 UNL     1      13.343  17.473  -8.596  1.00  0.00     0.016 C
HETATM   18  C25 UNL     1      11.908  17.702  -8.996  1.00  0.00    -0.001 C
HETATM   19  C26 UNL     1      11.869  18.928  -9.871  1.00  0.00     0.022 C
ENDROOT
BRANCH   6  20
HETATM   20  C5  UNL     1       8.619  18.139  -8.384  1.00  0.00    -0.098 C
HETATM   21  C6  UNL     1       7.706  18.905  -8.475  1.00  0.00    -0.069 C
BRANCH  21  22
HETATM   22  C7  UNL     1       6.575  19.824  -8.580  1.00  0.00     0.113 C
HETATM   23  C8  UNL     1       5.821  19.800  -7.293  1.00  0.00     0.060 C
HETATM   24  C9  UNL     1       7.022  21.246  -8.844  1.00  0.00     0.060 C
BRANCH  22  25
HETATM   25  O1  UNL     1       5.758  19.470  -9.679  1.00  0.00    -0.378 OA
ATOM     26  H1  UNL     1       5.261  20.224  -9.975  1.00  0.00     0.211 HD
ENDBRANCH  22  25
ENDBRANCH  21  22
ENDBRANCH   6  20
BRANCH  13  27
HETATM   27  C17 UNL     1      13.497  19.651  -4.536  1.00  0.00     0.362 C
BRANCH  27  28
HETATM   28  O2  UNL     1      13.319  18.955  -3.389  1.00  0.00    -0.362 OA
HETATM   29  C18 UNL     1      14.372  18.750  -2.544  1.00  0.00     0.204 C
ENDBRANCH  27  28
BRANCH  27  30
HETATM   30  N2  UNL     1      12.737  20.930  -4.504  1.00  0.00     0.109 N
HETATM   31  C19 UNL     1      12.252  21.218  -3.175  1.00  0.00     0.312 C
HETATM   32  C20 UNL     1      13.656  22.015  -4.850  1.00  0.00     0.312 C
ENDBRANCH  27  30
ENDBRANCH  13  27
TORSDOF 6
ENDMDL