MODEL 1
REMARK VINA RESULT: -8.400885819      0.000      0.000
REMARK  5 active torsions:
REMARK  status: ('A' for Active; 'I' for Inactive)
REMARK    1  A    between atoms: C2_2  and  O1_3
REMARK    2  A    between atoms: O1_3  and  N1_4
REMARK    3  A    between atoms: C7_10  and  C8_11
REMARK    4  A    between atoms: N2_15  and  S1_16
REMARK    5  A    between atoms: C18_25  and  O4_26
ROOT
HETATM    1  N1  UNL     1      10.703  15.346 -10.787  1.00  0.00    -0.274 N
ATOM      2  H1  UNL     1       9.868  14.806 -10.558  1.00  0.00     0.193 HD
HETATM    3  C3  UNL     1      10.951  16.114  -9.843  1.00  0.00     0.019 C
HETATM    4  C4  UNL     1      10.220  16.312  -8.524  1.00  0.00     0.061 C
HETATM    5  C5  UNL     1      10.752  17.719  -8.565  1.00  0.00     0.010 C
HETATM    6  C6  UNL     1      11.079  18.398  -7.316  1.00  0.00     0.006 C
HETATM    7  C7  UNL     1      10.094  17.995  -6.252  1.00  0.00     0.000 C
HETATM    8  C14 UNL     1      10.868  17.985  -4.962  1.00  0.00     0.007 C
HETATM    9  C15 UNL     1      12.210  17.467  -5.392  1.00  0.00     0.012 C
HETATM   10  C16 UNL     1      12.403  18.203  -6.722  1.00  0.00    -0.014 C
HETATM   11  C17 UNL     1      13.052  19.539  -6.329  1.00  0.00     0.018 C
HETATM   12  C18 UNL     1      13.422  17.463  -7.499  1.00  0.00     0.127 C
HETATM   13  C19 UNL     1      12.930  16.497  -8.500  1.00  0.00     0.048 C
HETATM   14  C20 UNL     1      11.883  17.148  -9.374  1.00  0.00     0.003 C
HETATM   15  C21 UNL     1      12.422  18.131 -10.356  1.00  0.00     0.022 C
ENDROOT
BRANCH   7  16
HETATM   16  C8  UNL     1       8.917  18.872  -6.098  1.00  0.00    -0.026 C
HETATM   17  C9  UNL     1       9.139  20.074  -5.204  1.00  0.00     0.017 C
HETATM   18  C10 UNL     1       7.646  18.222  -5.698  1.00  0.00     0.026 C
HETATM   19  C11 UNL     1       6.703  18.279  -6.878  1.00  0.00     0.108 C
HETATM   20  N2  UNL     1       7.517  18.667  -8.013  1.00  0.00    -0.210 NA
HETATM   21  C13 UNL     1       8.610  19.449  -7.488  1.00  0.00     0.116 C
BRANCH  20  22
HETATM   22  S1  UNL     1       6.591  19.667  -9.073  1.00  0.00     0.207 S
HETATM   23  C12 UNL     1       5.349  20.581  -8.199  1.00  0.00     0.180 C
HETATM   24  O2  UNL     1       5.956  18.762 -10.090  1.00  0.00    -0.212 OA
HETATM   25  O3  UNL     1       7.464  20.625  -9.802  1.00  0.00    -0.212 OA
ENDBRANCH  20  22
ENDBRANCH   7  16
BRANCH  12  26
HETATM   26  O4  UNL     1      14.269  18.381  -8.164  1.00  0.00    -0.395 OA
ATOM     27  H4  UNL     1      15.165  18.066  -8.133  1.00  0.00     0.210 HD
ENDBRANCH  12  26
BRANCH   1  28
HETATM   28  O1  UNL     1      11.121  14.983 -11.955  1.00  0.00    -0.281 OA
BRANCH  28  29
HETATM   29  C2  UNL     1      10.596  13.962 -12.753  1.00  0.00     0.196 C
HETATM   30  C1  UNL     1       9.150  14.234 -13.145  1.00  0.00     0.036 C
ENDBRANCH  28  29
ENDBRANCH   1  28
TORSDOF 5
ENDMDL