MODEL 3
REMARK VINA RESULT: -7.634400800      5.089      8.427
REMARK  3 active torsions:
REMARK  status: ('A' for Active; 'I' for Inactive)
REMARK    1  A    between atoms: C8_9  and  N1_10
REMARK    2  A    between atoms: N2_18  and  C14_19
REMARK    3  A    between atoms: C14_19  and  C15_20
ROOT
HETATM    1  C1  UNL     1      16.567  20.953  -6.712  1.00  0.00     0.017 C
HETATM    2  C2  UNL     1      16.397  19.464  -6.640  1.00  0.00    -0.025 C
HETATM    3  C3  UNL     1      17.709  18.923  -7.279  1.00  0.00     0.017 C
HETATM    4  C4  UNL     1      15.306  19.044  -7.586  1.00  0.00     0.040 C
HETATM    5  C5  UNL     1      13.980  18.750  -6.935  1.00  0.00     0.128 C
HETATM    6  C6  UNL     1      14.165  18.048  -5.653  1.00  0.00     0.149 C
HETATM    7  O1  UNL     1      13.812  16.983  -5.296  1.00  0.00    -0.296 OA
HETATM    8  C7  UNL     1      14.954  18.893  -4.671  1.00  0.00     0.105 C
HETATM    9  C8  UNL     1      16.373  18.850  -5.303  1.00  0.00     0.094 C
HETATM   10  C13 UNL     1      13.038  19.856  -6.756  1.00  0.00     0.243 C
HETATM   11  O3  UNL     1      13.023  21.086  -6.465  1.00  0.00    -0.272 OA
HETATM   12  N2  UNL     1      11.976  18.906  -7.075  1.00  0.00    -0.319 N
HETATM   13  C20 UNL     1      12.933  18.259  -7.887  1.00  0.00     0.062 C
HETATM   14  C21 UNL     1      12.861  16.826  -8.146  1.00  0.00     0.033 C
HETATM   15  C22 UNL     1      12.619  16.306  -9.509  1.00  0.00     0.002 C
HETATM   16  C23 UNL     1      12.553  17.274 -10.631  1.00  0.00     0.000 C
HETATM   17  C24 UNL     1      13.594  18.364 -10.330  1.00  0.00     0.002 C
HETATM   18  C25 UNL     1      13.005  19.104  -9.173  1.00  0.00     0.033 C
ENDROOT
BRANCH  12  19
HETATM   19  C14 UNL     1      10.619  18.914  -6.684  1.00  0.00     0.072 C
BRANCH  19  20
HETATM   20  C15 UNL     1       9.542  18.332  -7.473  1.00  0.00     0.024 C
HETATM   21  C16 UNL     1       9.470  18.468  -8.932  1.00  0.00     0.010 C
HETATM   22  C17 UNL     1       8.002  18.683  -9.298  1.00  0.00     0.001 C
HETATM   23  C18 UNL     1       7.633  19.671  -8.183  1.00  0.00     0.001 C
HETATM   24  C19 UNL     1       8.213  18.952  -6.992  1.00  0.00     0.010 C
ENDBRANCH  19  20
ENDBRANCH  12  19
BRANCH   9  25
HETATM   25  N1  UNL     1      17.358  19.174  -4.400  1.00  0.00    -0.403 N
HETATM   26  C9  UNL     1      17.287  20.203  -3.453  1.00  0.00     0.143 C
HETATM   27  C10 UNL     1      18.685  20.861  -3.403  1.00  0.00     0.187 C
HETATM   28  O2  UNL     1      19.661  19.921  -3.636  1.00  0.00    -0.388 OA
HETATM   29  C11 UNL     1      19.356  18.645  -3.169  1.00  0.00     0.187 C
HETATM   30  C12 UNL     1      18.137  18.077  -3.885  1.00  0.00     0.143 C
ENDBRANCH   9  25
TORSDOF 3
ENDMDL