MODEL 3
REMARK VINA RESULT: -7.273986804      2.907      4.641
REMARK  6 active torsions:
REMARK  status: ('A' for Active; 'I' for Inactive)
REMARK    1  A    between atoms: C2_2  and  C3_3
REMARK    2  A    between atoms: C3_3  and  C4_4
REMARK    3  A    between atoms: C4_4  and  C5_5
REMARK    4  A    between atoms: C5_5  and  C6_6
REMARK    5  A    between atoms: C7_7  and  C8_8
REMARK    6  A    between atoms: N1_27  and  C24_28
ROOT
HETATM    1  C24 UNL     1      18.357  18.452  -5.221  1.00  0.00     0.398 C
HETATM    2  C25 UNL     1      19.339  18.422  -4.140  1.00  0.00     0.089 C
HETATM    3  N2  UNL     1      20.126  18.385  -3.296  1.00  0.00    -0.195 NA
ENDROOT
BRANCH   1   4
HETATM    4  N1  UNL     1      17.051  18.291  -4.619  1.00  0.00     0.134 N
HETATM    5  C21 UNL     1      16.403  19.535  -4.347  1.00  0.00     0.384 C
HETATM    6  C20 UNL     1      15.494  19.483  -3.143  1.00  0.00     0.232 C
HETATM    7  O3  UNL     1      15.662  19.891  -5.439  1.00  0.00    -0.348 OA
HETATM    8  O2  UNL     1      14.253  19.965  -3.468  1.00  0.00    -0.380 OA
HETATM    9  C19 UNL     1      13.346  19.012  -3.767  1.00  0.00     0.138 A
HETATM   10  C16 UNL     1      12.691  18.836  -5.003  1.00  0.00     0.026 A
HETATM   11  C17 UNL     1      11.891  19.364  -3.918  1.00  0.00     0.026 A
HETATM   12  C11 UNL     1      13.023  19.470  -6.269  1.00  0.00    -0.025 C
HETATM   13  C15 UNL     1      12.543  17.366  -5.444  1.00  0.00     0.136 C
HETATM   14  C10 UNL     1      11.919  19.330  -7.301  1.00  0.00     0.014 C
HETATM   15  C12 UNL     1      13.420  20.908  -6.281  1.00  0.00     0.016 C
HETATM   16  C13 UNL     1      14.151  18.555  -6.787  1.00  0.00     0.028 C
HETATM   17  C9  UNL     1      10.585  18.920  -6.824  1.00  0.00     0.045 C
HETATM   18  C8  UNL     1      10.435  17.460  -6.502  1.00  0.00     0.200 C
HETATM   19  O1  UNL     1      11.295  16.936  -5.637  1.00  0.00    -0.367 OA
HETATM   20  C14 UNL     1      13.510  17.209  -6.595  1.00  0.00     0.041 C
HETATM   21  C22 UNL     1      15.479  18.759  -6.238  1.00  0.00     0.157 C
HETATM   22  C23 UNL     1      16.116  17.606  -5.503  1.00  0.00     0.309 C
HETATM   23  C18 UNL     1      11.610  20.793  -3.651  1.00  0.00     0.014 C
BRANCH  18  24
HETATM   24  C7  UNL     1      10.312  16.724  -7.774  1.00  0.00    -0.074 C
HETATM   25  C6  UNL     1      10.231  16.114  -8.809  1.00  0.00    -0.104 C
BRANCH  25  26
HETATM   26  C5  UNL     1      10.158  15.356 -10.084  1.00  0.00     0.094 C
BRANCH  26  27
HETATM   27  C4  UNL     1      11.506  15.064 -10.625  1.00  0.00     0.012 C
BRANCH  27  28
HETATM   28  C3  UNL     1      12.624  15.955 -10.256  1.00  0.00     0.000 C
BRANCH  28  29
HETATM   29  C2  UNL     1      12.759  17.257 -10.940  1.00  0.00    -0.005 C
HETATM   30  C1  UNL     1      13.691  18.270 -10.416  1.00  0.00     0.005 C
ENDBRANCH  28  29
ENDBRANCH  27  28
ENDBRANCH  26  27
ENDBRANCH  25  26
ENDBRANCH  18  24
ENDBRANCH   1   4
TORSDOF 6
ENDMDL