MODEL 3
REMARK VINA RESULT: -8.211621070      2.773      6.552
REMARK  4 active torsions:
REMARK  status: ('A' for Active; 'I' for Inactive)
REMARK    1  A    between atoms: C9_12  and  C11_14
REMARK    2  A    between atoms: C11_14  and  N2_15
REMARK    3  A    between atoms: C19_23  and  O2_24
REMARK    4  A    between atoms: O2_24  and  C20_25
ROOT
HETATM    1  C1  UNL     1      14.115  18.342  -5.293  1.00  0.00     0.025 C
HETATM    2  C2  UNL     1      12.879  17.853  -5.254  1.00  0.00     0.005 C
HETATM    3  C3  UNL     1      12.495  16.786  -4.337  1.00  0.00     0.247 C
HETATM    4  O1  UNL     1      13.420  16.106  -3.824  1.00  0.00    -0.268 OA
HETATM    5  N1  UNL     1      11.123  16.577  -4.079  1.00  0.00    -0.356 N
ATOM      6  H1  UNL     1      10.873  15.931  -3.329  1.00  0.00     0.162 HD
HETATM    7  C4  UNL     1      10.057  17.212  -4.801  1.00  0.00     0.133 C
HETATM    8  C5  UNL     1      10.492  18.498  -5.431  1.00  0.00    -0.016 C
HETATM    9  C6  UNL     1      10.754  19.458  -4.257  1.00  0.00     0.018 C
HETATM   10  C7  UNL     1      11.815  18.372  -6.148  1.00  0.00     0.034 C
HETATM   11  C8  UNL     1      11.560  17.301  -7.201  1.00  0.00     0.025 C
HETATM   12  C9  UNL     1      10.600  17.747  -8.249  1.00  0.00    -0.007 C
HETATM   13  C10 UNL     1       9.965  16.412  -8.724  1.00  0.00     0.021 C
HETATM   14  C14 UNL     1       9.554  18.711  -7.798  1.00  0.00     0.008 C
HETATM   15  C15 UNL     1       8.134  18.375  -8.096  1.00  0.00    -0.005 C
HETATM   16  C16 UNL     1       7.605  18.604  -9.443  1.00  0.00     0.005 C
HETATM   17  C17 UNL     1       7.070  19.995  -9.715  1.00  0.00     0.003 C
HETATM   18  C18 UNL     1       5.793  20.286  -8.972  1.00  0.00     0.032 C
HETATM   19  C19 UNL     1       6.190  21.244  -7.854  1.00  0.00     0.132 C
HETATM   20  C22 UNL     1       7.403  20.627  -7.196  1.00  0.00     0.037 C
HETATM   21  C23 UNL     1       7.321  19.148  -7.036  1.00  0.00    -0.007 C
HETATM   22  C24 UNL     1       8.138  18.788  -5.809  1.00  0.00     0.011 C
HETATM   23  C25 UNL     1       9.528  19.101  -6.366  1.00  0.00     0.002 C
ENDROOT
BRANCH  12  24
HETATM   24  C11 UNL     1      11.331  18.257  -9.462  1.00  0.00     0.071 C
BRANCH  24  25
HETATM   25  N2  UNL     1      12.622  17.890  -9.740  1.00  0.00    -0.384 N
HETATM   26  C12 UNL     1      13.790  18.570  -9.518  1.00  0.00     0.120 C
HETATM   27  C13 UNL     1      12.715  16.908 -10.791  1.00  0.00     0.153 C
ENDBRANCH  24  25
ENDBRANCH  12  24
BRANCH  19  28
HETATM   28  O2  UNL     1       5.142  21.532  -6.987  1.00  0.00    -0.316 OA
BRANCH  28  29
HETATM   29  C20 UNL     1       4.096  20.598  -6.895  1.00  0.00     0.255 C
HETATM   30  C21 UNL     1       4.049  19.530  -5.886  1.00  0.00     0.126 C
HETATM   31  O3  UNL     1       3.139  20.668  -7.714  1.00  0.00    -0.266 OA
ENDBRANCH  28  29
ENDBRANCH  19  28
TORSDOF 4
ENDMDL