MODEL 3
REMARK VINA RESULT: -6.565444816      3.497      7.412
REMARK  4 active torsions:
REMARK  status: ('A' for Active; 'I' for Inactive)
REMARK    1  A    between atoms: N1_2  and  C3_4
REMARK    2  A    between atoms: C12_13  and  C13_14
REMARK    3  A    between atoms: C13_14  and  S1_15
REMARK    4  A    between atoms: C15_19  and  O3_20
ROOT
HETATM    1  C3  UNL     1      17.459  19.587  -5.125  1.00  0.00     0.294 C
HETATM    2  C4  UNL     1      16.233  19.950  -4.343  1.00  0.00     0.078 C
HETATM    3  C5  UNL     1      14.981  19.972  -5.146  1.00  0.00    -0.072 C
HETATM    4  C6  UNL     1      13.972  20.063  -4.255  1.00  0.00    -0.023 C
HETATM    5  C7  UNL     1      12.540  20.115  -4.606  1.00  0.00     0.033 C
HETATM    6  C8  UNL     1      12.226  19.726  -6.002  1.00  0.00    -0.001 C
HETATM    7  C9  UNL     1      13.386  19.069  -6.716  1.00  0.00     0.003 C
HETATM    8  C10 UNL     1      13.676  17.690  -6.241  1.00  0.00     0.007 C
HETATM    9  C11 UNL     1      12.520  17.058  -5.499  1.00  0.00     0.014 C
HETATM   10  C12 UNL     1      11.187  17.409  -6.090  1.00  0.00     0.003 C
HETATM   11  C15 UNL     1      10.147  17.047  -5.057  1.00  0.00     0.128 C
HETATM   12  C16 UNL     1       9.057  18.093  -5.124  1.00  0.00     0.033 C
HETATM   13  C17 UNL     1       9.848  19.333  -5.381  1.00  0.00     0.008 C
HETATM   14  C18 UNL     1      11.001  18.910  -6.219  1.00  0.00     0.002 C
HETATM   15  C19 UNL     1      14.622  19.931  -6.554  1.00  0.00    -0.016 C
HETATM   16  C20 UNL     1      14.258  21.330  -7.062  1.00  0.00     0.020 C
HETATM   17  C21 UNL     1      15.645  19.362  -7.494  1.00  0.00     0.021 C
HETATM   18  C22 UNL     1      16.879  20.229  -7.628  1.00  0.00     0.081 C
HETATM   19  C23 UNL     1      17.494  20.474  -6.307  1.00  0.00     0.160 C
HETATM   20  O4  UNL     1      18.087  21.507  -6.182  1.00  0.00    -0.296 OA
ENDROOT
BRANCH  10  21
HETATM   21  C13 UNL     1      11.001  16.783  -7.395  1.00  0.00     0.152 C
BRANCH  21  22
HETATM   22  S1  UNL     1      10.299  17.563  -8.749  1.00  0.00     0.141 S
HETATM   23  C14 UNL     1       8.719  18.267  -8.598  1.00  0.00     0.161 C
HETATM   24  O1  UNL     1      10.161  16.464  -9.820  1.00  0.00    -0.228 OA
HETATM   25  O2  UNL     1      11.276  18.521  -9.454  1.00  0.00    -0.228 OA
ENDBRANCH  21  22
ENDBRANCH  10  21
BRANCH  11  26
HETATM   26  O3  UNL     1      10.667  16.963  -3.768  1.00  0.00    -0.395 OA
ATOM     27  H3  UNL     1      10.708  16.072  -3.442  1.00  0.00     0.210 HD
ENDBRANCH  11  26
BRANCH   1  28
HETATM   28  N1  UNL     1      18.631  19.553  -4.337  1.00  0.00     0.092 N
HETATM   29  C1  UNL     1      19.680  18.682  -4.730  1.00  0.00     0.310 C
HETATM   30  C2  UNL     1      18.284  19.444  -2.932  1.00  0.00     0.310 C
ENDBRANCH   1  28
TORSDOF 4
ENDMDL