MODEL 3
REMARK VINA RESULT: -7.215605250      3.188      5.602
REMARK  12 active torsions:
REMARK  status: ('A' for Active; 'I' for Inactive)
REMARK    1  A    between atoms: N1_1  and  C1_4
REMARK    2  A    between atoms: C3_10  and  S1_11
REMARK    3  A    between atoms: S1_11  and  C4_12
REMARK    4  A    between atoms: C6_15  and  O2_16
REMARK    5  A    between atoms: C6_15  and  C7_18
REMARK    6  A    between atoms: C7_18  and  N4_19
REMARK    7  A    between atoms: C7_18  and  O3_23
REMARK    8  A    between atoms: C8_25  and  C9_26
REMARK    9  A    between atoms: C11_30  and  N5_31
REMARK   10  A    between atoms: C13_35  and  C14_36
REMARK   11  A    between atoms: C15_41  and  C16_42
REMARK   12  A    between atoms: N8_46  and  N9_47
ROOT
HETATM    1  C4  UNL     1      22.156 -12.526  20.954  1.00  0.00     0.164 C
HETATM    2  C5  UNL     1      21.609 -14.090  20.811  1.00  0.00     0.187 C
HETATM    3  O1  UNL     1      22.247 -14.738  20.219  1.00  0.00    -0.293 OA
HETATM    4  C6  UNL     1      20.265 -14.442  21.543  1.00  0.00     0.206 C
HETATM    5  C8  UNL     1      19.172 -13.556  21.405  1.00  0.00     0.168 C
HETATM    6  C10 UNL     1      19.008 -12.366  22.503  1.00  0.00     0.110 C
HETATM    7  C11 UNL     1      20.417 -11.918  22.833  1.00  0.00     0.094 C
HETATM    8  C12 UNL     1      21.108 -12.255  21.876  1.00  0.00     0.026 C
HETATM    9  C13 UNL     1      20.063 -11.584  20.643  1.00  0.00     0.117 C
HETATM   10  N6  UNL     1      19.303 -12.645  20.239  1.00  0.00    -0.362 N
ATOM     11  H6  UNL     1      18.902 -12.786  19.311  1.00  0.00     0.161 HD
ENDROOT
BRANCH   1  12
HETATM   12  S1  UNL     1      23.874 -12.448  21.357  1.00  0.00    -0.091 SA
BRANCH  12  13
HETATM   13  C3  UNL     1      24.118 -12.786  23.121  1.00  0.00     0.123 A
HETATM   14  N3  UNL     1      24.363 -11.839  24.092  1.00  0.00    -0.181 N
HETATM   15  C2  UNL     1      24.663 -12.471  25.221  1.00  0.00     0.722 A
ATOM     16  H3  UNL     1      24.322 -10.828  23.965  1.00  0.00     0.185 HD
HETATM   17  N2  UNL     1      25.054 -12.285  26.526  1.00  0.00    -0.018 N
HETATM   18  N7  UNL     1      24.623 -13.778  25.029  1.00  0.00    -0.040 N
HETATM   19  C1  UNL     1      25.250 -13.488  27.102  1.00  0.00     0.727 A
ATOM     20  H2  UNL     1      25.176 -11.382  26.984  1.00  0.00     0.203 HD
HETATM   21  N8  UNL     1      24.978 -14.393  26.168  1.00  0.00    -0.005 N
HETATM   22  C15 UNL     1      24.272 -13.996  23.725  1.00  0.00     0.187 A
BRANCH  19  23
HETATM   23  N1  UNL     1      25.623 -13.705  28.322  1.00  0.00    -0.231 N
ATOM     24  H12 UNL     1      25.472 -14.549  28.875  1.00  0.00     0.174 HD
ATOM     25  H11 UNL     1      26.128 -13.058  28.926  1.00  0.00     0.174 HD
ENDBRANCH  19  23
BRANCH  21  26
HETATM   26  N9  UNL     1      25.053 -15.794  26.340  1.00  0.00    -0.308 N
ATOM     27  H92 UNL     1      24.459 -16.337  26.966  1.00  0.00     0.179 HD
ATOM     28  H91 UNL     1      25.705 -16.414  25.858  1.00  0.00     0.179 HD
ENDBRANCH  21  26
BRANCH  22  29
HETATM   29  C16 UNL     1      23.924 -15.277  23.144  1.00  0.00     0.232 C
HETATM   30  O10 UNL     1      24.740 -15.717  22.243  1.00  0.00    -0.643 OA
HETATM   31  O11 UNL     1      22.836 -16.060  23.445  1.00  0.00    -0.643 OA
ENDBRANCH  22  29
ENDBRANCH  12  13
ENDBRANCH   1  12
BRANCH   4  32
HETATM   32  O2  UNL     1      20.620 -14.503  22.904  1.00  0.00    -0.375 OA
ATOM     33  H2  UNL     1      20.171 -15.275  23.226  1.00  0.00     0.211 HD
ENDBRANCH   4  32
BRANCH   4  34
HETATM   34  C7  UNL     1      20.098 -15.860  21.035  1.00  0.00     0.361 C
BRANCH  34  35
HETATM   35  N4  UNL     1      19.923 -15.808  19.571  1.00  0.00    -0.050 N
ATOM     36  H43 UNL     1      20.011 -14.863  19.198  1.00  0.00     0.277 HD
ATOM     37  H42 UNL     1      20.703 -16.228  19.067  1.00  0.00     0.277 HD
ATOM     38  H41 UNL     1      19.028 -16.240  19.342  1.00  0.00     0.277 HD
ENDBRANCH  34  35
BRANCH  34  39
HETATM   39  O3  UNL     1      20.957 -16.821  21.349  1.00  0.00    -0.367 OA
ATOM     40  H3  UNL     1      21.300 -17.420  20.697  1.00  0.00     0.212 HD
ENDBRANCH  34  39
ENDBRANCH   4  34
BRANCH   7  41
HETATM   41  N5  UNL     1      20.627 -11.341  24.131  1.00  0.00    -0.119 N
HETATM   42  O6  UNL     1      19.878 -11.419  25.098  1.00  0.00    -0.532 OA
HETATM   43  O7  UNL     1      21.761 -10.587  24.302  1.00  0.00    -0.532 OA
ENDBRANCH   7  41
BRANCH   9  44
HETATM   44  C14 UNL     1      19.625 -10.288  20.834  1.00  0.00     0.227 C
HETATM   45  O8  UNL     1      18.474 -10.087  20.216  1.00  0.00    -0.643 OA
HETATM   46  O9  UNL     1      20.039  -9.173  21.481  1.00  0.00    -0.643 OA
ENDBRANCH   9  44
BRANCH   5  47
HETATM   47  C9  UNL     1      17.782 -13.987  21.390  1.00  0.00     0.206 C
HETATM   48  O4  UNL     1      16.962 -13.816  22.355  1.00  0.00    -0.646 OA
HETATM   49  O5  UNL     1      17.158 -14.636  20.278  1.00  0.00    -0.646 OA
ENDBRANCH   5  47
TORSDOF 12
ENDMDL