MODEL 2
REMARK VINA RESULT: -7.569447351      4.041      5.194
REMARK  16 active torsions:
REMARK  status: ('A' for Active; 'I' for Inactive)
REMARK    1  A    between atoms: C2_2  and  O1_3
REMARK    2  A    between atoms: O1_3  and  C3_4
REMARK       I    between atoms: C3_4  and  N1_6
REMARK    3  A    between atoms: C4_7  and  N2_8
REMARK    4  A    between atoms: C6_14  and  C7_15
REMARK    5  A    between atoms: C7_15  and  O3_16
REMARK    6  A    between atoms: C7_15  and  N5_18
REMARK    7  A    between atoms: N5_18  and  C8_20
REMARK    8  A    between atoms: C8_20  and  C9_21
REMARK    9  A    between atoms: C10_22  and  O4_23
REMARK   10  A    between atoms: C11_25  and  O5_26
REMARK   11  A    between atoms: C12_28  and  N6_29
REMARK   12  A    between atoms: C14_31  and  C15_32
REMARK   13  A    between atoms: C15_32  and  N8_36
REMARK   14  A    between atoms: N8_36  and  N9_38
REMARK   15  A    between atoms: C16_45  and  O6_46
REMARK   16  A    between atoms: C17_48  and  O7_49
ROOT
HETATM    1  N2  UNL     1      15.867 -11.195  28.781  1.00  0.00    -0.126 N
ATOM      2  H2  UNL     1      16.423 -11.530  29.568  1.00  0.00     0.197 HD
HETATM    3  C5  UNL     1      14.469 -10.966  28.937  1.00  0.00     0.196 C
HETATM    4  N3  UNL     1      13.343 -10.762  29.068  1.00  0.00    -0.171 NA
ENDROOT
BRANCH   1   5
HETATM    5  C4  UNL     1      16.482 -10.951  27.522  1.00  0.00     0.695 C
HETATM    6  N1  UNL     1      16.030 -11.476  26.276  1.00  0.00    -0.119 N
HETATM    7  C3  UNL     1      15.334 -12.667  25.973  1.00  0.00     0.381 C
HETATM    8  C19 UNL     1      16.505 -10.441  25.316  1.00  0.00     0.140 C
HETATM    9  O2  UNL     1      15.073 -13.506  26.855  1.00  0.00    -0.237 OA
HETATM   10  C6  UNL     1      17.884 -10.266  25.935  1.00  0.00     0.197 C
HETATM   11  C20 UNL     1      15.590  -9.279  25.544  1.00  0.00     0.036 C
HETATM   12  N4  UNL     1      17.556 -10.246  27.318  1.00  0.00    -0.211 N
ATOM     13  H4  UNL     1      18.082  -9.753  28.040  1.00  0.00     0.178 HD
BRANCH   7  14
HETATM   14  O1  UNL     1      14.945 -12.894  24.681  1.00  0.00    -0.304 OA
BRANCH  14  15
HETATM   15  C2  UNL     1      15.463 -13.837  23.789  1.00  0.00     0.176 C
HETATM   16  C1  UNL     1      14.472 -14.125  22.679  1.00  0.00     0.034 C
ENDBRANCH  14  15
ENDBRANCH   7  14
BRANCH  10  17
HETATM   17  C7  UNL     1      18.667  -9.110  25.398  1.00  0.00     0.137 C
BRANCH  17  18
HETATM   18  O3  UNL     1      18.637  -7.949  26.087  1.00  0.00    -0.348 OA
ATOM     19  H3  UNL     1      18.150  -7.223  25.716  1.00  0.00     0.219 HD
ENDBRANCH  17  18
BRANCH  17  20
HETATM   20  N5  UNL     1      18.639  -9.136  23.999  1.00  0.00    -0.372 N
ATOM     21  H5  UNL     1      17.795  -8.845  23.507  1.00  0.00     0.161 HD
BRANCH  20  22
HETATM   22  C8  UNL     1      19.763  -9.559  23.266  1.00  0.00     0.131 C
BRANCH  22  23
HETATM   23  C9  UNL     1      19.957 -11.094  23.448  1.00  0.00     0.066 C
HETATM   24  C10 UNL     1      21.281 -11.292  24.069  1.00  0.00     0.157 C
HETATM   25  C11 UNL     1      22.149 -12.347  23.459  1.00  0.00     0.174 C
HETATM   26  C12 UNL     1      21.323 -13.352  22.672  1.00  0.00     0.171 C
HETATM   27  C16 UNL     1      20.785 -12.514  21.530  1.00  0.00     0.175 C
HETATM   28  C17 UNL     1      19.596 -11.780  22.212  1.00  0.00     0.160 C
BRANCH  24  29
HETATM   29  O4  UNL     1      21.232 -11.575  25.434  1.00  0.00    -0.392 OA
ATOM     30  H4  UNL     1      20.901 -10.861  25.965  1.00  0.00     0.210 HD
ENDBRANCH  24  29
BRANCH  25  31
HETATM   31  O5  UNL     1      22.902 -13.027  24.405  1.00  0.00    -0.391 OA
ATOM     32  H5  UNL     1      23.078 -13.926  24.153  1.00  0.00     0.210 HD
ENDBRANCH  25  31
BRANCH  26  33
HETATM   33  N6  UNL     1      22.117 -14.446  22.285  1.00  0.00    -0.277 N
HETATM   34  C13 UNL     1      21.893 -15.751  22.438  1.00  0.00     0.147 A
HETATM   35  C14 UNL     1      22.956 -16.445  21.899  1.00  0.00     0.111 A
HETATM   36  N10 UNL     1      23.810 -15.500  21.425  1.00  0.00    -0.281 N
HETATM   37  N11 UNL     1      23.296 -14.312  21.664  1.00  0.00    -0.240 N
ATOM     38  H10 UNL     1      24.701 -15.681  20.962  1.00  0.00     0.188 HD
ATOM     39  H11 UNL     1      23.730 -13.423  21.414  1.00  0.00     0.208 HD
BRANCH  35  40
HETATM   40  C15 UNL     1      23.097 -17.883  21.872  1.00  0.00     0.143 C
HETATM   41  N7  UNL     1      23.550 -18.499  20.813  1.00  0.00    -0.383 N
ATOM     42  H72 UNL     1      23.816 -17.952  19.994  1.00  0.00     0.157 HD
ATOM     43  H71 UNL     1      23.649 -19.514  20.794  1.00  0.00     0.157 HD
BRANCH  40  44
HETATM   44  N8  UNL     1      22.725 -18.646  23.014  1.00  0.00    -0.291 N
ATOM     45  H8  UNL     1      23.344 -18.687  23.824  1.00  0.00     0.188 HD
BRANCH  44  46
HETATM   46  N9  UNL     1      21.524 -19.330  23.027  1.00  0.00    -0.344 N
ATOM     47  H92 UNL     1      20.653 -18.802  22.980  1.00  0.00     0.176 HD
ATOM     48  H91 UNL     1      21.519 -20.349  23.082  1.00  0.00     0.176 HD
ENDBRANCH  44  46
ENDBRANCH  40  44
ENDBRANCH  35  40
ENDBRANCH  26  33
BRANCH  27  49
HETATM   49  O6  UNL     1      21.689 -11.561  21.085  1.00  0.00    -0.391 OA
ATOM     50  H6  UNL     1      21.275 -10.851  20.609  1.00  0.00     0.210 HD
ENDBRANCH  27  49
BRANCH  28  51
HETATM   51  O7  UNL     1      18.677 -12.809  22.349  1.00  0.00    -0.388 OA
HETATM   52  C18 UNL     1      18.168 -13.382  21.244  1.00  0.00     0.202 C
ENDBRANCH  28  51
ENDBRANCH  22  23
ENDBRANCH  20  22
ENDBRANCH  17  20
ENDBRANCH  10  17
ENDBRANCH   1   5
TORSDOF 16
ENDMDL