MODEL 5
REMARK VINA RESULT: -7.228121539      1.581      2.826
REMARK  16 active torsions:
REMARK  status: ('A' for Active; 'I' for Inactive)
REMARK    1  A    between atoms: N1_2  and  C2_4
REMARK    2  A    between atoms: C4_6  and  S1_7
REMARK    3  A    between atoms: S1_7  and  C5_8
REMARK    4  A    between atoms: C6_11  and  N3_12
REMARK    5  A    between atoms: N3_12  and  N4_14
REMARK    6  A    between atoms: C7_17  and  N5_18
REMARK    7  A    between atoms: N5_18  and  O1_20
REMARK    8  A    between atoms: O1_20  and  C8_21
REMARK       I    between atoms: C8_21  and  N6_23
REMARK    9  A    between atoms: N6_23  and  N7_25
REMARK   10  A    between atoms: N8_28  and  C9_29
REMARK   11  A    between atoms: C9_29  and  C10_30
REMARK   12  A    between atoms: C10_30  and  O3_31
REMARK   13  A    between atoms: C10_30  and  C11_33
REMARK   14  A    between atoms: C11_33  and  O4_34
REMARK   15  A    between atoms: O4_34  and  S2_35
REMARK   16  A    between atoms: N11_47  and  O9_48
ROOT
HETATM    1  C5  UNL     1      20.771 -10.944  25.324  1.00  0.00     0.256 A
HETATM    2  N2  UNL     1      20.434 -10.413  26.602  1.00  0.00    -0.342 N
ATOM      3  H2  UNL     1      20.855 -10.698  27.486  1.00  0.00     0.164 HD
HETATM    4  C6  UNL     1      19.528  -9.531  26.471  1.00  0.00     0.164 A
HETATM    5  C7  UNL     1      19.189  -9.417  25.063  1.00  0.00     0.172 A
HETATM    6  N8  UNL     1      19.915 -10.244  24.394  1.00  0.00    -0.330 N
ENDROOT
BRANCH   1   7
HETATM    7  S1  UNL     1      22.493 -10.488  24.944  1.00  0.00    -0.081 SA
BRANCH   7   8
HETATM    8  C4  UNL     1      23.474 -11.862  24.428  1.00  0.00     0.041 A
HETATM    9  C3  UNL     1      23.577 -12.153  23.079  1.00  0.00     0.069 A
HETATM   10  C2  UNL     1      24.366 -13.244  22.696  1.00  0.00     0.103 A
HETATM   11  N9  UNL     1      25.014 -14.000  23.579  1.00  0.00    -0.327 N
HETATM   12  C13 UNL     1      24.900 -13.696  24.888  1.00  0.00     0.142 A
ATOM     13  H9  UNL     1      25.582 -14.790  23.274  1.00  0.00     0.169 HD
HETATM   14  C12 UNL     1      24.144 -12.640  25.349  1.00  0.00     0.129 A
HETATM   15  N10 UNL     1      25.464 -14.300  25.961  1.00  0.00    -0.291 N
HETATM   16  N11 UNL     1      24.276 -12.639  26.683  1.00  0.00    -0.168 N
HETATM   17  C14 UNL     1      25.080 -13.650  27.062  1.00  0.00     0.352 A
HETATM   18  O8  UNL     1      25.387 -13.896  28.273  1.00  0.00    -0.244 OA
ATOM     19  H10 UNL     1      26.077 -15.114  25.932  1.00  0.00     0.172 HD
BRANCH  10  20
HETATM   20  N1  UNL     1      24.452 -13.501  21.452  1.00  0.00    -0.381 N
HETATM   21  C1  UNL     1      24.849 -14.779  20.944  1.00  0.00     0.147 C
ATOM     22  H1  UNL     1      24.228 -12.761  20.787  1.00  0.00     0.160 HD
ENDBRANCH  10  20
BRANCH  16  23
HETATM   23  O9  UNL     1      23.688 -11.720  27.549  1.00  0.00    -0.278 OA
ATOM     24  H9  UNL     1      22.754 -11.612  27.680  1.00  0.00     0.245 HD
ENDBRANCH  16  23
ENDBRANCH   7   8
ENDBRANCH   1   7
BRANCH   6  25
HETATM   25  C9  UNL     1      19.810 -10.392  22.958  1.00  0.00     0.161 C
BRANCH  25  26
HETATM   26  C10 UNL     1      19.354 -11.719  22.477  1.00  0.00     0.161 C
BRANCH  26  27
HETATM   27  O3  UNL     1      20.145 -12.784  22.890  1.00  0.00    -0.392 OA
ATOM     28  H3  UNL     1      19.871 -13.184  23.707  1.00  0.00     0.210 HD
ENDBRANCH  26  27
BRANCH  26  29
HETATM   29  C11 UNL     1      19.406 -11.632  20.935  1.00  0.00     0.226 C
BRANCH  29  30
HETATM   30  O4  UNL     1      20.641 -11.130  20.532  1.00  0.00    -0.254 OA
BRANCH  30  31
HETATM   31  S2  UNL     1      21.489 -12.270  19.659  1.00  0.00     0.251 S
HETATM   32  O5  UNL     1      22.936 -11.808  19.569  1.00  0.00    -0.572 OA
HETATM   33  O6  UNL     1      21.525 -13.606  20.345  1.00  0.00    -0.572 OA
HETATM   34  O7  UNL     1      20.864 -12.393  18.092  1.00  0.00    -0.572 OA
ENDBRANCH  30  31
ENDBRANCH  29  30
ENDBRANCH  26  29
ENDBRANCH  25  26
ENDBRANCH   6  25
BRANCH   4  35
HETATM   35  N3  UNL     1      18.959  -8.800  27.542  1.00  0.00    -0.289 N
ATOM     36  H3  UNL     1      19.369  -7.913  27.832  1.00  0.00     0.188 HD
BRANCH  35  37
HETATM   37  N4  UNL     1      17.837  -9.299  28.194  1.00  0.00    -0.344 N
ATOM     38  H42 UNL     1      17.798 -10.291  28.431  1.00  0.00     0.176 HD
ATOM     39  H41 UNL     1      17.068  -8.670  28.428  1.00  0.00     0.176 HD
ENDBRANCH  35  37
ENDBRANCH   4  35
BRANCH   5  40
HETATM   40  N5  UNL     1      18.204  -8.522  24.505  1.00  0.00    -0.237 N
ATOM     41  H5  UNL     1      18.195  -8.347  23.501  1.00  0.00     0.197 HD
BRANCH  40  42
HETATM   42  O1  UNL     1      17.273  -7.900  25.312  1.00  0.00    -0.178 OA
BRANCH  42  43
HETATM   43  C8  UNL     1      15.905  -8.039  25.091  1.00  0.00     0.401 C
HETATM   44  O2  UNL     1      15.418  -9.207  25.046  1.00  0.00    -0.235 OA
HETATM   45  N6  UNL     1      15.053  -6.902  24.918  1.00  0.00    -0.250 N
ATOM     46  H6  UNL     1      15.439  -5.959  24.954  1.00  0.00     0.191 HD
BRANCH  45  47
HETATM   47  N7  UNL     1      13.696  -7.098  24.699  1.00  0.00    -0.341 N
ATOM     48  H72 UNL     1      13.230  -7.898  25.128  1.00  0.00     0.177 HD
ATOM     49  H71 UNL     1      13.185  -6.438  24.113  1.00  0.00     0.177 HD
ENDBRANCH  45  47
ENDBRANCH  42  43
ENDBRANCH  40  42
ENDBRANCH   5  40
TORSDOF 16
ENDMDL