MODEL 1
REMARK VINA RESULT: -8.873883534      0.000      0.000
REMARK  12 active torsions:
REMARK  status: ('A' for Active; 'I' for Inactive)
REMARK    1  A    between atoms: N1_2  and  C3_4
REMARK    2  A    between atoms: C6_11  and  C7_12
REMARK    3  A    between atoms: C7_12  and  N4_13
REMARK    4  A    between atoms: C7_12  and  C8_17
REMARK    5  A    between atoms: N4_13  and  N5_14
REMARK       I    between atoms: N8_21  and  C9_22
REMARK    6  A    between atoms: C9_22  and  C10_24
REMARK    7  A    between atoms: C10_24  and  O2_25
REMARK    8  A    between atoms: C10_24  and  C11_27
REMARK    9  A    between atoms: C12_29  and  O4_30
REMARK   10  A    between atoms: C13_32  and  N9_33
REMARK       I    between atoms: N9_33  and  C14_35
REMARK   11  A    between atoms: C14_35  and  C15_37
REMARK   12  A    between atoms: C18_48  and  O6_49
ROOT
HETATM    1  C10 UNL     1      21.810 -12.586  22.460  1.00  0.00     0.244 C
ENDROOT
BRANCH   1   2
HETATM    2  C9  UNL     1      22.008 -14.041  22.675  1.00  0.00     0.287 C
HETATM    3  N8  UNL     1      23.120 -14.557  23.394  1.00  0.00    -0.141 N
HETATM    4  N7  UNL     1      24.062 -13.800  23.926  1.00  0.00     0.005 NA
HETATM    5  N14 UNL     1      23.397 -15.841  23.649  1.00  0.00    -0.264 N
HETATM    6  N6  UNL     1      24.946 -14.587  24.523  1.00  0.00    -0.268 N
HETATM    7  C8  UNL     1      24.522 -15.846  24.344  1.00  0.00     0.138 A
ATOM      8  H6  UNL     1      25.786 -14.291  25.022  1.00  0.00     0.185 HD
ATOM      9  H14 UNL     1      22.849 -16.654  23.365  1.00  0.00     0.190 HD
HETATM   10  O1  UNL     1      21.140 -14.836  22.190  1.00  0.00    -0.267 OA
BRANCH   7  11
HETATM   11  C7  UNL     1      25.310 -17.023  24.908  1.00  0.00     0.222 C
BRANCH  11  12
HETATM   12  C6  UNL     1      25.315 -16.836  26.375  1.00  0.00     0.082 A
HETATM   13  C3  UNL     1      26.181 -17.422  27.255  1.00  0.00     0.127 A
HETATM   14  N2  UNL     1      26.038 -17.074  28.583  1.00  0.00    -0.349 N
HETATM   15  C4  UNL     1      25.117 -16.221  29.023  1.00  0.00     0.106 A
ATOM     16  H2  UNL     1      26.672 -17.494  29.263  1.00  0.00     0.167 HD
HETATM   17  C5  UNL     1      24.244 -15.636  28.134  1.00  0.00     0.105 A
HETATM   18  N3  UNL     1      24.369 -15.959  26.846  1.00  0.00    -0.363 N
ATOM     19  H3  UNL     1      23.729 -15.532  26.176  1.00  0.00     0.165 HD
BRANCH  13  20
HETATM   20  N1  UNL     1      27.161 -18.372  26.903  1.00  0.00    -0.374 N
HETATM   21  C1  UNL     1      27.018 -19.689  27.567  1.00  0.00     0.150 C
HETATM   22  C2  UNL     1      28.238 -18.284  25.977  1.00  0.00     0.150 C
ENDBRANCH  13  20
ENDBRANCH  11  12
BRANCH  11  23
HETATM   23  N4  UNL     1      24.461 -18.180  24.610  1.00  0.00    -0.129 NA
BRANCH  23  24
HETATM   24  N5  UNL     1      25.201 -19.208  24.012  1.00  0.00    -0.347 N
ATOM     25  H52 UNL     1      25.606 -19.143  23.079  1.00  0.00     0.172 HD
ATOM     26  H51 UNL     1      25.274 -20.015  24.631  1.00  0.00     0.172 HD
ENDBRANCH  23  24
ENDBRANCH  11  23
ENDBRANCH   7  11
ENDBRANCH   1   2
BRANCH   1  27
HETATM   27  O2  UNL     1      23.032 -11.935  22.337  1.00  0.00    -0.383 OA
ATOM     28  H2  UNL     1      23.497 -12.234  21.564  1.00  0.00     0.210 HD
ENDBRANCH   1  27
BRANCH   1  29
HETATM   29  C11 UNL     1      21.103 -11.952  23.643  1.00  0.00     0.193 C
HETATM   30  O3  UNL     1      21.873 -10.976  24.245  1.00  0.00    -0.348 OA
HETATM   31  C12 UNL     1      20.952 -10.300  25.043  1.00  0.00     0.282 C
HETATM   32  C13 UNL     1      19.759 -10.029  24.154  1.00  0.00     0.171 C
HETATM   33  C18 UNL     1      19.888 -11.169  23.151  1.00  0.00     0.177 C
BRANCH  31  34
HETATM   34  O4  UNL     1      20.545 -11.110  26.113  1.00  0.00    -0.369 OA
ATOM     35  H4  UNL     1      20.105 -10.589  26.774  1.00  0.00     0.212 HD
ENDBRANCH  31  34
BRANCH  32  36
HETATM   36  N9  UNL     1      18.498 -10.155  24.888  1.00  0.00    -0.344 N
HETATM   37  C14 UNL     1      17.862  -9.035  25.471  1.00  0.00     0.272 C
HETATM   38  O5  UNL     1      18.408  -7.892  25.349  1.00  0.00    -0.266 OA
ATOM     39  H9  UNL     1      18.067 -11.075  24.981  1.00  0.00     0.163 HD
BRANCH  37  40
HETATM   40  C15 UNL     1      16.615  -9.212  26.189  1.00  0.00     0.158 A
HETATM   41  N10 UNL     1      16.460  -9.883  27.337  1.00  0.00    -0.183 N
HETATM   42  C16 UNL     1      15.147  -9.830  27.696  1.00  0.00     0.677 A
ATOM     43  H10 UNL     1      17.200 -10.355  27.856  1.00  0.00     0.184 HD
HETATM   44  N11 UNL     1      14.611 -10.352  28.733  1.00  0.00    -0.234 N
HETATM   45  N12 UNL     1      14.508  -9.120  26.755  1.00  0.00    -0.177 N
ATOM     46 2H11 UNL     1      15.098 -10.892  29.449  1.00  0.00     0.174 HD
ATOM     47 1H11 UNL     1      13.628 -10.312  29.002  1.00  0.00     0.174 HD
HETATM   48  C17 UNL     1      15.376  -8.724  25.812  1.00  0.00     0.164 A
ATOM     49  H12 UNL     1      13.509  -8.911  26.756  1.00  0.00     0.185 HD
HETATM   50  N13 UNL     1      15.094  -7.959  24.658  1.00  0.00    -0.080 NA
ENDBRANCH  37  40
ENDBRANCH  32  36
BRANCH  33  51
HETATM   51  O6  UNL     1      18.762 -11.990  23.151  1.00  0.00    -0.391 OA
ATOM     52  H6  UNL     1      18.176 -11.735  22.448  1.00  0.00     0.210 HD
ENDBRANCH  33  51
ENDBRANCH   1  29
TORSDOF 12
ENDMDL