MODEL 2
REMARK VINA RESULT: -8.892442448      0.950      1.959
REMARK  14 active torsions:
REMARK  status: ('A' for Active; 'I' for Inactive)
REMARK    1  A    between atoms: C2_2  and  O1_4
REMARK    2  A    between atoms: C2_2  and  C4_6
REMARK    3  A    between atoms: C4_6  and  O3_8
REMARK    4  A    between atoms: O3_8  and  C5_9
REMARK    5  A    between atoms: C5_9  and  N1_10
REMARK    6  A    between atoms: C7_12  and  C8_13
REMARK    7  A    between atoms: N3_16  and  C9_17
REMARK    8  A    between atoms: C10_19  and  C11_20
REMARK    9  A    between atoms: C11_20  and  O5_21
REMARK   10  A    between atoms: C12_23  and  O6_24
REMARK   11  A    between atoms: C12_23  and  C13_26
REMARK   12  A    between atoms: C14_29  and  O8_30
REMARK   13  A    between atoms: C15_32  and  O9_33
REMARK   14  A    between atoms: C17_38  and  N6_39
ROOT
HETATM    1  C8  UNL     1      20.072 -10.597  25.186  1.00  0.00     0.095 A
HETATM    2  N2  UNL     1      19.423 -11.037  24.066  1.00  0.00    -0.291 N
ATOM      3  H2  UNL     1      18.426 -10.911  23.889  1.00  0.00     0.187 HD
HETATM    4  N3  UNL     1      20.241 -11.636  23.260  1.00  0.00    -0.242 N
HETATM    5  C16 UNL     1      21.472 -11.615  23.818  1.00  0.00     0.156 A
HETATM    6  N5  UNL     1      22.664 -12.082  23.419  1.00  0.00    -0.174 N
ATOM      7  H5  UNL     1      22.711 -12.559  22.519  1.00  0.00     0.186 HD
HETATM    8  C17 UNL     1      23.797 -11.965  24.122  1.00  0.00     0.679 A
HETATM    9  N7  UNL     1      23.706 -11.334  25.296  1.00  0.00    -0.176 N
ATOM     10  H7  UNL     1      24.549 -11.225  25.860  1.00  0.00     0.186 HD
HETATM   11  C18 UNL     1      22.527 -10.829  25.773  1.00  0.00     0.131 A
HETATM   12  N8  UNL     1      22.495 -10.237  26.899  1.00  0.00    -0.384 N
ATOM     13  H81 UNL     1      21.616  -9.861  27.255  1.00  0.00     0.157 HD
ATOM     14  H82 UNL     1      23.353 -10.143  27.442  1.00  0.00     0.157 HD
HETATM   15  C19 UNL     1      21.372 -10.955  25.043  1.00  0.00     0.085 A
ENDROOT
BRANCH   4  16
HETATM   16  C9  UNL     1      19.949 -12.234  21.981  1.00  0.00     0.277 C
HETATM   17  O4  UNL     1      21.056 -12.299  21.139  1.00  0.00    -0.351 OA
HETATM   18  C10 UNL     1      20.495 -12.484  19.853  1.00  0.00     0.194 C
HETATM   19  C12 UNL     1      20.186 -13.942  19.749  1.00  0.00     0.192 C
HETATM   20  C14 UNL     1      19.478 -14.489  20.939  1.00  0.00     0.197 C
HETATM   21  C15 UNL     1      19.245 -13.549  22.065  1.00  0.00     0.201 C
BRANCH  18  22
HETATM   22  C11 UNL     1      21.409 -11.983  18.780  1.00  0.00     0.199 C
BRANCH  22  23
HETATM   23  O5  UNL     1      22.701 -11.906  19.349  1.00  0.00    -0.398 OA
ATOM     24  H5  UNL     1      23.262 -12.473  18.833  1.00  0.00     0.209 HD
ENDBRANCH  22  23
ENDBRANCH  18  22
BRANCH  19  25
HETATM   25  O6  UNL     1      21.406 -14.631  19.551  1.00  0.00    -0.376 OA
ATOM     26  H6  UNL     1      21.838 -14.706  20.394  1.00  0.00     0.211 HD
ENDBRANCH  19  25
BRANCH  19  27
HETATM   27  C13 UNL     1      19.407 -14.136  18.482  1.00  0.00     0.271 C
HETATM   28  N4  UNL     1      18.290 -13.283  18.201  1.00  0.00    -0.059 NA
HETATM   29  O7  UNL     1      19.678 -15.018  17.635  1.00  0.00    -0.273 OA
ENDBRANCH  19  27
BRANCH  20  30
HETATM   30  O8  UNL     1      18.247 -15.005  20.488  1.00  0.00    -0.389 OA
ATOM     31  H8  UNL     1      17.732 -15.214  21.259  1.00  0.00     0.210 HD
ENDBRANCH  20  30
BRANCH  21  32
HETATM   32  O9  UNL     1      17.850 -13.350  22.185  1.00  0.00    -0.388 OA
ATOM     33  H9  UNL     1      17.488 -13.050  21.359  1.00  0.00     0.210 HD
ENDBRANCH  21  32
ENDBRANCH   4  16
BRANCH   1  34
HETATM   34  C7  UNL     1      19.441  -9.888  26.285  1.00  0.00     0.096 A
HETATM   35  C6  UNL     1      18.196 -10.235  26.845  1.00  0.00     0.152 A
HETATM   36  N1  UNL     1      17.890  -9.400  27.834  1.00  0.00    -0.240 N
HETATM   37  N10 UNL     1      18.914  -8.534  27.911  1.00  0.00    -0.235 N
HETATM   38  N9  UNL     1      19.807  -8.839  26.997  1.00  0.00    -0.282 N
ATOM     39  H10 UNL     1      18.986  -7.763  28.575  1.00  0.00     0.209 HD
ATOM     40  H9  UNL     1      20.678  -8.327  26.855  1.00  0.00     0.188 HD
BRANCH  36  41
HETATM   41  C5  UNL     1      16.729  -9.344  28.695  1.00  0.00     0.262 C
BRANCH  41  42
HETATM   42  O3  UNL     1      15.530  -9.741  28.116  1.00  0.00    -0.270 OA
BRANCH  42  43
HETATM   43  C4  UNL     1      14.647 -10.693  28.522  1.00  0.00     0.298 C
HETATM   44  O2  UNL     1      13.643 -10.319  29.176  1.00  0.00    -0.261 OA
BRANCH  43  45
HETATM   45  C2  UNL     1      14.818 -12.155  28.222  1.00  0.00     0.138 C
HETATM   46  C1  UNL     1      15.302 -12.386  26.826  1.00  0.00     0.056 C
HETATM   47  C3  UNL     1      13.484 -12.877  28.412  1.00  0.00     0.056 C
BRANCH  45  48
HETATM   48  O1  UNL     1      15.697 -12.704  29.133  1.00  0.00    -0.380 OA
ATOM     49  H1  UNL     1      16.316 -13.275  28.694  1.00  0.00     0.211 HD
ENDBRANCH  45  48
ENDBRANCH  43  45
ENDBRANCH  42  43
ENDBRANCH  41  42
ENDBRANCH  36  41
ENDBRANCH   1  34
BRANCH   8  50
HETATM   50  N6  UNL     1      24.908 -12.442  23.672  1.00  0.00    -0.234 N
ATOM     51  H62 UNL     1      25.450 -11.979  22.942  1.00  0.00     0.174 HD
ATOM     52  H61 UNL     1      25.291 -13.314  24.037  1.00  0.00     0.174 HD
ENDBRANCH   8  50
TORSDOF 14
ENDMDL