MODEL 4
REMARK VINA RESULT: -8.837770652      1.354      1.882
REMARK  18 active torsions:
REMARK  status: ('A' for Active; 'I' for Inactive)
REMARK    1  A    between atoms: C3_4  and  O2_5
REMARK    2  A    between atoms: O2_5  and  N1_6
REMARK    3  A    between atoms: N1_6  and  C4_8
REMARK    4  A    between atoms: C4_8  and  C5_9
REMARK    5  A    between atoms: C5_9  and  O3_10
REMARK    6  A    between atoms: C5_9  and  N2_12
REMARK    7  A    between atoms: N2_12  and  N3_14
REMARK    8  A    between atoms: N3_14  and  C6_16
REMARK    9  A    between atoms: C6_16  and  C7_17
REMARK       I    between atoms: C7_17  and  N4_19
REMARK   10  A    between atoms: N4_19  and  C8_21
REMARK   11  A    between atoms: C9_23  and  N5_24
REMARK   12  A    between atoms: C12_29  and  N7_30
REMARK   13  A    between atoms: N7_30  and  O6_32
REMARK   14  A    between atoms: C15_40  and  O7_41
REMARK   15  A    between atoms: C16_43  and  O8_44
REMARK   16  A    between atoms: C16_43  and  C17_46
REMARK   17  A    between atoms: C17_46  and  O9_48
REMARK   18  A    between atoms: C19_53  and  N11_54
ROOT
HETATM    1  C8  UNL     1      24.253 -12.415  25.897  1.00  0.00     0.266 C
HETATM    2  O5  UNL     1      24.371 -12.772  27.263  1.00  0.00    -0.336 OA
HETATM    3  C9  UNL     1      24.165 -14.127  27.346  1.00  0.00     0.265 C
HETATM    4  C15 UNL     1      24.556 -14.727  25.988  1.00  0.00     0.208 C
HETATM    5  C16 UNL     1      25.045 -13.534  25.268  1.00  0.00     0.156 C
ENDROOT
BRANCH   1   6
HETATM    6  N4  UNL     1      22.864 -12.404  25.599  1.00  0.00    -0.327 N
HETATM    7  C7  UNL     1      22.189 -11.212  25.157  1.00  0.00     0.260 C
HETATM    8  O4  UNL     1      22.820 -10.129  25.018  1.00  0.00    -0.267 OA
ATOM      9  H4  UNL     1      22.329 -13.266  25.701  1.00  0.00     0.165 HD
BRANCH   7  10
HETATM   10  C6  UNL     1      20.773 -11.224  24.860  1.00  0.00     0.180 C
BRANCH  10  11
HETATM   11  N3  UNL     1      19.906 -10.820  25.710  1.00  0.00    -0.308 N
ATOM     12  H3  UNL     1      18.966 -11.213  25.665  1.00  0.00     0.185 HD
BRANCH  11  13
HETATM   13  N2  UNL     1      20.176  -9.878  26.688  1.00  0.00    -0.303 N
ATOM     14  H2  UNL     1      20.947 -10.005  27.345  1.00  0.00     0.183 HD
BRANCH  13  15
HETATM   15  C5  UNL     1      19.318  -8.693  26.747  1.00  0.00     0.274 C
BRANCH  15  16
HETATM   16  C4  UNL     1      18.618  -8.482  25.470  1.00  0.00     0.141 C
BRANCH  16  17
HETATM   17  N1  UNL     1      17.362  -8.293  25.452  1.00  0.00    -0.273 N
ATOM     18  H1  UNL     1      17.028  -7.338  25.583  1.00  0.00     0.193 HD
BRANCH  17  19
HETATM   19  O2  UNL     1      16.421  -9.270  25.270  1.00  0.00    -0.218 OA
BRANCH  19  20
HETATM   20  C3  UNL     1      15.730  -9.864  26.376  1.00  0.00     0.494 C
HETATM   21  O1  UNL     1      16.176 -11.151  26.511  1.00  0.00    -0.329 OA
HETATM   22  C2  UNL     1      15.099 -11.989  26.644  1.00  0.00     0.180 C
HETATM   23  C1  UNL     1      15.179 -13.018  25.528  1.00  0.00     0.043 C
HETATM   24  C19 UNL     1      13.844 -11.182  26.597  1.00  0.00     0.414 C
HETATM   25  N10 UNL     1      14.322  -9.907  26.070  1.00  0.00     0.008 N
ATOM     26 2H10 UNL     1      13.802  -9.100  26.416  1.00  0.00     0.285 HD
ATOM     27 1H10 UNL     1      14.114  -9.770  25.081  1.00  0.00     0.285 HD
BRANCH  24  28
HETATM   28  N11 UNL     1      13.289 -10.940  27.903  1.00  0.00    -0.047 N
ATOM     29 3H11 UNL     1      13.317 -11.785  28.474  1.00  0.00     0.276 HD
ATOM     30 2H11 UNL     1      13.905 -10.346  28.458  1.00  0.00     0.276 HD
ATOM     31 1H11 UNL     1      12.345 -10.555  27.865  1.00  0.00     0.276 HD
ENDBRANCH  24  28
ENDBRANCH  19  20
ENDBRANCH  17  19
ENDBRANCH  16  17
ENDBRANCH  15  16
BRANCH  15  32
HETATM   32  O3  UNL     1      20.092  -7.602  27.107  1.00  0.00    -0.371 OA
ATOM     33  H3  UNL     1      19.736  -7.141  27.858  1.00  0.00     0.212 HD
ENDBRANCH  15  32
ENDBRANCH  13  15
ENDBRANCH  11  13
ENDBRANCH  10  11
ENDBRANCH   7  10
ENDBRANCH   1   6
BRANCH   5  34
HETATM   34  O8  UNL     1      26.374 -13.301  25.716  1.00  0.00    -0.380 OA
ATOM     35  H8  UNL     1      26.863 -13.165  24.912  1.00  0.00     0.211 HD
ENDBRANCH   5  34
BRANCH   5  36
HETATM   36  C17 UNL     1      25.093 -13.569  23.810  1.00  0.00     0.155 C
HETATM   37  C18 UNL     1      26.023 -14.483  23.121  1.00  0.00     0.042 C
BRANCH  36  38
HETATM   38  O9  UNL     1      23.774 -13.735  23.330  1.00  0.00    -0.393 OA
ATOM     39  H9  UNL     1      23.763 -14.487  22.751  1.00  0.00     0.210 HD
ENDBRANCH  36  38
ENDBRANCH   5  36
BRANCH   3  40
HETATM   40  N5  UNL     1      24.953 -14.746  28.397  1.00  0.00    -0.297 N
HETATM   41  C10 UNL     1      24.604 -15.903  28.981  1.00  0.00     0.188 A
HETATM   42  N6  UNL     1      25.505 -16.238  29.908  1.00  0.00    -0.346 N
HETATM   43  C11 UNL     1      26.460 -15.286  29.932  1.00  0.00     0.124 A
ATOM     44  H6  UNL     1      25.476 -17.071  30.497  1.00  0.00     0.167 HD
HETATM   45  C12 UNL     1      27.611 -15.099  30.663  1.00  0.00     0.157 A
HETATM   46  C14 UNL     1      26.086 -14.360  28.969  1.00  0.00     0.142 A
HETATM   47  N8  UNL     1      28.371 -14.013  30.443  1.00  0.00    -0.335 N
HETATM   48  C13 UNL     1      27.976 -13.134  29.498  1.00  0.00     0.183 A
ATOM     49  H8  UNL     1      29.226 -13.857  30.976  1.00  0.00     0.168 HD
HETATM   50  N9  UNL     1      26.858 -13.293  28.770  1.00  0.00    -0.336 N
ATOM     51  H9  UNL     1      26.601 -12.599  28.068  1.00  0.00     0.168 HD
BRANCH  45  52
HETATM   52  N7  UNL     1      27.975 -15.952  31.564  1.00  0.00    -0.251 N
ATOM     53  H7  UNL     1      28.967 -16.010  31.798  1.00  0.00     0.196 HD
BRANCH  52  54
HETATM   54  O6  UNL     1      27.116 -16.771  32.213  1.00  0.00    -0.288 OA
ATOM     55  H6  UNL     1      26.833 -17.613  31.876  1.00  0.00     0.244 HD
ENDBRANCH  52  54
ENDBRANCH  45  52
ENDBRANCH   3  40
BRANCH   4  56
HETATM   56  O7  UNL     1      23.506 -15.393  25.428  1.00  0.00    -0.388 OA
ATOM     57  H7  UNL     1      23.370 -16.231  25.854  1.00  0.00     0.210 HD
ENDBRANCH   4  56
TORSDOF 18
ENDMDL