MODEL 1
REMARK VINA RESULT: -9.633189410      0.000      0.000
REMARK  12 active torsions:
REMARK  status: ('A' for Active; 'I' for Inactive)
REMARK       I    between atoms: C2_2  and  N1_4
REMARK    1  A    between atoms: N1_4  and  C3_6
REMARK    2  A    between atoms: N2_8  and  C5_9
REMARK    3  A    between atoms: C5_9  and  C6_10
REMARK    4  A    between atoms: C6_10  and  C7_11
REMARK    5  A    between atoms: C7_11  and  S1_12
REMARK    6  A    between atoms: S1_12  and  C8_13
REMARK    7  A    between atoms: C9_16  and  C10_17
REMARK       I    between atoms: C10_17  and  N4_19
REMARK    8  A    between atoms: N4_19  and  C11_20
REMARK    9  A    between atoms: C14_28  and  C15_29
REMARK   10  A    between atoms: N7_32  and  N8_33
REMARK   11  A    between atoms: C16_38  and  O6_39
REMARK   12  A    between atoms: C17_41  and  O7_42
ROOT
HETATM    1  S1  UNL     1      17.893  -9.179  27.156  1.00  0.00    -0.089 SA
ENDROOT
BRANCH   1   2
HETATM    2  C7  UNL     1      16.851 -10.032  28.233  1.00  0.00     0.119 C
BRANCH   2   3
HETATM    3  C6  UNL     1      15.454 -10.344  27.793  1.00  0.00     0.119 C
HETATM    4  N9  UNL     1      14.496  -9.854  28.759  1.00  0.00    -0.126 NA
HETATM    5  N10 UNL     1      13.352 -10.648  28.603  1.00  0.00    -0.113 NA
HETATM    6  C16 UNL     1      13.758 -11.934  28.024  1.00  0.00     0.258 C
HETATM    7  C17 UNL     1      15.267 -11.857  28.058  1.00  0.00     0.195 C
BRANCH   3   8
HETATM    8  C5  UNL     1      15.025 -10.013  26.450  1.00  0.00     0.122 C
BRANCH   8   9
HETATM    9  N2  UNL     1      14.159  -9.010  26.036  1.00  0.00    -0.262 N
HETATM   10  C4  UNL     1      14.474  -7.744  25.713  1.00  0.00     0.166 A
HETATM   11  C3  UNL     1      13.331  -7.078  25.263  1.00  0.00     0.141 A
HETATM   12  N12 UNL     1      12.351  -7.978  25.332  1.00  0.00    -0.269 N
HETATM   13  N11 UNL     1      12.831  -9.091  25.777  1.00  0.00    -0.235 N
ATOM     14  H12 UNL     1      11.377  -7.815  25.075  1.00  0.00     0.190 HD
ATOM     15  H11 UNL     1      12.275  -9.934  25.918  1.00  0.00     0.209 HD
BRANCH  11  16
HETATM   16  N1  UNL     1      13.284  -5.704  24.838  1.00  0.00    -0.311 N
HETATM   17  C2  UNL     1      12.087  -4.952  24.781  1.00  0.00     0.219 C
HETATM   18  C1  UNL     1      10.742  -5.526  25.086  1.00  0.00     0.117 C
HETATM   19  O1  UNL     1      12.182  -3.741  24.447  1.00  0.00    -0.274 OA
ATOM     20  H1  UNL     1      14.156  -5.251  24.564  1.00  0.00     0.170 HD
ENDBRANCH  11  16
ENDBRANCH   8   9
ENDBRANCH   3   8
BRANCH   6  21
HETATM   21  O6  UNL     1      13.275 -12.944  28.849  1.00  0.00    -0.376 OA
ATOM     22  H6  UNL     1      12.502 -13.312  28.436  1.00  0.00     0.211 HD
ENDBRANCH   6  21
BRANCH   7  23
HETATM   23  O7  UNL     1      15.950 -12.660  27.215  1.00  0.00    -0.389 OA
ATOM     24  H7  UNL     1      16.184 -13.505  27.580  1.00  0.00     0.210 HD
ENDBRANCH   7  23
ENDBRANCH   2   3
ENDBRANCH   1   2
BRANCH   1  25
HETATM   25  C8  UNL     1      19.274  -9.730  26.329  1.00  0.00     0.167 A
HETATM   26  N3  UNL     1      20.516  -9.590  26.556  1.00  0.00    -0.328 N
HETATM   27  C9  UNL     1      21.562  -9.976  26.135  1.00  0.00     0.153 A
ATOM     28  H3  UNL     1      20.664  -8.953  27.339  1.00  0.00     0.168 HD
HETATM   29  C14 UNL     1      20.640 -10.809  25.033  1.00  0.00     0.168 A
HETATM   30  N7  UNL     1      19.389 -10.588  25.271  1.00  0.00    -0.231 N
BRANCH  27  31
HETATM   31  C10 UNL     1      22.882 -10.462  25.603  1.00  0.00     0.348 C
HETATM   32  O2  UNL     1      23.419  -9.728  24.707  1.00  0.00    -0.249 OA
HETATM   33  N4  UNL     1      23.523 -11.555  26.020  1.00  0.00    -0.321 NA
BRANCH  33  34
HETATM   34  C11 UNL     1      24.026 -12.421  26.676  1.00  0.00     0.327 A
HETATM   35  N5  UNL     1      23.601 -13.620  27.094  1.00  0.00    -0.297 N
HETATM   36  C12 UNL     1      24.550 -14.246  27.791  1.00  0.00     0.102 A
ATOM     37  H5  UNL     1      22.675 -14.004  26.906  1.00  0.00     0.172 HD
HETATM   38  C13 UNL     1      24.551 -15.608  28.427  1.00  0.00     0.091 C
HETATM   39  N6  UNL     1      25.606 -13.376  27.799  1.00  0.00    -0.245 N
HETATM   40  O3  UNL     1      25.286 -12.336  27.158  1.00  0.00    -0.186 OA
ATOM     41  H6  UNL     1      26.506 -13.541  28.251  1.00  0.00     0.196 HD
ENDBRANCH  33  34
ENDBRANCH  27  31
BRANCH  29  42
HETATM   42  C15 UNL     1      21.164 -11.392  23.839  1.00  0.00     0.231 C
HETATM   43  O4  UNL     1      20.804 -10.805  22.627  1.00  0.00    -0.643 OA
HETATM   44  O5  UNL     1      21.641 -12.684  23.801  1.00  0.00    -0.643 OA
ENDBRANCH  29  42
BRANCH  30  45
HETATM   45  N8  UNL     1      18.280 -11.119  24.591  1.00  0.00    -0.336 N
ATOM     46  H82 UNL     1      17.375 -11.377  24.984  1.00  0.00     0.177 HD
ATOM     47  H81 UNL     1      18.277 -11.301  23.587  1.00  0.00     0.177 HD
ENDBRANCH  30  45
ENDBRANCH   1  25
TORSDOF 12
ENDMDL