MODEL 5
REMARK VINA RESULT: -7.196933837      2.908      8.488
REMARK  18 active torsions:
REMARK  status: ('A' for Active; 'I' for Inactive)
REMARK    1  A    between atoms: N1_1  and  C1_4
REMARK    2  A    between atoms: C2_7  and  O1_8
REMARK    3  A    between atoms: C3_10  and  C4_11
REMARK    4  A    between atoms: C4_11  and  N3_12
REMARK    5  A    between atoms: C4_11  and  C14_38
REMARK    6  A    between atoms: C6_15  and  C7_16
REMARK    7  A    between atoms: C7_16  and  O2_17
REMARK    8  A    between atoms: C9_22  and  C10_23
REMARK    9  A    between atoms: N6_30  and  N7_31
REMARK   10  A    between atoms: N7_31  and  O4_33
REMARK   11  A    between atoms: N8_35  and  O5_36
REMARK   12  A    between atoms: C14_38  and  C15_40
REMARK   13  A    between atoms: C15_40  and  O7_41
REMARK   14  A    between atoms: C15_40  and  C16_43
REMARK   15  A    between atoms: C16_43  and  O8_44
REMARK   16  A    between atoms: C16_43  and  C17_46
REMARK   17  A    between atoms: C17_46  and  O9_47
REMARK   18  A    between atoms: C17_46  and  O10_49
ROOT
HETATM    1  C4  UNL     1      16.984 -10.093  26.391  1.00  0.00     0.203 C
ENDROOT
BRANCH   1   2
HETATM    2  C3  UNL     1      16.052  -9.035  25.885  1.00  0.00     0.092 A
HETATM    3  C2  UNL     1      14.685  -9.162  25.917  1.00  0.00     0.169 A
HETATM    4  N2  UNL     1      13.852  -8.195  25.493  1.00  0.00    -0.170 N
HETATM    5  C1  UNL     1      14.376  -7.065  25.021  1.00  0.00     0.680 A
ATOM      6  H2  UNL     1      12.841  -8.324  25.532  1.00  0.00     0.186 HD
HETATM    7  N9  UNL     1      15.701  -6.886  24.966  1.00  0.00    -0.156 N
HETATM    8  C18 UNL     1      16.559  -7.863  25.394  1.00  0.00     0.272 A
ATOM      9  H9  UNL     1      16.076  -6.012  24.599  1.00  0.00     0.187 HD
HETATM   10  O11 UNL     1      17.765  -7.636  25.322  1.00  0.00    -0.267 OA
BRANCH   3  11
HETATM   11  O1  UNL     1      14.115 -10.328  26.405  1.00  0.00    -0.345 OA
ATOM     12  H1  UNL     1      14.698 -11.052  26.600  1.00  0.00     0.219 HD
ENDBRANCH   3  11
BRANCH   5  13
HETATM   13  N1  UNL     1      13.582  -6.117  24.606  1.00  0.00    -0.234 N
ATOM     14  H12 UNL     1      13.435  -5.988  23.605  1.00  0.00     0.174 HD
ATOM     15  H11 UNL     1      13.118  -5.519  25.289  1.00  0.00     0.174 HD
ENDBRANCH   5  13
ENDBRANCH   1   2
BRANCH   1  16
HETATM   16  N3  UNL     1      17.665 -10.744  25.382  1.00  0.00    -0.357 N
HETATM   17  C5  UNL     1      18.706 -11.057  24.846  1.00  0.00     0.150 C
HETATM   18  C6  UNL     1      20.077 -10.726  25.232  1.00  0.00     0.075 C
HETATM   19  N8  UNL     1      18.679 -11.873  23.635  1.00  0.00    -0.231 N
HETATM   20  N4  UNL     1      21.098 -11.125  24.561  1.00  0.00    -0.386 N
HETATM   21  C8  UNL     1      21.060 -11.941  23.355  1.00  0.00     0.154 C
ATOM     22  H4  UNL     1      22.017 -10.845  24.903  1.00  0.00     0.159 HD
HETATM   23  C9  UNL     1      19.770 -11.714  22.697  1.00  0.00     0.187 C
ATOM     24  H3  UNL     1      16.937 -11.170  24.809  1.00  0.00     0.162 HD
BRANCH  18  25
HETATM   25  C7  UNL     1      20.356  -9.926  26.437  1.00  0.00     0.224 C
BRANCH  25  26
HETATM   26  O2  UNL     1      21.672  -9.425  26.472  1.00  0.00    -0.395 OA
ATOM     27  H2  UNL     1      22.135  -9.654  27.270  1.00  0.00     0.209 HD
ENDBRANCH  25  26
ENDBRANCH  18  25
BRANCH  23  28
HETATM   28  C10 UNL     1      19.438 -12.438  21.480  1.00  0.00     0.082 A
HETATM   29  C11 UNL     1      19.575 -13.826  21.538  1.00  0.00     0.117 A
HETATM   30  N5  UNL     1      19.301 -14.596  20.470  1.00  0.00    -0.368 N
HETATM   31  C12 UNL     1      18.891 -14.087  19.318  1.00  0.00     0.164 A
ATOM     32  H5  UNL     1      19.413 -15.607  20.550  1.00  0.00     0.164 HD
HETATM   33  C13 UNL     1      18.750 -12.716  19.248  1.00  0.00     0.283 A
HETATM   34  O3  UNL     1      18.365 -12.196  18.181  1.00  0.00    -0.265 OA
HETATM   35  N6  UNL     1      19.027 -11.942  20.326  1.00  0.00    -0.200 N
BRANCH  35  36
HETATM   36  N7  UNL     1      18.863 -10.590  20.185  1.00  0.00    -0.200 N
ATOM     37  H7  UNL     1      18.049 -10.174  20.637  1.00  0.00     0.216 HD
BRANCH  36  38
HETATM   38  O4  UNL     1      19.613  -9.823  19.559  1.00  0.00    -0.274 OA
ATOM     39  H4  UNL     1      19.871  -8.949  19.828  1.00  0.00     0.246 HD
ENDBRANCH  36  38
ENDBRANCH  35  36
ENDBRANCH  23  28
BRANCH  19  40
HETATM   40  O5  UNL     1      17.646 -12.754  23.436  1.00  0.00    -0.285 OA
ATOM     41  H5  UNL     1      17.551 -13.503  24.013  1.00  0.00     0.245 HD
ENDBRANCH  19  40
ENDBRANCH   1  16
BRANCH   1  42
HETATM   42  C14 UNL     1      16.260 -11.089  27.269  1.00  0.00     0.212 C
HETATM   43  O6  UNL     1      15.898 -12.123  26.786  1.00  0.00    -0.287 OA
BRANCH  42  44
HETATM   44  C15 UNL     1      16.003 -10.818  28.690  1.00  0.00     0.148 C
BRANCH  44  45
HETATM   45  O7  UNL     1      15.613  -9.487  28.859  1.00  0.00    -0.355 OA
ATOM     46  H7  UNL     1      16.378  -8.938  28.991  1.00  0.00     0.218 HD
ENDBRANCH  44  45
BRANCH  44  47
HETATM   47  C16 UNL     1      15.294 -11.803  29.506  1.00  0.00     0.135 C
BRANCH  47  48
HETATM   48  O8  UNL     1      15.861 -13.067  29.545  1.00  0.00    -0.358 OA
ATOM     49  H8  UNL     1      16.775 -13.114  29.292  1.00  0.00     0.217 HD
ENDBRANCH  47  48
BRANCH  47  50
HETATM   50  C17 UNL     1      13.813 -11.899  29.417  1.00  0.00     0.315 C
BRANCH  50  51
HETATM   51  O9  UNL     1      13.560 -12.832  28.364  1.00  0.00    -0.365 OA
ATOM     52  H9  UNL     1      12.898 -13.421  28.706  1.00  0.00     0.213 HD
ENDBRANCH  50  51
BRANCH  50  53
HETATM   53  O10 UNL     1      13.213 -10.724  28.928  1.00  0.00    -0.365 OA
ATOM     54  H10 UNL     1      13.234 -10.664  27.981  1.00  0.00     0.213 HD
ENDBRANCH  50  53
ENDBRANCH  47  50
ENDBRANCH  44  47
ENDBRANCH  42  44
ENDBRANCH   1  42
TORSDOF 18
ENDMDL