MODEL 5
REMARK VINA RESULT: -8.059299373      2.063      3.580
REMARK  14 active torsions:
REMARK  status: ('A' for Active; 'I' for Inactive)
REMARK       I    between atoms: N1_2  and  C2_4
REMARK    1  A    between atoms: C2_4  and  C3_6
REMARK    2  A    between atoms: C5_8  and  N2_9
REMARK    3  A    between atoms: C6_13  and  C7_14
REMARK       I    between atoms: C7_14  and  N5_16
REMARK    4  A    between atoms: N5_16  and  N6_18
REMARK    5  A    between atoms: N6_18  and  C8_19
REMARK    6  A    between atoms: C9_20  and  O3_21
REMARK    7  A    between atoms: C10_23  and  N7_24
REMARK    8  A    between atoms: C12_29  and  N8_30
REMARK    9  A    between atoms: C13_32  and  N10_35
REMARK   10  A    between atoms: N10_35  and  O4_37
REMARK   11  A    between atoms: O4_37  and  C15_38
REMARK   12  A    between atoms: C17_43  and  C18_44
REMARK   13  A    between atoms: C18_44  and  N12_45
REMARK   14  A    between atoms: C18_44  and  O5_49
ROOT
HETATM    1  N8  UNL     1      24.707 -14.550  21.587  1.00  0.00    -0.361 N
ATOM      2  H8  UNL     1      25.163 -13.924  20.923  1.00  0.00     0.162 HD
HETATM    3  C13 UNL     1      25.495 -15.416  21.956  1.00  0.00     0.204 C
HETATM    4  C14 UNL     1      26.845 -15.407  21.426  1.00  0.00     0.138 C
HETATM    5  N9  UNL     1      27.929 -15.381  21.003  1.00  0.00    -0.188 NA
ENDROOT
BRANCH   3   6
HETATM    6  N10 UNL     1      25.176 -16.452  22.859  1.00  0.00    -0.239 N
ATOM      7  H10 UNL     1      24.542 -17.197  22.570  1.00  0.00     0.197 HD
BRANCH   6   8
HETATM    8  O4  UNL     1      25.696 -16.465  24.092  1.00  0.00    -0.243 OA
BRANCH   8   9
HETATM    9  C15 UNL     1      25.120 -17.390  24.929  1.00  0.00     0.376 A
HETATM   10  C16 UNL     1      25.447 -17.341  26.411  1.00  0.00     0.299 A
HETATM   11  N11 UNL     1      24.183 -16.831  25.881  1.00  0.00    -0.041 N
ATOM     12 2H11 UNL     1      23.708 -15.931  25.950  1.00  0.00     0.280 HD
ATOM     13 1H11 UNL     1      23.205 -17.023  26.097  1.00  0.00     0.280 HD
ENDBRANCH   8   9
ENDBRANCH   6   8
ENDBRANCH   3   6
BRANCH   1  14
HETATM   14  C12 UNL     1      23.378 -14.149  21.791  1.00  0.00     0.096 C
HETATM   15  C11 UNL     1      22.549 -14.132  20.540  1.00  0.00     0.061 C
HETATM   16  C10 UNL     1      21.318 -13.321  20.549  1.00  0.00     0.215 C
HETATM   17  C9  UNL     1      20.832 -12.930  21.914  1.00  0.00     0.170 C
HETATM   18  C8  UNL     1      21.921 -12.299  22.720  1.00  0.00     0.140 C
HETATM   19  C17 UNL     1      23.280 -12.889  22.571  1.00  0.00     0.088 C
BRANCH  16  20
HETATM   20  N7  UNL     1      21.422 -12.079  19.783  1.00  0.00    -0.072 N
ATOM     21  H73 UNL     1      20.767 -11.359  20.086  1.00  0.00     0.274 HD
ATOM     22  H72 UNL     1      22.278 -11.556  19.971  1.00  0.00     0.274 HD
ATOM     23  H71 UNL     1      21.314 -12.340  18.803  1.00  0.00     0.274 HD
ENDBRANCH  16  20
BRANCH  17  24
HETATM   24  O3  UNL     1      20.164 -13.967  22.555  1.00  0.00    -0.392 OA
ATOM     25  H3  UNL     1      19.223 -13.855  22.612  1.00  0.00     0.210 HD
ENDBRANCH  17  24
BRANCH  18  26
HETATM   26  N6  UNL     1      21.530 -12.192  24.134  1.00  0.00    -0.130 NA
BRANCH  26  27
HETATM   27  N5  UNL     1      20.487 -11.288  24.240  1.00  0.00    -0.268 N
HETATM   28  C7  UNL     1      20.212 -10.641  25.447  1.00  0.00     0.288 C
HETATM   29  O2  UNL     1      20.898 -10.858  26.466  1.00  0.00    -0.264 OA
ATOM     30  H5  UNL     1      19.910 -11.090  23.423  1.00  0.00     0.185 HD
BRANCH  28  31
HETATM   31  C6  UNL     1      19.104  -9.695  25.515  1.00  0.00     0.158 A
HETATM   32  N4  UNL     1      19.206  -8.339  25.656  1.00  0.00    -0.275 N
HETATM   33  N3  UNL     1      17.991  -7.822  25.681  1.00  0.00    -0.012 NA
ATOM     34  H4  UNL     1      20.077  -7.813  25.730  1.00  0.00     0.184 HD
HETATM   35  N2  UNL     1      17.070  -8.771  25.562  1.00  0.00    -0.206 N
HETATM   36  C19 UNL     1      17.752  -9.932  25.459  1.00  0.00     0.171 A
HETATM   37  N13 UNL     1      17.137 -11.207  25.316  1.00  0.00    -0.078 NA
BRANCH  35  38
HETATM   38  C5  UNL     1      15.667  -8.553  25.556  1.00  0.00     0.150 A
HETATM   39  C4  UNL     1      15.009  -7.443  25.075  1.00  0.00     0.097 A
HETATM   40  C3  UNL     1      13.654  -7.614  25.245  1.00  0.00     0.170 A
HETATM   41  O6  UNL     1      13.523  -8.796  25.812  1.00  0.00    -0.231 OA
HETATM   42  N14 UNL     1      14.691  -9.359  26.001  1.00  0.00    -0.243 N
ATOM     43  H14 UNL     1      14.836 -10.275  26.424  1.00  0.00     0.196 HD
BRANCH  40  44
HETATM   44  C2  UNL     1      12.586  -6.677  24.871  1.00  0.00     0.277 C
HETATM   45  N1  UNL     1      12.902  -5.284  24.921  1.00  0.00    -0.360 N
HETATM   46  C1  UNL     1      11.885  -4.331  24.563  1.00  0.00     0.149 C
ATOM     47  H1  UNL     1      13.830  -4.972  25.205  1.00  0.00     0.162 HD
HETATM   48  O1  UNL     1      11.456  -7.037  24.524  1.00  0.00    -0.265 OA
ENDBRANCH  40  44
ENDBRANCH  35  38
ENDBRANCH  28  31
ENDBRANCH  26  27
ENDBRANCH  18  26
BRANCH  19  49
HETATM   49  C18 UNL     1      23.877 -13.007  23.962  1.00  0.00     0.324 C
BRANCH  49  50
HETATM   50  N12 UNL     1      25.303 -12.663  23.828  1.00  0.00    -0.053 N
ATOM     51 3H12 UNL     1      25.926 -13.464  23.935  1.00  0.00     0.277 HD
ATOM     52 2H12 UNL     1      25.574 -12.421  22.875  1.00  0.00     0.277 HD
ATOM     53 1H12 UNL     1      25.481 -11.919  24.502  1.00  0.00     0.277 HD
ENDBRANCH  49  50
BRANCH  49  54
HETATM   54  O5  UNL     1      23.843 -14.256  24.512  1.00  0.00    -0.369 OA
ATOM     55  H5  UNL     1      24.571 -14.471  25.083  1.00  0.00     0.212 HD
ENDBRANCH  49  54
ENDBRANCH  19  49
ENDBRANCH   1  14
TORSDOF 14
ENDMDL