MODEL 4
REMARK VINA RESULT: -6.914494313      1.403      2.321
REMARK  17 active torsions:
REMARK  status: ('A' for Active; 'I' for Inactive)
REMARK    1  A    between atoms: O1_2  and  C2_3
REMARK    2  A    between atoms: C3_4  and  C4_5
REMARK    3  A    between atoms: C4_5  and  O2_6
REMARK    4  A    between atoms: C4_5  and  O3_8
REMARK    5  A    between atoms: O3_8  and  C5_9
REMARK    6  A    between atoms: C6_10  and  O4_11
REMARK    7  A    between atoms: C7_13  and  C8_14
REMARK    8  A    between atoms: C8_14  and  O5_15
REMARK    9  A    between atoms: O5_15  and  C9_16
REMARK   10  A    between atoms: C10_22  and  C11_23
REMARK   11  A    between atoms: C11_23  and  O7_24
REMARK   12  A    between atoms: C12_26  and  O8_27
REMARK   13  A    between atoms: C13_29  and  C14_30
REMARK   14  A    between atoms: C14_30  and  O9_31
REMARK   15  A    between atoms: C14_30  and  C15_33
REMARK   16  A    between atoms: C15_33  and  O10_34
REMARK   17  A    between atoms: C18_42  and  O13_43
ROOT
HETATM    1  C5  UNL     1      16.990 -10.119  26.224  1.00  0.00     0.199 C
HETATM    2  C6  UNL     1      16.603 -11.598  25.990  1.00  0.00     0.215 C
HETATM    3  C7  UNL     1      15.065 -11.575  25.967  1.00  0.00     0.216 C
HETATM    4  O6  UNL     1      14.678 -11.453  27.272  1.00  0.00    -0.340 OA
HETATM    5  C10 UNL     1      15.203 -10.392  27.941  1.00  0.00     0.188 C
HETATM    6  C12 UNL     1      15.831  -9.449  26.890  1.00  0.00     0.143 C
HETATM    7  C13 UNL     1      14.701  -9.292  25.877  1.00  0.00     0.196 C
HETATM    8  O11 UNL     1      14.711 -10.495  25.167  1.00  0.00    -0.340 OA
ENDROOT
BRANCH   1   9
HETATM    9  O3  UNL     1      18.193 -10.073  26.924  1.00  0.00    -0.344 OA
BRANCH   9  10
HETATM   10  C4  UNL     1      19.218  -9.469  26.240  1.00  0.00     0.311 C
BRANCH  10  11
HETATM   11  C3  UNL     1      19.736 -10.154  25.065  1.00  0.00     0.103 A
HETATM   12  C2  UNL     1      20.748 -11.065  25.113  1.00  0.00     0.125 A
HETATM   13  C20 UNL     1      21.230 -11.704  23.966  1.00  0.00     0.103 A
HETATM   14  C17 UNL     1      20.673 -11.410  22.756  1.00  0.00     0.115 A
HETATM   15  N5  UNL     1      22.190 -12.619  23.736  1.00  0.00    -0.293 N
HETATM   16  C16 UNL     1      19.663 -10.497  22.720  1.00  0.00     0.262 A
HETATM   17  C18 UNL     1      21.345 -12.187  21.813  1.00  0.00     0.175 A
HETATM   18  N3  UNL     1      19.210  -9.890  23.832  1.00  0.00    -0.320 N
HETATM   19  O12 UNL     1      19.164 -10.242  21.576  1.00  0.00    -0.267 OA
ATOM     20  H3  UNL     1      18.451  -9.212  23.752  1.00  0.00     0.169 HD
HETATM   21  N4  UNL     1      22.264 -12.911  22.446  1.00  0.00    -0.274 N
HETATM   22  C19 UNL     1      23.213 -13.871  21.895  1.00  0.00     0.180 C
ATOM     23  H5  UNL     1      22.781 -13.032  24.458  1.00  0.00     0.187 HD
BRANCH  12  24
HETATM   24  O1  UNL     1      21.366 -11.420  26.281  1.00  0.00    -0.352 OA
HETATM   25  C1  UNL     1      22.639 -11.002  26.676  1.00  0.00     0.210 C
ENDBRANCH  12  24
BRANCH  17  26
HETATM   26  O13 UNL     1      21.078 -12.180  20.469  1.00  0.00    -0.344 OA
ATOM     27  H13 UNL     1      21.183 -12.930  19.895  1.00  0.00     0.219 HD
ENDBRANCH  17  26
ENDBRANCH  10  11
BRANCH  10  28
HETATM   28  O2  UNL     1      18.962  -8.104  26.010  1.00  0.00    -0.366 OA
ATOM     29  H2  UNL     1      19.021  -7.866  25.092  1.00  0.00     0.213 HD
ENDBRANCH  10  28
ENDBRANCH   9  10
ENDBRANCH   1   9
BRANCH   2  30
HETATM   30  O4  UNL     1      17.096 -12.065  24.777  1.00  0.00    -0.387 OA
ATOM     31  H4  UNL     1      17.096 -13.014  24.746  1.00  0.00     0.210 HD
ENDBRANCH   2  30
BRANCH   6  32
HETATM   32  O8  UNL     1      16.103  -8.243  27.485  1.00  0.00    -0.382 OA
ATOM     33  H8  UNL     1      16.590  -8.286  28.299  1.00  0.00     0.211 HD
ENDBRANCH   6  32
BRANCH   3  34
HETATM   34  C8  UNL     1      14.541 -12.806  25.322  1.00  0.00     0.249 C
BRANCH  34  35
HETATM   35  O5  UNL     1      14.619 -12.740  23.929  1.00  0.00    -0.319 OA
BRANCH  35  36
HETATM   36  C9  UNL     1      14.767 -13.853  23.132  1.00  0.00     0.225 C
HETATM   37  N1  UNL     1      15.984 -14.263  22.936  1.00  0.00    -0.368 N
ATOM     38  H12 UNL     1      16.768 -13.769  23.362  1.00  0.00     0.159 HD
ATOM     39  H11 UNL     1      16.093 -15.087  22.345  1.00  0.00     0.159 HD
HETATM   40  N2  UNL     1      13.660 -14.551  22.529  1.00  0.00    -0.057 NA
ENDBRANCH  35  36
ENDBRANCH  34  35
ENDBRANCH   3  34
BRANCH   5  41
HETATM   41  C11 UNL     1      16.072 -10.654  29.096  1.00  0.00     0.199 C
BRANCH  41  42
HETATM   42  O7  UNL     1      15.910 -12.007  29.464  1.00  0.00    -0.398 OA
ATOM     43  H7  UNL     1      15.139 -12.070  30.016  1.00  0.00     0.209 HD
ENDBRANCH  41  42
ENDBRANCH   5  41
BRANCH   7  44
HETATM   44  C14 UNL     1      14.768  -8.102  25.012  1.00  0.00     0.173 C
BRANCH  44  45
HETATM   45  O9  UNL     1      15.987  -7.518  24.807  1.00  0.00    -0.391 OA
ATOM     46  H9  UNL     1      16.409  -7.088  25.542  1.00  0.00     0.210 HD
ENDBRANCH  44  45
BRANCH  44  47
HETATM   47  C15 UNL     1      13.756  -7.036  25.344  1.00  0.00     0.198 C
BRANCH  47  48
HETATM   48  O10 UNL     1      12.818  -6.916  24.277  1.00  0.00    -0.398 OA
ATOM     49  H10 UNL     1      12.884  -7.674  23.707  1.00  0.00     0.209 HD
ENDBRANCH  47  48
ENDBRANCH  44  47
ENDBRANCH   7  44
TORSDOF 17
ENDMDL