MODEL 5
REMARK VINA RESULT: -7.176256134      8.315     12.326
REMARK  8 active torsions:
REMARK  status: ('A' for Active; 'I' for Inactive)
REMARK    1  A    between atoms: N1_1  and  S1_4
REMARK    2  A    between atoms: S1_4  and  C1_7
REMARK    3  A    between atoms: C4_10  and  N2_11
REMARK       I    between atoms: N2_11  and  C5_13
REMARK    4  A    between atoms: C5_13  and  C6_15
REMARK    5  A    between atoms: C6_15  and  O4_16
REMARK    6  A    between atoms: O4_16  and  C7_17
REMARK    7  A    between atoms: C7_17  and  C8_19
REMARK    8  A    between atoms: C11_22  and  N3_23
ROOT
HETATM    1  N2  UNL     1      21.520 -12.129  -2.393  1.00  0.00    -0.325 N
ATOM      2  H2  UNL     1      20.935 -11.300  -2.284  1.00  0.00     0.169 HD
HETATM    3  C5  UNL     1      22.786 -11.920  -2.961  1.00  0.00     0.246 C
HETATM    4  O3  UNL     1      23.587 -12.864  -3.145  1.00  0.00    -0.271 OA
ENDROOT
BRANCH   3   5
HETATM    5  C6  UNL     1      23.265 -10.586  -3.386  1.00  0.00     0.282 C
BRANCH   5   6
HETATM    6  O4  UNL     1      22.391  -9.528  -3.212  1.00  0.00    -0.308 OA
BRANCH   6   7
HETATM    7  C7  UNL     1      22.723  -8.233  -2.915  1.00  0.00     0.293 C
HETATM    8  O5  UNL     1      22.974  -7.427  -3.820  1.00  0.00    -0.259 OA
BRANCH   7   9
HETATM    9  C8  UNL     1      22.776  -7.812  -1.526  1.00  0.00     0.039 A
HETATM   10  C9  UNL     1      21.879  -6.907  -0.999  1.00  0.00     0.020 A
HETATM   11  C10 UNL     1      21.891  -6.482   0.304  1.00  0.00     0.031 A
HETATM   12  C11 UNL     1      22.877  -7.003   1.146  1.00  0.00     0.038 A
HETATM   13  C16 UNL     1      23.789  -7.909   0.656  1.00  0.00     0.031 A
HETATM   14  C17 UNL     1      23.736  -8.306  -0.662  1.00  0.00     0.020 A
BRANCH  12  15
HETATM   15  N3  UNL     1      22.948  -6.608   2.501  1.00  0.00    -0.333 N
HETATM   16  C12 UNL     1      22.368  -5.524   3.077  1.00  0.00     0.096 A
HETATM   17  C13 UNL     1      22.683  -5.500   4.421  1.00  0.00     0.019 A
HETATM   18  C14 UNL     1      23.475  -6.609   4.629  1.00  0.00     0.019 A
HETATM   19  C15 UNL     1      23.622  -7.271   3.441  1.00  0.00     0.096 A
ENDBRANCH  12  15
ENDBRANCH   7   9
ENDBRANCH   6   7
ENDBRANCH   5   6
ENDBRANCH   3   5
BRANCH   1  20
HETATM   20  C4  UNL     1      20.956 -13.350  -1.951  1.00  0.00     0.034 A
HETATM   21  C3  UNL     1      20.528 -13.604  -0.667  1.00  0.00     0.031 A
HETATM   22  C2  UNL     1      19.956 -14.831  -0.304  1.00  0.00     0.027 A
HETATM   23  C1  UNL     1      19.796 -15.843  -1.217  1.00  0.00     0.079 A
HETATM   24  C19 UNL     1      20.218 -15.608  -2.504  1.00  0.00     0.027 A
HETATM   25  C18 UNL     1      20.777 -14.408  -2.859  1.00  0.00     0.031 A
BRANCH  23  26
HETATM   26  S1  UNL     1      19.075 -17.382  -0.751  1.00  0.00     0.256 S
HETATM   27  O1  UNL     1      17.913 -17.177   0.179  1.00  0.00    -0.201 OA
HETATM   28  O2  UNL     1      20.080 -18.250  -0.040  1.00  0.00    -0.201 OA
BRANCH  26  29
HETATM   29  N1  UNL     1      18.493 -18.232  -2.136  1.00  0.00    -0.324 N
ATOM     30  H12 UNL     1      17.879 -17.845  -2.852  1.00  0.00     0.169 HD
ATOM     31  H11 UNL     1      18.874 -19.177  -2.101  1.00  0.00     0.169 HD
ENDBRANCH  26  29
ENDBRANCH  23  26
ENDBRANCH   1  20
TORSDOF 8
ENDMDL