MODEL 5
REMARK VINA RESULT: -6.408193346      1.247      1.560
REMARK  8 active torsions:
REMARK  status: ('A' for Active; 'I' for Inactive)
REMARK    1  A    between atoms: N1_1  and  N2_4
REMARK       I    between atoms: N2_4  and  C1_5
REMARK    2  A    between atoms: C1_5  and  C2_7
REMARK    3  A    between atoms: C2_7  and  C16_30
REMARK    4  A    between atoms: C3_8  and  C4_9
REMARK    5  A    between atoms: C3_8  and  N5_24
REMARK       I    between atoms: C4_9  and  N3_11
REMARK    6  A    between atoms: N3_11  and  N4_13
REMARK       I    between atoms: N4_13  and  C5_15
REMARK    7  A    between atoms: C5_15  and  C6_17
REMARK    8  A    between atoms: C6_17  and  C7_18
ROOT
HETATM    1  C2  UNL     1      26.464 -14.067  -6.303  1.00  0.00     0.091 C
HETATM    2  C3  UNL     1      26.542 -13.192  -5.341  1.00  0.00     0.127 C
ENDROOT
BRANCH   2   3
HETATM    3  C4  UNL     1      25.448 -12.742  -4.484  1.00  0.00     0.288 C
HETATM    4  O2  UNL     1      25.080 -11.561  -4.378  1.00  0.00    -0.264 OA
HETATM    5  N3  UNL     1      24.704 -13.676  -3.680  1.00  0.00    -0.262 N
ATOM      6  H3  UNL     1      24.951 -14.664  -3.716  1.00  0.00     0.190 HD
BRANCH   5   7
HETATM    7  N4  UNL     1      23.658 -13.272  -2.857  1.00  0.00    -0.267 N
HETATM    8  C5  UNL     1      22.331 -13.146  -3.321  1.00  0.00     0.240 C
HETATM    9  O3  UNL     1      22.072 -13.404  -4.515  1.00  0.00    -0.272 OA
ATOM     10  H4  UNL     1      23.858 -13.059  -1.879  1.00  0.00     0.190 HD
BRANCH   8  11
HETATM   11  C6  UNL     1      21.256 -12.719  -2.425  1.00  0.00     0.143 C
BRANCH  11  12
HETATM   12  C7  UNL     1      20.554 -13.815  -1.761  1.00  0.00    -0.049 A
HETATM   13  C8  UNL     1      20.334 -15.019  -2.410  1.00  0.00     0.007 A
HETATM   14  C9  UNL     1      19.677 -16.080  -1.823  1.00  0.00     0.001 A
HETATM   15  C10 UNL     1      19.218 -15.931  -0.533  1.00  0.00     0.000 A
HETATM   16  C11 UNL     1      19.424 -14.742   0.134  1.00  0.00     0.001 A
HETATM   17  C12 UNL     1      20.080 -13.696  -0.465  1.00  0.00     0.007 A
ENDBRANCH  11  12
ENDBRANCH   8  11
ENDBRANCH   5   7
ENDBRANCH   2   3
BRANCH   2  18
HETATM   18  N5  UNL     1      27.794 -12.582  -5.047  1.00  0.00    -0.311 N
HETATM   19  C13 UNL     1      28.591 -13.000  -4.055  1.00  0.00     0.115 A
HETATM   20  C14 UNL     1      29.694 -12.195  -3.984  1.00  0.00     0.106 A
HETATM   21  N6  UNL     1      29.545 -11.276  -4.959  1.00  0.00    -0.360 N
HETATM   22  C15 UNL     1      28.386 -11.516  -5.606  1.00  0.00     0.188 A
ATOM     23  H6  UNL     1      30.200 -10.524  -5.172  1.00  0.00     0.166 HD
ENDBRANCH   2  18
BRANCH   1  24
HETATM   24  C1  UNL     1      27.603 -14.458  -7.120  1.00  0.00     0.348 C
HETATM   25  N2  UNL     1      27.786 -13.845  -8.357  1.00  0.00    -0.288 NA
HETATM   26  O1  UNL     1      28.433 -15.300  -6.803  1.00  0.00    -0.249 OA
BRANCH  25  27
HETATM   27  N1  UNL     1      27.927 -13.365  -9.369  1.00  0.00    -0.276 N
ATOM     28  H12 UNL     1      27.212 -13.389  -8.642  1.00  0.00     0.191 HD
ATOM     29  H11 UNL     1      28.071 -12.939 -10.285  1.00  0.00     0.191 HD
ENDBRANCH  25  27
ENDBRANCH   1  24
BRANCH   1  30
HETATM   30  C16 UNL     1      25.233 -14.823  -6.609  1.00  0.00    -0.017 A
HETATM   31  C17 UNL     1      24.267 -14.304  -7.427  1.00  0.00     0.012 A
HETATM   32  C18 UNL     1      23.139 -15.056  -7.784  1.00  0.00     0.001 A
HETATM   33  C19 UNL     1      22.987 -16.335  -7.312  1.00  0.00     0.000 A
HETATM   34  C20 UNL     1      23.956 -16.864  -6.489  1.00  0.00     0.001 A
HETATM   35  C21 UNL     1      25.071 -16.094  -6.148  1.00  0.00     0.012 A
ENDBRANCH   1  30
TORSDOF 8
ENDMDL