MODEL 3
REMARK VINA RESULT: -7.909862510      4.183      9.810
REMARK  8 active torsions:
REMARK  status: ('A' for Active; 'I' for Inactive)
REMARK       I    between atoms: C1_2  and  N1_3
REMARK    1  A    between atoms: C1_2  and  C12_21
REMARK    2  A    between atoms: N1_3  and  C2_5
REMARK    3  A    between atoms: C3_10  and  S1_11
REMARK    4  A    between atoms: S1_11  and  C4_12
REMARK    5  A    between atoms: C4_12  and  C5_13
REMARK    6  A    between atoms: C5_13  and  C6_14
REMARK       I    between atoms: C12_21  and  N4_23
REMARK    7  A    between atoms: N4_23  and  C13_25
REMARK    8  A    between atoms: C13_25  and  C14_26
ROOT
HETATM    1  C2  UNL     1      20.812 -14.010  -1.973  1.00  0.00     0.168 A
HETATM    2  N2  UNL     1      20.452 -14.862  -2.935  1.00  0.00    -0.278 N
ATOM      3  H2  UNL     1      20.585 -14.621  -3.917  1.00  0.00     0.189 HD
HETATM    4  N3  UNL     1      19.943 -15.975  -2.609  1.00  0.00    -0.286 N
ATOM      5  H3  UNL     1      19.663 -16.637  -3.332  1.00  0.00     0.188 HD
HETATM    6  C3  UNL     1      19.772 -16.282  -1.333  1.00  0.00     0.130 A
HETATM    7  S2  UNL     1      20.380 -14.887  -0.561  1.00  0.00    -0.026 SA
ENDROOT
BRANCH   1   8
HETATM    8  N1  UNL     1      21.354 -12.820  -2.116  1.00  0.00    -0.298 N
HETATM    9  C1  UNL     1      22.116 -12.586  -3.305  1.00  0.00     0.315 C
HETATM   10  O1  UNL     1      21.732 -11.726  -4.155  1.00  0.00    -0.262 OA
ATOM     11  H1  UNL     1      21.236 -12.094  -1.409  1.00  0.00     0.171 HD
BRANCH   9  12
HETATM   12  C12 UNL     1      23.341 -13.319  -3.578  1.00  0.00     0.310 C
HETATM   13  O2  UNL     1      24.262 -13.304  -2.711  1.00  0.00    -0.262 OA
HETATM   14  N4  UNL     1      23.494 -14.029  -4.786  1.00  0.00    -0.349 N
ATOM     15  H4  UNL     1      22.731 -14.017  -5.463  1.00  0.00     0.163 HD
BRANCH  14  16
HETATM   16  C13 UNL     1      24.682 -14.767  -5.099  1.00  0.00     0.161 C
BRANCH  16  17
HETATM   17  C14 UNL     1      24.530 -15.710  -6.229  1.00  0.00    -0.038 A
HETATM   18  C15 UNL     1      25.473 -15.664  -7.230  1.00  0.00     0.025 A
HETATM   19  C16 UNL     1      25.334 -16.541  -8.283  1.00  0.00     0.088 A
HETATM   20  N5  UNL     1      24.307 -17.414  -8.327  1.00  0.00    -0.375 N
HETATM   21  C17 UNL     1      23.377 -17.465  -7.348  1.00  0.00     0.088 A
ATOM     22  H5  UNL     1      24.230 -18.052  -9.119  1.00  0.00     0.164 HD
HETATM   23  C18 UNL     1      23.486 -16.603  -6.281  1.00  0.00     0.025 A
ENDBRANCH  16  17
ENDBRANCH  14  16
ENDBRANCH   9  12
ENDBRANCH   1   8
BRANCH   6  24
HETATM   24  S1  UNL     1      19.076 -17.790  -0.619  1.00  0.00    -0.103 SA
BRANCH  24  25
HETATM   25  C4  UNL     1      18.524 -18.797  -2.048  1.00  0.00     0.086 C
BRANCH  25  26
HETATM   26  C5  UNL     1      17.344 -19.633  -1.582  1.00  0.00     0.049 C
BRANCH  26  27
HETATM   27  C6  UNL     1      17.624 -21.080  -1.732  1.00  0.00    -0.057 A
HETATM   28  C7  UNL     1      18.416 -21.525  -2.760  1.00  0.00     0.007 A
HETATM   29  C8  UNL     1      18.705 -22.868  -2.940  1.00  0.00     0.001 A
HETATM   30  C9  UNL     1      18.182 -23.801  -2.061  1.00  0.00     0.000 A
HETATM   31  C10 UNL     1      17.389 -23.330  -1.036  1.00  0.00     0.001 A
HETATM   32  C11 UNL     1      17.104 -21.997  -0.859  1.00  0.00     0.007 A
ENDBRANCH  26  27
ENDBRANCH  25  26
ENDBRANCH  24  25
ENDBRANCH   6  24
TORSDOF 8
ENDMDL