MODEL 5
REMARK VINA RESULT: -7.250728678      4.109     11.394
REMARK  6 active torsions:
REMARK  status: ('A' for Active; 'I' for Inactive)
REMARK    1  A    between atoms: C2_2  and  C3_3
REMARK       I    between atoms: C3_3  and  N1_5
REMARK    2  A    between atoms: N1_5  and  S1_7
REMARK    3  A    between atoms: S1_7  and  C4_10
REMARK    4  A    between atoms: C7_13  and  N2_14
REMARK       I    between atoms: N2_14  and  C8_16
REMARK    5  A    between atoms: C8_16  and  C9_18
REMARK    6  A    between atoms: C12_21  and  N3_22
ROOT
HETATM    1  N2  UNL     1      22.273 -10.932  -2.233  1.00  0.00    -0.323 N
ATOM      2  H2  UNL     1      21.760 -10.887  -1.353  1.00  0.00     0.169 HD
HETATM    3  C8  UNL     1      22.176 -12.096  -2.989  1.00  0.00     0.256 C
HETATM    4  O4  UNL     1      22.782 -12.195  -4.092  1.00  0.00    -0.267 OA
ENDROOT
BRANCH   1   5
HETATM    5  C7  UNL     1      23.038  -9.814  -2.609  1.00  0.00     0.035 A
HETATM    6  C6  UNL     1      22.586  -8.840  -3.457  1.00  0.00     0.031 A
HETATM    7  C5  UNL     1      23.343  -7.726  -3.800  1.00  0.00     0.027 A
HETATM    8  C4  UNL     1      24.592  -7.574  -3.282  1.00  0.00     0.080 A
HETATM    9  C19 UNL     1      25.056  -8.547  -2.429  1.00  0.00     0.027 A
HETATM   10  C18 UNL     1      24.326  -9.643  -2.085  1.00  0.00     0.031 A
BRANCH   8  11
HETATM   11  S1  UNL     1      25.578  -6.195  -3.655  1.00  0.00     0.265 S
HETATM   12  O2  UNL     1      25.833  -5.349  -2.425  1.00  0.00    -0.200 OA
HETATM   13  O3  UNL     1      26.913  -6.622  -4.222  1.00  0.00    -0.200 OA
BRANCH  11  14
HETATM   14  N1  UNL     1      24.811  -5.194  -4.817  1.00  0.00    -0.250 N
HETATM   15  C3  UNL     1      23.759  -4.336  -4.431  1.00  0.00     0.230 C
HETATM   16  O1  UNL     1      23.337  -4.258  -3.258  1.00  0.00    -0.273 OA
ATOM     17  H1  UNL     1      25.116  -5.218  -5.790  1.00  0.00     0.181 HD
BRANCH  15  18
HETATM   18  C2  UNL     1      23.071  -3.451  -5.426  1.00  0.00     0.099 C
HETATM   19  C1  UNL     1      24.013  -2.977  -6.498  1.00  0.00     0.014 C
ENDBRANCH  15  18
ENDBRANCH  11  14
ENDBRANCH   8  11
ENDBRANCH   1   5
BRANCH   3  20
HETATM   20  C9  UNL     1      21.360 -13.256  -2.530  1.00  0.00     0.032 A
HETATM   21  C10 UNL     1      21.195 -14.397  -3.265  1.00  0.00     0.019 A
HETATM   22  C11 UNL     1      20.425 -15.457  -2.788  1.00  0.00     0.031 A
HETATM   23  C12 UNL     1      19.806 -15.388  -1.560  1.00  0.00     0.039 A
HETATM   24  C16 UNL     1      19.979 -14.233  -0.829  1.00  0.00     0.031 A
HETATM   25  C17 UNL     1      20.747 -13.174  -1.301  1.00  0.00     0.019 A
BRANCH  23  26
HETATM   26  N3  UNL     1      19.024 -16.482  -1.085  1.00  0.00    -0.317 N
HETATM   27  C13 UNL     1      19.036 -17.738  -1.581  1.00  0.00     0.115 A
HETATM   28  C14 UNL     1      18.166 -18.549  -0.898  1.00  0.00     0.106 A
HETATM   29  N4  UNL     1      17.604 -17.756   0.048  1.00  0.00    -0.360 N
HETATM   30  C15 UNL     1      18.133 -16.514  -0.080  1.00  0.00     0.188 A
ATOM     31  H4  UNL     1      16.906 -18.043   0.734  1.00  0.00     0.166 HD
ENDBRANCH  23  26
ENDBRANCH   3  20
TORSDOF 6
ENDMDL