MODEL 2
REMARK VINA RESULT: -6.285683756      1.806      3.049
REMARK  7 active torsions:
REMARK  status: ('A' for Active; 'I' for Inactive)
REMARK    1  A    between atoms: C5_6  and  N2_7
REMARK       I    between atoms: N2_7  and  C6_9
REMARK    2  A    between atoms: C6_9  and  C7_11
REMARK    3  A    between atoms: C7_11  and  N3_12
REMARK    4  A    between atoms: C10_15  and  C11_16
REMARK    5  A    between atoms: C11_16  and  C12_17
REMARK    6  A    between atoms: C17_23  and  S2_24
REMARK    7  A    between atoms: S2_24  and  N4_25
ROOT
HETATM    1  N1  UNL     1      26.499 -20.801  -8.573  1.00  0.00    -0.191 NA
HETATM    2  C1  UNL     1      26.047 -19.860  -8.074  1.00  0.00     0.099 C
HETATM    3  C2  UNL     1      25.475 -18.676  -7.467  1.00  0.00     0.046 A
HETATM    4  C3  UNL     1      24.141 -18.458  -7.444  1.00  0.00     0.025 A
HETATM    5  C4  UNL     1      23.629 -17.303  -6.849  1.00  0.00     0.032 A
HETATM    6  C5  UNL     1      24.460 -16.368  -6.277  1.00  0.00     0.058 A
HETATM    7  C17 UNL     1      25.825 -16.619  -6.315  1.00  0.00     0.107 A
HETATM    8  C18 UNL     1      26.329 -17.762  -6.905  1.00  0.00     0.050 A
ENDROOT
BRANCH   7   9
HETATM    9  S2  UNL     1      26.929 -15.463  -5.609  1.00  0.00     0.259 S
HETATM   10  O2  UNL     1      26.566 -15.190  -4.190  1.00  0.00    -0.201 OA
HETATM   11  O3  UNL     1      26.934 -14.216  -6.444  1.00  0.00    -0.201 OA
BRANCH   9  12
HETATM   12  N4  UNL     1      28.541 -16.120  -5.576  1.00  0.00    -0.324 N
ATOM     13  H42 UNL     1      28.998 -16.555  -6.376  1.00  0.00     0.169 HD
ATOM     14  H41 UNL     1      28.947 -16.003  -4.648  1.00  0.00     0.169 HD
ENDBRANCH   9  12
ENDBRANCH   7   9
BRANCH   6  15
HETATM   15  N2  UNL     1      23.956 -15.201  -5.668  1.00  0.00    -0.324 N
HETATM   16  C6  UNL     1      23.535 -14.002  -6.265  1.00  0.00     0.240 C
HETATM   17  O1  UNL     1      23.538 -13.766  -7.477  1.00  0.00    -0.271 OA
ATOM     18  H2  UNL     1      23.887 -15.233  -4.651  1.00  0.00     0.169 HD
BRANCH  16  19
HETATM   19  C7  UNL     1      23.031 -12.896  -5.366  1.00  0.00     0.230 C
BRANCH  19  20
HETATM   20  N3  UNL     1      22.183 -13.473  -4.347  1.00  0.00    -0.357 N
HETATM   21  C8  UNL     1      21.171 -14.324  -4.605  1.00  0.00     0.091 A
HETATM   22  C9  UNL     1      20.566 -14.685  -3.418  1.00  0.00     0.026 A
HETATM   23  C10 UNL     1      21.229 -14.033  -2.407  1.00  0.00    -0.037 A
HETATM   24  C16 UNL     1      22.219 -13.294  -3.013  1.00  0.00     0.098 A
BRANCH  23  25
HETATM   25  C11 UNL     1      20.949 -14.102  -0.981  1.00  0.00     0.086 C
BRANCH  25  26
HETATM   26  C12 UNL     1      19.942 -15.200  -0.723  1.00  0.00    -0.013 A
HETATM   27  C13 UNL     1      18.652 -15.059  -0.291  1.00  0.00     0.015 A
HETATM   28  C14 UNL     1      17.929 -16.182  -0.127  1.00  0.00     0.008 A
HETATM   29  C15 UNL     1      18.546 -17.368  -0.408  1.00  0.00     0.050 A
HETATM   30  S1  UNL     1      20.108 -16.888  -0.889  1.00  0.00    -0.106 SA
ENDBRANCH  25  26
ENDBRANCH  23  25
ENDBRANCH  19  20
ENDBRANCH  16  19
ENDBRANCH   6  15
TORSDOF 7
ENDMDL