MODEL 2
REMARK VINA RESULT: -7.988678656      4.125      7.980
REMARK  7 active torsions:
REMARK  status: ('A' for Active; 'I' for Inactive)
REMARK    1  A    between atoms: C1_2  and  C2_3
REMARK       I    between atoms: C1_2  and  N3_18
REMARK    2  A    between atoms: C2_3  and  C3_4
REMARK       I    between atoms: C3_4  and  N1_6
REMARK    3  A    between atoms: N1_6  and  C4_8
REMARK    4  A    between atoms: C4_8  and  C5_9
REMARK    5  A    between atoms: C10_14  and  N2_15
REMARK    6  A    between atoms: N3_18  and  C11_20
REMARK    7  A    between atoms: C12_25  and  C13_26
ROOT
HETATM    1  O1  UNL     1      20.964 -14.545   0.214  1.00  0.00    -0.273 OA
HETATM    2  C1  UNL     1      19.859 -14.501  -0.394  1.00  0.00     0.232 C
HETATM    3  N3  UNL     1      18.725 -15.207   0.094  1.00  0.00    -0.306 N
ATOM      4  H3  UNL     1      18.047 -14.763   0.714  1.00  0.00     0.171 HD
ENDROOT
BRANCH   2   5
HETATM    5  C2  UNL     1      19.781 -13.691  -1.632  1.00  0.00     0.205 C
BRANCH   5   6
HETATM    6  C3  UNL     1      21.107 -13.394  -2.222  1.00  0.00     0.226 C
HETATM    7  O2  UNL     1      21.688 -12.270  -2.089  1.00  0.00    -0.273 OA
HETATM    8  N1  UNL     1      21.800 -14.385  -2.978  1.00  0.00    -0.356 N
ATOM      9  H1  UNL     1      21.374 -15.303  -3.105  1.00  0.00     0.162 HD
BRANCH   8  10
HETATM   10  C4  UNL     1      23.086 -14.119  -3.567  1.00  0.00     0.163 C
BRANCH  10  11
HETATM   11  C5  UNL     1      23.131 -14.367  -5.010  1.00  0.00    -0.007 A
HETATM   12  C6  UNL     1      23.359 -15.650  -5.517  1.00  0.00     0.011 A
HETATM   13  C7  UNL     1      23.436 -15.806  -6.883  1.00  0.00     0.001 A
HETATM   14  C8  UNL     1      23.294 -14.736  -7.734  1.00  0.00     0.002 A
HETATM   15  C9  UNL     1      23.070 -13.464  -7.263  1.00  0.00     0.037 A
HETATM   16  C10 UNL     1      22.989 -13.298  -5.868  1.00  0.00     0.110 A
BRANCH  16  17
HETATM   17  N2  UNL     1      22.733 -11.984  -5.381  1.00  0.00    -0.115 N
HETATM   18  O3  UNL     1      21.598 -11.569  -5.149  1.00  0.00    -0.532 OA
HETATM   19  O4  UNL     1      23.787 -11.106  -5.136  1.00  0.00    -0.532 OA
ENDBRANCH  16  17
ENDBRANCH  10  11
ENDBRANCH   8  10
ENDBRANCH   5   6
ENDBRANCH   2   5
BRANCH   3  20
HETATM   20  C11 UNL     1      18.591 -16.458  -0.286  1.00  0.00     0.168 A
HETATM   21  N4  UNL     1      17.545 -17.263  -0.072  1.00  0.00    -0.279 N
HETATM   22  N5  UNL     1      17.586 -18.450  -0.514  1.00  0.00    -0.291 N
ATOM     23  H4  UNL     1      16.728 -16.926   0.437  1.00  0.00     0.189 HD
HETATM   24  C12 UNL     1      18.651 -18.883  -1.177  1.00  0.00     0.102 A
ATOM     25  H5  UNL     1      16.795 -19.075  -0.359  1.00  0.00     0.187 HD
HETATM   26  S1  UNL     1      19.644 -17.492  -1.157  1.00  0.00    -0.033 SA
BRANCH  24  27
HETATM   27  C13 UNL     1      18.896 -20.211  -1.767  1.00  0.00    -0.001 A
HETATM   28  C14 UNL     1      17.954 -20.992  -2.339  1.00  0.00     0.014 A
HETATM   29  C15 UNL     1      18.261 -22.225  -2.871  1.00  0.00     0.001 A
HETATM   30  C16 UNL     1      19.572 -22.673  -2.816  1.00  0.00     0.000 A
HETATM   31  C17 UNL     1      20.546 -21.903  -2.242  1.00  0.00     0.001 A
HETATM   32  C18 UNL     1      20.216 -20.677  -1.719  1.00  0.00     0.014 A
ENDBRANCH  24  27
ENDBRANCH   3  20
TORSDOF 7
ENDMDL