MODEL 3
REMARK VINA RESULT: -6.335571423      4.057      6.835
REMARK  6 active torsions:
REMARK  status: ('A' for Active; 'I' for Inactive)
REMARK    1  A    between atoms: C2_2  and  C3_3
REMARK    2  A    between atoms: N1_4  and  N2_6
REMARK       I    between atoms: C4_8  and  N3_9
REMARK       I    between atoms: C4_8  and  N4_12
REMARK    3  A    between atoms: N4_12  and  S1_14
REMARK    4  A    between atoms: S1_14  and  C6_17
REMARK    5  A    between atoms: C11_22  and  S2_23
REMARK    6  A    between atoms: S2_23  and  C12_26
ROOT
HETATM    1  S1  UNL     1      23.252  -9.681  -2.897  1.00  0.00     0.278 S
HETATM    2  O1  UNL     1      23.537  -9.987  -1.437  1.00  0.00    -0.200 OA
HETATM    3  O2  UNL     1      21.886  -9.111  -3.106  1.00  0.00    -0.200 OA
ENDROOT
BRANCH   1   4
HETATM    4  N4  UNL     1      23.175 -11.274  -3.630  1.00  0.00    -0.111 N
HETATM    5  C4  UNL     1      22.254 -12.265  -3.182  1.00  0.00     0.702 C
HETATM    6  N2  UNL     1      21.512 -12.143  -2.140  1.00  0.00    -0.132 N
HETATM    7  N3  UNL     1      22.136 -13.498  -3.889  1.00  0.00    -0.229 N
ATOM      8  H2  UNL     1      21.613 -11.251  -1.655  1.00  0.00     0.205 HD
HETATM    9  C5  UNL     1      22.004 -13.513  -5.333  1.00  0.00     0.165 C
ATOM     10  H3  UNL     1      22.145 -14.379  -3.373  1.00  0.00     0.177 HD
ATOM     11  H4  UNL     1      23.807 -11.497  -4.398  1.00  0.00     0.197 HD
BRANCH   6  12
HETATM   12  N1  UNL     1      20.664 -12.947  -1.600  1.00  0.00    -0.298 N
HETATM   13  C3  UNL     1      20.111 -13.603  -0.750  1.00  0.00     0.107 C
ATOM     14  H1  UNL     1      20.092 -13.181  -2.411  1.00  0.00     0.186 HD
BRANCH  13  15
HETATM   15  C2  UNL     1      20.467 -13.687   0.642  1.00  0.00     0.008 C
HETATM   16  C1  UNL     1      19.818 -13.000   1.548  1.00  0.00     0.013 C
ENDBRANCH  13  15
ENDBRANCH   6  12
ENDBRANCH   1   4
BRANCH   1  17
HETATM   17  C6  UNL     1      24.538  -8.798  -3.623  1.00  0.00     0.102 A
HETATM   18  C7  UNL     1      25.402  -9.488  -4.494  1.00  0.00     0.027 A
HETATM   19  C8  UNL     1      26.484  -8.900  -5.093  1.00  0.00     0.002 A
HETATM   20  C9  UNL     1      26.724  -7.581  -4.819  1.00  0.00     0.002 A
HETATM   21  C10 UNL     1      25.892  -6.902  -3.975  1.00  0.00     0.025 A
HETATM   22  C11 UNL     1      24.763  -7.487  -3.343  1.00  0.00     0.087 A
BRANCH  22  23
HETATM   23  S2  UNL     1      23.790  -6.526  -2.321  1.00  0.00     0.208 S
HETATM   24  O3  UNL     1      24.350  -5.087  -2.356  1.00  0.00    -0.217 OA
HETATM   25  O4  UNL     1      22.385  -6.326  -2.845  1.00  0.00    -0.217 OA
BRANCH  23  26
HETATM   26  C12 UNL     1      23.705  -6.923  -0.654  1.00  0.00     0.064 A
HETATM   27  C13 UNL     1      24.848  -7.138   0.097  1.00  0.00     0.024 A
HETATM   28  C14 UNL     1      24.755  -7.380   1.442  1.00  0.00     0.002 A
HETATM   29  C15 UNL     1      23.543  -7.418   2.086  1.00  0.00     0.000 A
HETATM   30  C16 UNL     1      22.393  -7.206   1.355  1.00  0.00     0.002 A
HETATM   31  C17 UNL     1      22.492  -6.962   0.000  1.00  0.00     0.024 A
ENDBRANCH  23  26
ENDBRANCH  22  23
ENDBRANCH   1  17
TORSDOF 6
ENDMDL