MODEL 2
REMARK VINA RESULT: -8.612293282      2.371      3.142
REMARK  7 active torsions:
REMARK  status: ('A' for Active; 'I' for Inactive)
REMARK       I    between atoms: C1_2  and  N1_3
REMARK    1  A    between atoms: C1_2  and  C9_15
REMARK    2  A    between atoms: N1_3  and  C2_5
REMARK    3  A    between atoms: C2_5  and  S1_6
REMARK    4  A    between atoms: S1_6  and  C3_9
REMARK    5  A    between atoms: C11_18  and  N2_19
REMARK    6  A    between atoms: N2_19  and  N3_21
REMARK    7  A    between atoms: C12_23  and  C13_24
ROOT
HETATM    1  C9  UNL     1      19.788 -16.252  -1.869  1.00  0.00     0.109 A
HETATM    2  C10 UNL     1      20.411 -16.738  -0.749  1.00  0.00     0.088 A
HETATM    3  S2  UNL     1      19.587 -18.214  -0.496  1.00  0.00    -0.062 SA
HETATM    4  C11 UNL     1      18.514 -18.123  -1.813  1.00  0.00     0.164 A
HETATM    5  N4  UNL     1      18.830 -16.970  -2.391  1.00  0.00    -0.331 N
ATOM      6  H4  UNL     1      18.336 -16.651  -3.224  1.00  0.00     0.168 HD
ENDROOT
BRANCH   1   7
HETATM    7  C1  UNL     1      20.209 -14.947  -2.449  1.00  0.00     0.269 C
HETATM    8  O1  UNL     1      19.963 -13.849  -1.845  1.00  0.00    -0.266 OA
HETATM    9  N1  UNL     1      20.891 -14.868  -3.674  1.00  0.00    -0.342 N
ATOM     10  H1  UNL     1      21.110 -15.719  -4.193  1.00  0.00     0.163 HD
BRANCH   9  11
HETATM   11  C2  UNL     1      21.281 -13.588  -4.199  1.00  0.00     0.269 C
BRANCH  11  12
HETATM   12  S1  UNL     1      22.951 -13.642  -4.808  1.00  0.00     0.192 S
HETATM   13  O2  UNL     1      23.346 -12.344  -5.428  1.00  0.00    -0.221 OA
HETATM   14  O3  UNL     1      23.842 -13.871  -3.627  1.00  0.00    -0.221 OA
BRANCH  12  15
HETATM   15  C3  UNL     1      23.127 -14.884  -6.024  1.00  0.00     0.060 A
HETATM   16  C4  UNL     1      23.539 -16.134  -5.631  1.00  0.00     0.023 A
HETATM   17  C5  UNL     1      23.687 -17.135  -6.562  1.00  0.00     0.002 A
HETATM   18  C6  UNL     1      23.419 -16.860  -7.873  1.00  0.00     0.000 A
HETATM   19  C7  UNL     1      23.007 -15.608  -8.262  1.00  0.00     0.002 A
HETATM   20  C8  UNL     1      22.856 -14.600  -7.332  1.00  0.00     0.023 A
ENDBRANCH  12  15
ENDBRANCH  11  12
ENDBRANCH   9  11
ENDBRANCH   1   7
BRANCH   4  21
HETATM   21  N2  UNL     1      17.594 -18.993  -2.167  1.00  0.00    -0.280 N
ATOM     22  H2  UNL     1      17.257 -19.021  -3.129  1.00  0.00     0.189 HD
BRANCH  21  23
HETATM   23  N3  UNL     1      17.102 -19.845  -1.250  1.00  0.00    -0.309 N
HETATM   24  C12 UNL     1      16.252 -19.753  -0.363  1.00  0.00     0.118 C
ATOM     25  H3  UNL     1      17.525 -20.772  -1.301  1.00  0.00     0.186 HD
BRANCH  24  26
HETATM   26  C13 UNL     1      15.459 -18.643   0.011  1.00  0.00    -0.019 A
HETATM   27  C14 UNL     1      15.907 -17.609   0.772  1.00  0.00     0.013 A
HETATM   28  C15 UNL     1      15.099 -16.530   1.124  1.00  0.00     0.001 A
HETATM   29  C16 UNL     1      13.804 -16.523   0.677  1.00  0.00     0.000 A
HETATM   30  C17 UNL     1      13.283 -17.544  -0.101  1.00  0.00     0.001 A
HETATM   31  C18 UNL     1      14.130 -18.578  -0.413  1.00  0.00     0.013 A
ENDBRANCH  24  26
ENDBRANCH  21  23
ENDBRANCH   4  21
TORSDOF 7
ENDMDL