MODEL 4
REMARK VINA RESULT: -6.975852745      4.503      7.094
REMARK  7 active torsions:
REMARK  status: ('A' for Active; 'I' for Inactive)
REMARK    1  A    between atoms: C1_2  and  S2_4
REMARK    2  A    between atoms: S2_4  and  C2_5
REMARK    3  A    between atoms: C2_5  and  C3_6
REMARK       I    between atoms: C3_6  and  N2_8
REMARK    4  A    between atoms: N2_8  and  C4_10
REMARK    5  A    between atoms: C5_13  and  C6_14
REMARK    6  A    between atoms: C6_14  and  N4_15
REMARK    7  A    between atoms: N5_18  and  C9_19
ROOT
HETATM    1  C4  UNL     1      18.273 -19.861  -1.663  1.00  0.00     0.151 A
HETATM    2  N3  UNL     1      17.911 -18.650  -1.250  1.00  0.00    -0.335 N
ATOM      3  H3  UNL     1      16.951 -18.330  -1.370  1.00  0.00     0.168 HD
HETATM    4  C5  UNL     1      18.801 -17.877  -0.689  1.00  0.00     0.056 A
HETATM    5  C17 UNL     1      20.074 -18.373  -0.558  1.00  0.00     0.084 A
HETATM    6  S3  UNL     1      19.930 -19.925  -1.249  1.00  0.00    -0.063 SA
ENDROOT
BRANCH   4   7
HETATM    7  C6  UNL     1      18.513 -16.470  -0.171  1.00  0.00     0.125 C
BRANCH   7   8
HETATM    8  N4  UNL     1      19.182 -15.480  -0.886  1.00  0.00    -0.345 N
HETATM    9  C7  UNL     1      19.279 -15.550  -2.291  1.00  0.00     0.088 C
HETATM   10  C8  UNL     1      20.451 -14.890  -2.901  1.00  0.00     0.168 C
HETATM   11  N5  UNL     1      20.959 -13.720  -2.232  1.00  0.00    -0.371 N
HETATM   12  C15 UNL     1      20.352 -13.327  -0.998  1.00  0.00     0.168 C
HETATM   13  C16 UNL     1      19.976 -14.551  -0.214  1.00  0.00     0.088 C
BRANCH  11  14
HETATM   14  C9  UNL     1      22.035 -12.966  -2.772  1.00  0.00     0.030 A
HETATM   15  C10 UNL     1      21.883 -11.643  -3.068  1.00  0.00     0.029 A
HETATM   16  C11 UNL     1      22.956 -10.919  -3.591  1.00  0.00     0.002 A
HETATM   17  C12 UNL     1      24.151 -11.568  -3.796  1.00  0.00     0.000 A
HETATM   18  C13 UNL     1      24.332 -12.898  -3.507  1.00  0.00     0.002 A
HETATM   19  C14 UNL     1      23.256 -13.593  -2.990  1.00  0.00     0.029 A
ENDBRANCH  11  14
ENDBRANCH   7   8
ENDBRANCH   4   7
BRANCH   1  20
HETATM   20  N2  UNL     1      17.533 -20.781  -2.247  1.00  0.00    -0.306 N
HETATM   21  C3  UNL     1      17.909 -22.126  -2.010  1.00  0.00     0.233 C
HETATM   22  O1  UNL     1      17.707 -22.631  -0.867  1.00  0.00    -0.272 OA
ATOM     23  H2  UNL     1      16.736 -20.540  -2.835  1.00  0.00     0.171 HD
BRANCH  21  24
HETATM   24  C2  UNL     1      18.535 -22.985  -3.040  1.00  0.00     0.184 C
BRANCH  24  25
HETATM   25  S2  UNL     1      20.183 -23.516  -2.534  1.00  0.00    -0.094 SA
BRANCH  25  26
HETATM   26  C1  UNL     1      21.275 -23.550  -3.938  1.00  0.00     0.150 C
HETATM   27  N1  UNL     1      20.755 -23.798  -5.221  1.00  0.00    -0.082 NA
HETATM   28  S1  UNL     1      22.865 -23.299  -3.708  1.00  0.00    -0.056 SA
ENDBRANCH  25  26
ENDBRANCH  24  25
ENDBRANCH  21  24
ENDBRANCH   1  20
TORSDOF 7
ENDMDL