MODEL 3
REMARK VINA RESULT: -7.595414122      3.279      8.798
REMARK  11 active torsions:
REMARK  status: ('A' for Active; 'I' for Inactive)
REMARK    1  A    between atoms: O1_1  and  C1_3
REMARK    2  A    between atoms: C1_3  and  C2_4
REMARK    3  A    between atoms: C2_4  and  S1_5
REMARK    4  A    between atoms: S1_5  and  C3_6
REMARK    5  A    between atoms: C8_11  and  C9_12
REMARK    6  A    between atoms: C9_12  and  N1_13
REMARK    7  A    between atoms: N1_13  and  N2_15
REMARK    8  A    between atoms: N2_15  and  C10_16
REMARK    9  A    between atoms: C10_16  and  O2_17
REMARK   10  A    between atoms: C10_16  and  C11_19
REMARK   11  A    between atoms: N4_26  and  C16_28
ROOT
HETATM    1  C3  UNL     1      17.672 -19.359  -1.151  1.00  0.00     0.012 A
HETATM    2  C4  UNL     1      16.423 -19.747  -0.848  1.00  0.00     0.019 A
HETATM    3  C5  UNL     1      15.601 -19.072   0.058  1.00  0.00     0.001 A
HETATM    4  C6  UNL     1      16.138 -17.882   0.674  1.00  0.00     0.001 A
HETATM    5  C7  UNL     1      17.384 -17.516   0.346  1.00  0.00     0.014 A
HETATM    6  C8  UNL     1      18.158 -18.233  -0.547  1.00  0.00    -0.002 A
ENDROOT
BRANCH   6   7
HETATM    7  C9  UNL     1      19.463 -17.674  -0.979  1.00  0.00     0.133 C
BRANCH   7   8
HETATM    8  N1  UNL     1      20.002 -16.729  -0.569  1.00  0.00    -0.244 N
ATOM      9  H1  UNL     1      20.423 -16.932   0.338  1.00  0.00     0.201 HD
BRANCH   8  10
HETATM   10  N2  UNL     1      20.242 -15.473  -0.910  1.00  0.00    -0.299 NA
BRANCH  10  11
HETATM   11  C10 UNL     1      20.480 -14.189  -1.272  1.00  0.00     0.250 C
BRANCH  11  12
HETATM   12  O2  UNL     1      20.026 -13.152  -0.591  1.00  0.00    -0.333 OA
ATOM     13  H2  UNL     1      20.487 -12.776   0.151  1.00  0.00     0.220 HD
ENDBRANCH  11  12
BRANCH  11  14
HETATM   14  C11 UNL     1      21.221 -13.703  -2.453  1.00  0.00     0.047 A
HETATM   15  C12 UNL     1      21.299 -14.472  -3.589  1.00  0.00     0.020 A
HETATM   16  C13 UNL     1      21.740 -13.928  -4.812  1.00  0.00     0.018 A
HETATM   17  C14 UNL     1      22.110 -12.568  -4.878  1.00  0.00     0.087 A
HETATM   18  N3  UNL     1      21.995 -11.869  -3.672  1.00  0.00    -0.374 N
HETATM   19  C15 UNL     1      21.586 -12.399  -2.553  1.00  0.00     0.104 A
ATOM     20  H3  UNL     1      22.248 -10.881  -3.667  1.00  0.00     0.164 HD
ENDBRANCH  11  14
ENDBRANCH  10  11
ENDBRANCH   8  10
ENDBRANCH   7   8
ENDBRANCH   6   7
BRANCH   1  21
HETATM   21  S1  UNL     1      18.807 -20.450  -2.080  1.00  0.00    -0.121 SA
BRANCH  21  22
HETATM   22  C2  UNL     1      17.880 -22.075  -2.026  1.00  0.00     0.163 C
BRANCH  22  23
HETATM   23  C1  UNL     1      18.521 -22.919  -0.973  1.00  0.00     0.127 C
HETATM   24  N4  UNL     1      19.628 -23.579  -0.707  1.00  0.00    -0.320 N
ATOM     25  H4  UNL     1      19.513 -24.409  -0.124  1.00  0.00     0.169 HD
BRANCH  23  26
HETATM   26  O1  UNL     1      17.610 -23.099   0.058  1.00  0.00    -0.349 OA
ATOM     27  H1  UNL     1      16.997 -23.778  -0.199  1.00  0.00     0.219 HD
ENDBRANCH  23  26
BRANCH  24  28
HETATM   28  C16 UNL     1      20.886 -23.314  -1.093  1.00  0.00     0.150 A
HETATM   29  N5  UNL     1      21.381 -23.560  -2.269  1.00  0.00    -0.346 N
HETATM   30  C17 UNL     1      22.585 -23.135  -2.554  1.00  0.00     0.097 A
ATOM     31  H5  UNL     1      20.838 -24.078  -2.960  1.00  0.00     0.167 HD
HETATM   32  C18 UNL     1      23.251 -22.448  -1.585  1.00  0.00     0.070 A
HETATM   33  S2  UNL     1      22.093 -22.473  -0.278  1.00  0.00    -0.064 SA
ENDBRANCH  24  28
ENDBRANCH  22  23
ENDBRANCH  21  22
ENDBRANCH   1  21
TORSDOF 11
ENDMDL