MODEL 1
REMARK VINA RESULT: -7.569811335      0.000      0.000
REMARK  14 active torsions:
REMARK  status: ('A' for Active; 'I' for Inactive)
REMARK    1  A    between atoms: N1_1  and  C1_5
REMARK    2  A    between atoms: C1_5  and  C2_6
REMARK       I    between atoms: C2_6  and  N2_8
REMARK    3  A    between atoms: N2_8  and  C3_10
REMARK    4  A    between atoms: C4_13  and  N4_14
REMARK    5  A    between atoms: N5_19  and  C6_20
REMARK    6  A    between atoms: C6_20  and  C7_21
REMARK    7  A    between atoms: C12_29  and  O3_30
REMARK    8  A    between atoms: C13_32  and  N7_33
REMARK    9  A    between atoms: N7_33  and  C14_36
REMARK   10  A    between atoms: C14_36  and  O4_37
REMARK   11  A    between atoms: C14_36  and  C15_39
REMARK   12  A    between atoms: C15_39  and  N8_40
REMARK   13  A    between atoms: C15_39  and  C16_44
REMARK       I    between atoms: C16_44  and  N9_46
REMARK   14  A    between atoms: N9_46  and  N10_48
ROOT
HETATM    1  C3  UNL     1      26.849 -31.931 281.563  1.00  0.00     0.216 C
HETATM    2  N3  UNL     1      25.966 -33.002 281.280  1.00  0.00    -0.372 N
ATOM      3  H3  UNL     1      26.274 -33.751 280.661  1.00  0.00     0.157 HD
HETATM    4  C4  UNL     1      24.688 -33.054 281.829  1.00  0.00     0.296 C
HETATM    5  C5  UNL     1      24.807 -33.420 283.296  1.00  0.00     0.173 C
HETATM    6  N5  UNL     1      24.858 -32.201 284.016  1.00  0.00    -0.378 N
HETATM    7  C12 UNL     1      25.884 -31.298 283.858  1.00  0.00     0.251 C
HETATM    8  C13 UNL     1      26.511 -30.948 282.587  1.00  0.00     0.278 C
ENDROOT
BRANCH   8   9
HETATM    9  N7  UNL     1      27.804 -30.285 282.932  1.00  0.00    -0.034 N
ATOM     10  H72 UNL     1      28.109 -29.676 282.173  1.00  0.00     0.281 HD
ATOM     11  H71 UNL     1      27.666 -29.589 283.665  1.00  0.00     0.281 HD
BRANCH   9  12
HETATM   12  C14 UNL     1      28.828 -31.184 283.288  1.00  0.00     0.359 C
BRANCH  12  13
HETATM   13  O4  UNL     1      30.008 -31.053 282.498  1.00  0.00    -0.368 OA
ATOM     14  H4  UNL     1      30.754 -30.710 282.977  1.00  0.00     0.212 HD
ENDBRANCH  12  13
BRANCH  12  15
HETATM   15  C15 UNL     1      29.376 -30.792 284.686  1.00  0.00     0.332 C
BRANCH  15  16
HETATM   16  N8  UNL     1      30.511 -29.922 284.477  1.00  0.00    -0.062 N
ATOM     17  H83 UNL     1      30.279 -28.934 284.574  1.00  0.00     0.275 HD
ATOM     18  H82 UNL     1      31.197 -29.972 285.231  1.00  0.00     0.275 HD
ATOM     19  H81 UNL     1      30.905 -30.151 283.564  1.00  0.00     0.275 HD
ENDBRANCH  15  16
BRANCH  15  20
HETATM   20  C16 UNL     1      29.929 -32.093 285.222  1.00  0.00     0.270 C
HETATM   21  O5  UNL     1      29.152 -32.966 285.746  1.00  0.00    -0.269 OA
HETATM   22  N9  UNL     1      31.308 -32.407 285.162  1.00  0.00    -0.275 N
ATOM     23  H9  UNL     1      31.946 -31.723 284.755  1.00  0.00     0.189 HD
BRANCH  22  24
HETATM   24  N10 UNL     1      31.836 -33.611 285.634  1.00  0.00    -0.343 N
ATOM     25 2H10 UNL     1      32.184 -34.275 284.943  1.00  0.00     0.176 HD
ATOM     26 1H10 UNL     1      31.886 -33.846 286.625  1.00  0.00     0.176 HD
ENDBRANCH  22  24
ENDBRANCH  15  20
ENDBRANCH  12  15
ENDBRANCH   9  12
ENDBRANCH   8   9
BRANCH   1  27
HETATM   27  N2  UNL     1      26.934 -31.221 280.258  1.00  0.00    -0.337 N
HETATM   28  C2  UNL     1      28.071 -31.412 279.425  1.00  0.00     0.244 C
HETATM   29  O1  UNL     1      28.965 -32.202 279.859  1.00  0.00    -0.272 OA
ATOM     30  H2  UNL     1      26.181 -30.600 279.962  1.00  0.00     0.164 HD
BRANCH  28  31
HETATM   31  C1  UNL     1      28.284 -30.783 278.123  1.00  0.00     0.332 C
BRANCH  31  32
HETATM   32  N1  UNL     1      27.997 -31.736 277.047  1.00  0.00    -0.071 N
ATOM     33  H13 UNL     1      28.753 -32.410 276.923  1.00  0.00     0.274 HD
ATOM     34  H12 UNL     1      27.256 -32.388 277.303  1.00  0.00     0.274 HD
ATOM     35  H11 UNL     1      27.785 -31.238 276.183  1.00  0.00     0.274 HD
ENDBRANCH  31  32
ENDBRANCH  28  31
ENDBRANCH   1  27
BRANCH   7  36
HETATM   36  O3  UNL     1      25.384 -30.067 284.400  1.00  0.00    -0.375 OA
ATOM     37  H3  UNL     1      24.801 -29.723 283.734  1.00  0.00     0.212 HD
ENDBRANCH   7  36
BRANCH   6  38
HETATM   38  C6  UNL     1      23.706 -31.895 284.773  1.00  0.00     0.155 C
BRANCH  38  39
HETATM   39  C7  UNL     1      23.550 -32.639 286.045  1.00  0.00    -0.048 C
HETATM   40  C8  UNL     1      22.397 -33.112 286.456  1.00  0.00    -0.011 C
HETATM   41  C9  UNL     1      22.332 -33.858 287.777  1.00  0.00     0.130 C
HETATM   42  C10 UNL     1      23.506 -34.739 287.869  1.00  0.00     0.221 C
HETATM   43  O2  UNL     1      23.383 -35.842 288.418  1.00  0.00    -0.273 OA
HETATM   44  N6  UNL     1      24.744 -34.250 287.306  1.00  0.00    -0.357 N
HETATM   45  C11 UNL     1      24.783 -32.849 286.911  1.00  0.00     0.158 C
ATOM     46  H6  UNL     1      25.554 -34.859 287.190  1.00  0.00     0.162 HD
ENDBRANCH  38  39
ENDBRANCH   6  38
BRANCH   4  47
HETATM   47  N4  UNL     1      23.991 -31.828 281.600  1.00  0.00    -0.057 N
ATOM     48  H43 UNL     1      23.232 -31.695 282.267  1.00  0.00     0.276 HD
ATOM     49  H42 UNL     1      24.558 -31.019 281.850  1.00  0.00     0.276 HD
ATOM     50  H41 UNL     1      23.662 -31.777 280.636  1.00  0.00     0.276 HD
ENDBRANCH   4  47
TORSDOF 14
ENDMDL