MODEL 3
REMARK VINA RESULT: -8.548831895      1.817      2.409
REMARK  18 active torsions:
REMARK  status: ('A' for Active; 'I' for Inactive)
REMARK    1  A    between atoms: N1_1  and  N2_4
REMARK       I    between atoms: N2_4  and  C1_6
REMARK    2  A    between atoms: C1_6  and  O2_8
REMARK    3  A    between atoms: O2_8  and  C2_9
REMARK    4  A    between atoms: C2_9  and  O3_10
REMARK    5  A    between atoms: C2_9  and  C3_12
REMARK    6  A    between atoms: C3_12  and  N3_13
REMARK    7  A    between atoms: C3_12  and  C4_17
REMARK    8  A    between atoms: C4_17  and  N4_18
REMARK    9  A    between atoms: C4_17  and  C5_22
REMARK   10  A    between atoms: C5_22  and  C6_23
REMARK   11  A    between atoms: C8_25  and  N5_26
REMARK   12  A    between atoms: N5_26  and  O4_28
REMARK   13  A    between atoms: C9_32  and  N7_33
REMARK       I    between atoms: N7_33  and  C10_35
REMARK   14  A    between atoms: C10_35  and  C11_37
REMARK   15  A    between atoms: C11_37  and  N8_38
REMARK   16  A    between atoms: C11_37  and  C12_42
REMARK   17  A    between atoms: C12_42  and  O6_43
REMARK   18  A    between atoms: C12_42  and  C13_45
ROOT
HETATM    1  C6  UNL     1      26.026 -31.558 280.416  1.00  0.00     0.032 A
HETATM    2  C7  UNL     1      24.866 -30.813 280.434  1.00  0.00     0.076 A
HETATM    3  C8  UNL     1      23.925 -30.901 281.440  1.00  0.00     0.142 A
HETATM    4  N6  UNL     1      24.207 -31.780 282.436  1.00  0.00    -0.175 N
ATOM      5  H6  UNL     1      23.538 -31.879 283.200  1.00  0.00     0.186 HD
HETATM    6  C9  UNL     1      25.316 -32.521 282.461  1.00  0.00     0.686 A
HETATM    7  N10 UNL     1      26.203 -32.406 281.467  1.00  0.00    -0.195 N
ATOM      8  H10 UNL     1      27.048 -32.977 281.497  1.00  0.00     0.184 HD
ENDROOT
BRANCH   1   9
HETATM    9  C5  UNL     1      26.954 -31.396 279.321  1.00  0.00     0.092 C
BRANCH   9  10
HETATM   10  C4  UNL     1      27.547 -32.591 278.677  1.00  0.00     0.224 C
BRANCH  10  11
HETATM   11  C3  UNL     1      26.705 -33.294 277.660  1.00  0.00     0.269 C
BRANCH  11  12
HETATM   12  C2  UNL     1      26.373 -34.685 278.227  1.00  0.00     0.300 C
BRANCH  12  13
HETATM   13  O2  UNL     1      25.203 -34.563 279.052  1.00  0.00    -0.269 OA
BRANCH  13  14
HETATM   14  C1  UNL     1      24.737 -35.647 279.762  1.00  0.00     0.381 C
HETATM   15  N2  UNL     1      24.030 -35.507 280.988  1.00  0.00    -0.252 N
ATOM     16  H2  UNL     1      23.850 -34.580 281.375  1.00  0.00     0.191 HD
HETATM   17  O1  UNL     1      24.954 -36.811 279.292  1.00  0.00    -0.237 OA
BRANCH  15  18
HETATM   18  N1  UNL     1      23.585 -36.647 281.658  1.00  0.00    -0.341 N
ATOM     19  H12 UNL     1      23.044 -37.346 281.148  1.00  0.00     0.177 HD
ATOM     20  H11 UNL     1      23.805 -36.767 282.647  1.00  0.00     0.177 HD
ENDBRANCH  15  18
ENDBRANCH  13  14
ENDBRANCH  12  13
BRANCH  12  21
HETATM   21  O3  UNL     1      25.941 -35.511 277.166  1.00  0.00    -0.368 OA
ATOM     22  H3  UNL     1      26.349 -36.347 277.358  1.00  0.00     0.212 HD
ENDBRANCH  12  21
ENDBRANCH  11  12
BRANCH  11  23
HETATM   23  N3  UNL     1      25.412 -32.642 277.474  1.00  0.00    -0.068 N
ATOM     24  H33 UNL     1      24.640 -33.113 277.945  1.00  0.00     0.275 HD
ATOM     25  H32 UNL     1      25.324 -31.752 277.966  1.00  0.00     0.275 HD
ATOM     26  H31 UNL     1      25.295 -32.569 276.463  1.00  0.00     0.275 HD
ENDBRANCH  11  23
ENDBRANCH  10  11
BRANCH  10  27
HETATM   27  N4  UNL     1      28.715 -32.062 277.922  1.00  0.00    -0.072 N
ATOM     28  H43 UNL     1      28.503 -31.815 276.956  1.00  0.00     0.274 HD
ATOM     29  H42 UNL     1      29.012 -31.132 278.220  1.00  0.00     0.274 HD
ATOM     30  H41 UNL     1      29.440 -32.775 278.015  1.00  0.00     0.274 HD
ENDBRANCH  10  27
ENDBRANCH   9  10
ENDBRANCH   1   9
BRANCH   3  31
HETATM   31  N5  UNL     1      22.843 -30.199 281.447  1.00  0.00    -0.253 N
ATOM     32  H5  UNL     1      22.207 -30.197 280.650  1.00  0.00     0.196 HD
BRANCH  31  33
HETATM   33  O4  UNL     1      22.584 -29.454 282.569  1.00  0.00    -0.288 OA
ATOM     34  H4  UNL     1      22.198 -29.904 283.311  1.00  0.00     0.244 HD
ENDBRANCH  31  33
ENDBRANCH   3  31
BRANCH   6  35
HETATM   35  N7  UNL     1      25.547 -33.353 283.439  1.00  0.00    -0.158 N
HETATM   36  C10 UNL     1      24.526 -33.798 284.304  1.00  0.00     0.269 C
HETATM   37  O5  UNL     1      23.671 -34.596 283.844  1.00  0.00    -0.270 OA
ATOM     38  H7  UNL     1      26.498 -33.692 283.584  1.00  0.00     0.187 HD
BRANCH  36  39
HETATM   39  C11 UNL     1      24.402 -33.381 285.719  1.00  0.00     0.312 C
BRANCH  39  40
HETATM   40  N8  UNL     1      24.747 -31.966 285.780  1.00  0.00    -0.064 N
ATOM     41  H83 UNL     1      25.618 -31.745 285.297  1.00  0.00     0.275 HD
ATOM     42  H82 UNL     1      24.132 -31.379 285.216  1.00  0.00     0.275 HD
ATOM     43  H81 UNL     1      24.758 -31.704 286.766  1.00  0.00     0.275 HD
ENDBRANCH  39  40
BRANCH  39  44
HETATM   44  C12 UNL     1      25.370 -34.115 286.626  1.00  0.00     0.246 C
BRANCH  44  45
HETATM   45  O6  UNL     1      26.676 -33.673 286.423  1.00  0.00    -0.384 OA
ATOM     46  H6  UNL     1      26.836 -33.495 285.504  1.00  0.00     0.210 HD
ENDBRANCH  44  45
BRANCH  44  47
HETATM   47  C13 UNL     1      24.982 -33.722 288.024  1.00  0.00     0.262 C
HETATM   48  N9  UNL     1      25.906 -33.713 289.089  1.00  0.00    -0.060 NA
HETATM   49  O7  UNL     1      23.793 -33.389 288.258  1.00  0.00    -0.274 OA
ENDBRANCH  44  47
ENDBRANCH  39  44
ENDBRANCH  36  39
ENDBRANCH   6  35
TORSDOF 18
ENDMDL