MODEL 4
REMARK VINA RESULT: -7.345842472      2.790      6.275
REMARK  13 active torsions:
REMARK  status: ('A' for Active; 'I' for Inactive)
REMARK    1  A    between atoms: C2_2  and  C3_3
REMARK    2  A    between atoms: C3_3  and  N1_4
REMARK       I    between atoms: N1_4  and  C4_6
REMARK       I    between atoms: C4_6  and  N2_8
REMARK    3  A    between atoms: N2_8  and  C5_10
REMARK    4  A    between atoms: C5_10  and  C6_11
REMARK    5  A    between atoms: C5_10  and  N5_20
REMARK    6  A    between atoms: C6_11  and  N3_12
REMARK    7  A    between atoms: C6_11  and  N4_16
REMARK    8  A    between atoms: C7_21  and  C8_22
REMARK    9  A    between atoms: C8_22  and  O2_23
REMARK   10  A    between atoms: C8_22  and  N6_25
REMARK       I    between atoms: N6_25  and  C9_27
REMARK       I    between atoms: C9_27  and  N7_28
REMARK       I    between atoms: C9_27  and  N8_32
REMARK   11  A    between atoms: C10_36  and  C11_37
REMARK   12  A    between atoms: C12_40  and  O5_41
REMARK   13  A    between atoms: C13_43  and  O6_44
ROOT
HETATM    1  N5  UNL     1      24.782 -32.832 281.914  1.00  0.00    -0.326 N
HETATM    2  C7  UNL     1      25.970 -32.052 282.340  1.00  0.00     0.101 C
HETATM    3  C10 UNL     1      26.912 -32.018 281.419  1.00  0.00     0.081 C
HETATM    4  C12 UNL     1      26.744 -32.796 280.132  1.00  0.00     0.208 C
HETATM    5  C13 UNL     1      25.385 -32.837 279.568  1.00  0.00     0.207 C
HETATM    6  C14 UNL     1      24.960 -31.590 278.910  1.00  0.00     0.261 C
HETATM    7  O7  UNL     1      24.940 -31.076 277.766  1.00  0.00    -0.270 OA
HETATM    8  N9  UNL     1      24.531 -31.113 280.168  1.00  0.00    -0.334 N
ATOM      9  H9  UNL     1      24.424 -30.196 280.602  1.00  0.00     0.164 HD
HETATM   10  C15 UNL     1      24.309 -32.478 280.574  1.00  0.00     0.236 C
ENDROOT
BRANCH   1  11
HETATM   11  C5  UNL     1      24.230 -33.833 282.750  1.00  0.00     0.248 C
BRANCH  11  12
HETATM   12  N2  UNL     1      25.143 -34.228 283.827  1.00  0.00    -0.318 N
HETATM   13  C4  UNL     1      24.709 -34.440 285.147  1.00  0.00     0.317 C
HETATM   14  N1  UNL     1      25.611 -34.822 286.173  1.00  0.00    -0.343 N
HETATM   15  O1  UNL     1      23.500 -34.291 285.445  1.00  0.00    -0.247 OA
ATOM     16  H1  UNL     1      26.596 -34.946 285.940  1.00  0.00     0.164 HD
ATOM     17  H2  UNL     1      26.131 -34.355 283.610  1.00  0.00     0.166 HD
BRANCH  14  18
HETATM   18  C3  UNL     1      25.185 -35.044 287.539  1.00  0.00     0.124 C
BRANCH  18  19
HETATM   19  C2  UNL     1      25.005 -33.725 288.244  1.00  0.00     0.015 C
HETATM   20  C1  UNL     1      25.399 -33.798 289.700  1.00  0.00     0.006 C
ENDBRANCH  18  19
ENDBRANCH  14  18
ENDBRANCH  11  12
BRANCH  11  21
HETATM   21  C6  UNL     1      23.918 -35.115 281.946  1.00  0.00     0.419 C
BRANCH  21  22
HETATM   22  N3  UNL     1      25.060 -36.008 282.164  1.00  0.00    -0.047 N
ATOM     23  H33 UNL     1      25.879 -35.537 282.547  1.00  0.00     0.276 HD
ATOM     24  H32 UNL     1      24.925 -36.663 282.935  1.00  0.00     0.276 HD
ATOM     25  H31 UNL     1      25.230 -36.463 281.267  1.00  0.00     0.276 HD
ENDBRANCH  21  22
BRANCH  21  26
HETATM   26  N4  UNL     1      22.789 -35.817 282.551  1.00  0.00    -0.047 N
ATOM     27  H43 UNL     1      23.019 -36.194 283.470  1.00  0.00     0.276 HD
ATOM     28  H42 UNL     1      22.047 -35.176 282.835  1.00  0.00     0.276 HD
ATOM     29  H41 UNL     1      22.449 -36.539 281.915  1.00  0.00     0.276 HD
ENDBRANCH  21  26
ENDBRANCH  11  21
ENDBRANCH   1  11
BRANCH   2  30
HETATM   30  C8  UNL     1      26.096 -31.736 283.718  1.00  0.00     0.167 C
BRANCH  30  31
HETATM   31  O2  UNL     1      27.189 -32.179 284.334  1.00  0.00    -0.345 OA
ATOM     32  H2  UNL     1      27.055 -32.689 285.124  1.00  0.00     0.219 HD
ENDBRANCH  30  31
BRANCH  30  33
HETATM   33  N6  UNL     1      25.317 -31.017 284.618  1.00  0.00    -0.320 N
HETATM   34  C9  UNL     1      23.928 -30.597 284.285  1.00  0.00     0.482 C
HETATM   35  N7  UNL     1      23.041 -31.207 285.257  1.00  0.00    -0.033 N
HETATM   36  N8  UNL     1      23.781 -29.165 284.414  1.00  0.00    -0.033 N
ATOM     37  H73 UNL     1      23.148 -32.221 285.311  1.00  0.00     0.278 HD
ATOM     38  H72 UNL     1      23.301 -30.994 286.220  1.00  0.00     0.278 HD
ATOM     39  H71 UNL     1      22.090 -30.920 285.028  1.00  0.00     0.278 HD
ATOM     40  H83 UNL     1      24.062 -28.838 285.339  1.00  0.00     0.278 HD
ATOM     41  H82 UNL     1      24.471 -28.662 283.857  1.00  0.00     0.278 HD
ATOM     42  H81 UNL     1      22.829 -28.877 284.186  1.00  0.00     0.278 HD
ATOM     43  H6  UNL     1      25.706 -30.771 285.528  1.00  0.00     0.165 HD
ENDBRANCH  30  33
ENDBRANCH   2  30
BRANCH   3  44
HETATM   44  C11 UNL     1      28.156 -31.305 281.539  1.00  0.00     0.210 C
HETATM   45  O3  UNL     1      28.276 -30.279 280.770  1.00  0.00    -0.644 OA
HETATM   46  O4  UNL     1      29.252 -31.476 282.319  1.00  0.00    -0.644 OA
ENDBRANCH   3  44
BRANCH   5  47
HETATM   47  O6  UNL     1      25.081 -33.970 278.804  1.00  0.00    -0.374 OA
ATOM     48  H6  UNL     1      24.620 -33.804 277.991  1.00  0.00     0.211 HD
ENDBRANCH   5  47
BRANCH   4  49
HETATM   49  O5  UNL     1      27.585 -32.314 279.132  1.00  0.00    -0.387 OA
ATOM     50  H5  UNL     1      28.499 -32.430 279.361  1.00  0.00     0.210 HD
ENDBRANCH   4  49
TORSDOF 13
ENDMDL