MODEL 1
REMARK VINA RESULT: -6.864870615      0.000      0.000
REMARK  12 active torsions:
REMARK  status: ('A' for Active; 'I' for Inactive)
REMARK    1  A    between atoms: N1_1  and  C1_5
REMARK    2  A    between atoms: C1_5  and  C2_6
REMARK    3  A    between atoms: C3_7  and  N2_8
REMARK       I    between atoms: N3_14  and  C6_16
REMARK    4  A    between atoms: C6_16  and  C7_18
REMARK    5  A    between atoms: C7_18  and  C8_19
REMARK    6  A    between atoms: C8_19  and  C9_20
REMARK    7  A    between atoms: C9_20  and  N4_21
REMARK       I    between atoms: N4_21  and  C10_24
REMARK       I    between atoms: C10_24  and  N5_25
REMARK       I    between atoms: C10_24  and  N6_29
REMARK    8  A    between atoms: C11_33  and  N7_34
REMARK    9  A    between atoms: C12_38  and  N8_39
REMARK   10  A    between atoms: C14_44  and  N11_45
REMARK   11  A    between atoms: C14_44  and  C15_50
REMARK   12  A    between atoms: N11_45  and  N12_47
ROOT
HETATM    1  C2  UNL     1      24.904 -31.901 283.398  1.00  0.00     0.088 C
HETATM    2  C3  UNL     1      26.059 -32.781 283.707  1.00  0.00     0.198 C
HETATM    3  C4  UNL     1      27.324 -32.047 283.875  1.00  0.00     0.088 C
HETATM    4  C5  UNL     1      27.807 -31.537 282.583  1.00  0.00     0.027 C
HETATM    5  N3  UNL     1      29.035 -31.140 282.646  1.00  0.00    -0.332 N
ATOM      6  H3  UNL     1      29.436 -30.772 281.783  1.00  0.00     0.168 HD
HETATM    7  C6  UNL     1      29.872 -31.156 283.759  1.00  0.00     0.221 C
HETATM    8  O1  UNL     1      30.467 -32.202 284.080  1.00  0.00    -0.273 OA
HETATM    9  C11 UNL     1      27.252 -31.362 281.251  1.00  0.00     0.277 C
HETATM   10  C12 UNL     1      25.839 -31.717 281.032  1.00  0.00     0.066 C
HETATM   11  C14 UNL     1      24.828 -31.316 282.067  1.00  0.00     0.180 C
ENDROOT
BRANCH   9  12
HETATM   12  N7  UNL     1      28.068 -32.163 280.350  1.00  0.00    -0.065 N
ATOM     13  H73 UNL     1      29.007 -32.341 280.708  1.00  0.00     0.275 HD
ATOM     14  H72 UNL     1      27.768 -33.136 280.291  1.00  0.00     0.275 HD
ATOM     15  H71 UNL     1      28.064 -31.685 279.449  1.00  0.00     0.275 HD
ENDBRANCH   9  12
BRANCH   2  16
HETATM   16  N2  UNL     1      25.769 -33.442 284.995  1.00  0.00    -0.074 N
ATOM     17  H23 UNL     1      24.901 -33.120 285.423  1.00  0.00     0.274 HD
ATOM     18  H22 UNL     1      25.508 -34.423 284.891  1.00  0.00     0.274 HD
ATOM     19  H21 UNL     1      26.584 -33.306 285.592  1.00  0.00     0.274 HD
ENDBRANCH   2  16
BRANCH   7  20
HETATM   20  C7  UNL     1      30.056 -29.934 284.558  1.00  0.00     0.105 C
BRANCH  20  21
HETATM   21  C8  UNL     1      31.223 -29.915 285.472  1.00  0.00     0.037 C
BRANCH  21  22
HETATM   22  C9  UNL     1      32.539 -30.275 284.862  1.00  0.00     0.237 C
BRANCH  22  23
HETATM   23  N4  UNL     1      33.188 -31.374 285.547  1.00  0.00    -0.022 N
HETATM   24  C10 UNL     1      34.618 -31.309 285.545  1.00  0.00     0.575 C
HETATM   25  N5  UNL     1      35.179 -30.148 286.167  1.00  0.00    -0.026 N
HETATM   26  N6  UNL     1      35.091 -32.507 286.249  1.00  0.00    -0.026 N
ATOM     27  H53 UNL     1      34.789 -29.304 285.749  1.00  0.00     0.278 HD
ATOM     28  H52 UNL     1      34.826 -30.056 287.120  1.00  0.00     0.278 HD
ATOM     29  H51 UNL     1      36.198 -30.101 286.166  1.00  0.00     0.278 HD
ATOM     30  H63 UNL     1      34.694 -32.612 287.182  1.00  0.00     0.278 HD
ATOM     31  H62 UNL     1      34.726 -33.376 285.858  1.00  0.00     0.278 HD
ATOM     32  H61 UNL     1      36.110 -32.461 286.248  1.00  0.00     0.278 HD
ATOM     33  H42 UNL     1      32.838 -31.456 286.501  1.00  0.00     0.281 HD
ATOM     34  H41 UNL     1      32.872 -32.266 285.168  1.00  0.00     0.281 HD
ENDBRANCH  22  23
ENDBRANCH  21  22
ENDBRANCH  20  21
ENDBRANCH   7  20
BRANCH  10  35
HETATM   35  N8  UNL     1      25.698 -33.074 280.550  1.00  0.00    -0.335 N
HETATM   36  C13 UNL     1      25.172 -33.454 279.464  1.00  0.00     0.201 C
HETATM   37  N9  UNL     1      25.131 -34.837 279.175  1.00  0.00    -0.067 NA
HETATM   38  N10 UNL     1      24.611 -32.564 278.513  1.00  0.00    -0.067 NA
ATOM     39  H8  UNL     1      26.065 -33.809 281.156  1.00  0.00     0.168 HD
ENDBRANCH  10  35
BRANCH   1  40
HETATM   40  C1  UNL     1      24.680 -30.965 284.566  1.00  0.00     0.239 C
BRANCH  40  41
HETATM   41  N1  UNL     1      23.315 -30.956 285.002  1.00  0.00    -0.079 N
ATOM     42  H13 UNL     1      22.992 -30.006 285.183  1.00  0.00     0.274 HD
ATOM     43  H12 UNL     1      22.683 -31.200 284.240  1.00  0.00     0.274 HD
ATOM     44  H11 UNL     1      23.164 -31.557 285.813  1.00  0.00     0.274 HD
ENDBRANCH  40  41
ENDBRANCH   1  40
BRANCH  11  45
HETATM   45  N11 UNL     1      23.544 -31.553 281.408  1.00  0.00    -0.316 N
ATOM     46  H11 UNL     1      23.016 -32.412 281.563  1.00  0.00     0.181 HD
BRANCH  45  47
HETATM   47  N12 UNL     1      23.089 -30.583 280.586  1.00  0.00    -0.348 N
ATOM     48 2H12 UNL     1      23.684 -30.207 279.847  1.00  0.00     0.176 HD
ATOM     49 1H12 UNL     1      22.136 -30.254 280.742  1.00  0.00     0.176 HD
ENDBRANCH  45  47
ENDBRANCH  11  45
BRANCH  11  50
HETATM   50  C15 UNL     1      24.921 -29.815 282.141  1.00  0.00     0.210 C
HETATM   51  O2  UNL     1      25.961 -29.180 281.747  1.00  0.00    -0.646 OA
HETATM   52  O3  UNL     1      23.916 -29.005 282.632  1.00  0.00    -0.646 OA
ENDBRANCH  11  50
TORSDOF 12
ENDMDL