MODEL 5
REMARK VINA RESULT: -8.142541197      2.696      7.881
REMARK  14 active torsions:
REMARK  status: ('A' for Active; 'I' for Inactive)
REMARK    1  A    between atoms: N1_1  and  N2_4
REMARK    2  A    between atoms: N2_4  and  C1_5
REMARK    3  A    between atoms: C1_5  and  C2_6
REMARK    4  A    between atoms: C1_5  and  C14_38
REMARK       I    between atoms: C2_6  and  N3_8
REMARK       I    between atoms: N3_8  and  C3_10
REMARK    5  A    between atoms: C3_10  and  C4_12
REMARK    6  A    between atoms: C4_12  and  N4_13
REMARK    7  A    between atoms: C4_12  and  C13_35
REMARK       I    between atoms: N4_13  and  C5_15
REMARK    8  A    between atoms: C5_15  and  C6_17
REMARK    9  A    between atoms: C9_21  and  C10_22
REMARK   10  A    between atoms: C10_22  and  O4_23
REMARK   11  A    between atoms: C10_22  and  O5_25
REMARK   12  A    between atoms: C11_27  and  N6_28
REMARK   13  A    between atoms: C14_38  and  O8_39
REMARK   14  A    between atoms: C14_38  and  O9_41
ROOT
HETATM    1  N4  UNL     1      23.982 -31.541 283.942  1.00  0.00    -0.337 N
ATOM      2  H4  UNL     1      23.036 -31.537 284.322  1.00  0.00     0.164 HD
HETATM    3  C5  UNL     1      24.827 -32.591 284.303  1.00  0.00     0.245 C
HETATM    4  O3  UNL     1      26.026 -32.642 283.852  1.00  0.00    -0.271 OA
ENDROOT
BRANCH   1   5
HETATM    5  C4  UNL     1      24.369 -30.452 283.054  1.00  0.00     0.279 C
BRANCH   5   6
HETATM    6  C3  UNL     1      24.171 -30.794 281.643  1.00  0.00     0.257 C
HETATM    7  N3  UNL     1      25.085 -31.632 280.968  1.00  0.00    -0.294 N
HETATM    8  C2  UNL     1      24.973 -32.002 279.621  1.00  0.00     0.250 C
ATOM      9  H3  UNL     1      25.879 -31.993 281.496  1.00  0.00     0.171 HD
HETATM   10  O1  UNL     1      24.011 -31.577 278.942  1.00  0.00    -0.271 OA
HETATM   11  O2  UNL     1      23.191 -30.350 281.008  1.00  0.00    -0.270 OA
BRANCH   8  12
HETATM   12  C1  UNL     1      25.964 -32.885 278.976  1.00  0.00     0.245 C
BRANCH  12  13
HETATM   13  N2  UNL     1      26.217 -32.512 277.601  1.00  0.00    -0.129 NA
BRANCH  13  14
HETATM   14  N1  UNL     1      27.563 -32.649 277.276  1.00  0.00    -0.347 N
ATOM     15  H12 UNL     1      28.205 -31.862 277.194  1.00  0.00     0.172 HD
ATOM     16  H11 UNL     1      27.813 -33.628 277.134  1.00  0.00     0.172 HD
ENDBRANCH  13  14
ENDBRANCH  12  13
BRANCH  12  17
HETATM   17  C14 UNL     1      25.578 -34.348 279.092  1.00  0.00     0.284 C
BRANCH  17  18
HETATM   18  O8  UNL     1      24.261 -34.508 279.512  1.00  0.00    -0.369 OA
ATOM     19  H8  UNL     1      23.666 -33.934 279.045  1.00  0.00     0.212 HD
ENDBRANCH  17  18
BRANCH  17  20
HETATM   20  O9  UNL     1      25.725 -34.988 277.867  1.00  0.00    -0.369 OA
ATOM     21  H9  UNL     1      24.986 -34.796 277.301  1.00  0.00     0.212 HD
ENDBRANCH  17  20
ENDBRANCH  12  17
ENDBRANCH   8  12
ENDBRANCH   5   6
BRANCH   5  22
HETATM   22  C13 UNL     1      23.451 -29.319 283.406  1.00  0.00     0.206 C
HETATM   23  O6  UNL     1      23.544 -28.174 282.934  1.00  0.00    -0.646 OA
HETATM   24  O7  UNL     1      22.440 -29.571 284.311  1.00  0.00    -0.646 OA
ENDBRANCH   5  22
ENDBRANCH   1   5
BRANCH   3  25
HETATM   25  C6  UNL     1      24.356 -33.649 285.203  1.00  0.00     0.206 C
HETATM   26  C7  UNL     1      23.857 -33.034 286.462  1.00  0.00     0.031 C
HETATM   27  C8  UNL     1      23.400 -33.715 287.639  1.00  0.00     0.034 C
HETATM   28  N5  UNL     1      22.143 -34.472 287.406  1.00  0.00    -0.107 NA
HETATM   29  C9  UNL     1      24.256 -34.366 288.677  1.00  0.00     0.131 C
HETATM   30  C11 UNL     1      25.380 -35.276 288.085  1.00  0.00     0.285 C
HETATM   31  C12 UNL     1      25.459 -34.962 286.721  1.00  0.00    -0.040 C
HETATM   32  N7  UNL     1      25.454 -34.648 285.415  1.00  0.00    -0.341 N
ATOM     33  H7  UNL     1      26.080 -35.021 284.700  1.00  0.00     0.170 HD
BRANCH  29  34
HETATM   34  C10 UNL     1      24.883 -33.381 289.636  1.00  0.00     0.266 C
BRANCH  34  35
HETATM   35  O4  UNL     1      24.742 -32.080 289.154  1.00  0.00    -0.371 OA
ATOM     36  H4  UNL     1      25.535 -31.805 288.709  1.00  0.00     0.212 HD
ENDBRANCH  34  35
BRANCH  34  37
HETATM   37  O5  UNL     1      26.222 -33.604 289.834  1.00  0.00    -0.371 OA
ATOM     38  H5  UNL     1      26.587 -33.073 290.532  1.00  0.00     0.212 HD
ENDBRANCH  34  37
ENDBRANCH  29  34
BRANCH  30  39
HETATM   39  N6  UNL     1      25.065 -36.686 288.405  1.00  0.00    -0.063 N
ATOM     40  H63 UNL     1      25.878 -37.201 288.742  1.00  0.00     0.275 HD
ATOM     41  H62 UNL     1      24.484 -36.777 289.238  1.00  0.00     0.275 HD
ATOM     42  H61 UNL     1      24.641 -37.120 287.585  1.00  0.00     0.275 HD
ENDBRANCH  30  39
ENDBRANCH   3  25
TORSDOF 14
ENDMDL