MODEL 3
REMARK VINA RESULT: -7.827621187      2.853      6.098
REMARK  13 active torsions:
REMARK  status: ('A' for Active; 'I' for Inactive)
REMARK       I    between atoms: C1_4  and  N2_5
REMARK       I    between atoms: C1_4  and  N4_10
REMARK    1  A    between atoms: N2_5  and  N3_7
REMARK    2  A    between atoms: N4_10  and  N5_12
REMARK       I    between atoms: N5_12  and  C2_14
REMARK    3  A    between atoms: C2_14  and  C3_16
REMARK    4  A    between atoms: C3_16  and  N6_17
REMARK    5  A    between atoms: C3_16  and  C4_21
REMARK    6  A    between atoms: C3_16  and  C5_24
REMARK    7  A    between atoms: C4_21  and  O2_22
REMARK    8  A    between atoms: C5_24  and  C6_26
REMARK    9  A    between atoms: C6_26  and  C7_27
REMARK   10  A    between atoms: C7_27  and  O4_28
REMARK   11  A    between atoms: O4_28  and  C8_29
REMARK   12  A    between atoms: C9_30  and  S1_31
REMARK   13  A    between atoms: S1_31  and  N7_32
ROOT
HETATM    1  C3  UNL     1      24.885 -30.655 283.448  1.00  0.00     0.284 C
ENDROOT
BRANCH   1   2
HETATM    2  C2  UNL     1      26.248 -30.366 282.913  1.00  0.00     0.282 C
HETATM    3  N5  UNL     1      27.456 -30.682 283.577  1.00  0.00    -0.253 N
ATOM      4  H5  UNL     1      27.409 -31.139 284.488  1.00  0.00     0.190 HD
HETATM    5  O1  UNL     1      26.399 -29.792 281.773  1.00  0.00    -0.268 OA
BRANCH   3   6
HETATM    6  N4  UNL     1      28.710 -30.394 283.036  1.00  0.00    -0.129 N
HETATM    7  C1  UNL     1      29.912 -30.642 283.735  1.00  0.00     0.704 C
HETATM    8  N1  UNL     1      30.745 -31.544 283.348  1.00  0.00    -0.232 N
HETATM    9  N2  UNL     1      30.206 -29.875 284.883  1.00  0.00    -0.138 N
ATOM     10  H12 UNL     1      31.613 -31.723 283.852  1.00  0.00     0.174 HD
ATOM     11  H11 UNL     1      30.532 -32.098 282.518  1.00  0.00     0.174 HD
ATOM     12  H2  UNL     1      29.457 -29.615 285.525  1.00  0.00     0.205 HD
ATOM     13  H4  UNL     1      28.760 -29.988 282.102  1.00  0.00     0.205 HD
BRANCH   9  14
HETATM   14  N3  UNL     1      31.509 -29.474 285.144  1.00  0.00    -0.331 N
ATOM     15  H32 UNL     1      32.265 -30.147 285.021  1.00  0.00     0.177 HD
ATOM     16  H31 UNL     1      31.703 -28.521 285.453  1.00  0.00     0.177 HD
ENDBRANCH   9  14
ENDBRANCH   3   6
ENDBRANCH   1   2
BRANCH   1  17
HETATM   17  N6  UNL     1      24.900 -30.103 284.814  1.00  0.00    -0.052 N
ATOM     18  H63 UNL     1      24.296 -29.291 284.941  1.00  0.00     0.276 HD
ATOM     19  H62 UNL     1      24.444 -30.694 285.508  1.00  0.00     0.276 HD
ATOM     20  H61 UNL     1      25.886 -29.923 285.005  1.00  0.00     0.276 HD
ENDBRANCH   1  17
BRANCH   1  21
HETATM   21  C4  UNL     1      23.844 -30.022 282.581  1.00  0.00     0.221 C
BRANCH  21  22
HETATM   22  O2  UNL     1      23.575 -28.714 282.902  1.00  0.00    -0.397 OA
ATOM     23  H2  UNL     1      24.271 -28.286 283.386  1.00  0.00     0.209 HD
ENDBRANCH  21  22
ENDBRANCH   1  21
BRANCH   1  24
HETATM   24  C5  UNL     1      24.669 -32.129 283.570  1.00  0.00     0.176 C
HETATM   25  O3  UNL     1      23.906 -32.488 284.464  1.00  0.00    -0.295 OA
BRANCH  24  26
HETATM   26  C6  UNL     1      25.327 -33.104 282.675  1.00  0.00     0.108 C
BRANCH  26  27
HETATM   27  C7  UNL     1      24.403 -34.154 282.193  1.00  0.00     0.183 C
BRANCH  27  28
HETATM   28  O4  UNL     1      23.848 -34.080 280.922  1.00  0.00    -0.343 OA
BRANCH  28  29
HETATM   29  C8  UNL     1      24.697 -34.062 279.797  1.00  0.00     0.177 A
HETATM   30  C9  UNL     1      25.038 -35.291 279.294  1.00  0.00     0.192 A
HETATM   31  N8  UNL     1      25.846 -35.328 278.182  1.00  0.00    -0.295 N
HETATM   32  C10 UNL     1      26.309 -34.226 277.585  1.00  0.00     0.328 A
ATOM     33  H8  UNL     1      26.104 -36.236 277.797  1.00  0.00     0.171 HD
HETATM   34  O7  UNL     1      27.061 -34.318 276.548  1.00  0.00    -0.247 OA
HETATM   35  N9  UNL     1      25.959 -33.056 278.112  1.00  0.00    -0.273 N
HETATM   36  C11 UNL     1      25.164 -32.905 279.206  1.00  0.00     0.285 A
ATOM     37  H9  UNL     1      26.312 -32.210 277.663  1.00  0.00     0.173 HD
HETATM   38  O8  UNL     1      24.887 -31.782 279.641  1.00  0.00    -0.265 OA
BRANCH  30  39
HETATM   39  S1  UNL     1      24.658 -36.791 280.071  1.00  0.00     0.275 S
HETATM   40  O5  UNL     1      24.889 -36.935 281.495  1.00  0.00    -0.199 OA
HETATM   41  O6  UNL     1      25.632 -37.812 279.401  1.00  0.00    -0.199 OA
BRANCH  39  42
HETATM   42  N7  UNL     1      23.101 -37.379 279.530  1.00  0.00    -0.323 N
ATOM     43  H72 UNL     1      22.522 -38.030 280.059  1.00  0.00     0.169 HD
ATOM     44  H71 UNL     1      22.866 -36.976 278.623  1.00  0.00     0.169 HD
ENDBRANCH  39  42
ENDBRANCH  30  39
ENDBRANCH  28  29
ENDBRANCH  27  28
ENDBRANCH  26  27
ENDBRANCH  24  26
ENDBRANCH   1  24
TORSDOF 13
ENDMDL