MODEL 3
REMARK VINA RESULT: -8.961566980      1.608      2.740
REMARK  14 active torsions:
REMARK  status: ('A' for Active; 'I' for Inactive)
REMARK    1  A    between atoms: N1_1  and  N2_4
REMARK       I    between atoms: N2_4  and  C1_6
REMARK    2  A    between atoms: C1_6  and  C2_8
REMARK    3  A    between atoms: C2_8  and  C3_9
REMARK    4  A    between atoms: C3_9  and  C4_10
REMARK    5  A    between atoms: C3_9  and  N12_41
REMARK    6  A    between atoms: C4_10  and  C5_11
REMARK    7  A    between atoms: C5_11  and  N3_12
REMARK    8  A    between atoms: C5_11  and  C6_16
REMARK    9  A    between atoms: C6_16  and  O2_17
REMARK   10  A    between atoms: C6_16  and  N4_19
REMARK   11  A    between atoms: N4_19  and  C7_21
REMARK   12  A    between atoms: C8_24  and  C9_25
REMARK   13  A    between atoms: C11_29  and  N7_30
REMARK   14  A    between atoms: N7_30  and  C12_32
REMARK       I    between atoms: N12_41  and  C14_43
ROOT
HETATM    1  C6  UNL     1      23.772 -30.212 283.801  1.00  0.00     0.265 C
ENDROOT
BRANCH   1   2
HETATM    2  C5  UNL     1      23.959 -30.611 282.350  1.00  0.00     0.234 C
BRANCH   2   3
HETATM    3  C4  UNL     1      25.270 -30.130 281.783  1.00  0.00     0.063 C
BRANCH   3   4
HETATM    4  C3  UNL     1      25.906 -31.257 281.039  1.00  0.00     0.096 C
BRANCH   4   5
HETATM    5  C2  UNL     1      27.383 -31.366 281.204  1.00  0.00     0.129 C
BRANCH   5   6
HETATM    6  C1  UNL     1      27.865 -31.297 282.587  1.00  0.00     0.237 C
HETATM    7  N2  UNL     1      28.927 -30.403 282.891  1.00  0.00    -0.277 N
ATOM      8  H2  UNL     1      29.319 -29.838 282.138  1.00  0.00     0.189 HD
HETATM    9  O1  UNL     1      27.410 -31.977 283.548  1.00  0.00    -0.272 OA
BRANCH   7  10
HETATM   10  N1  UNL     1      29.458 -30.263 284.178  1.00  0.00    -0.343 N
ATOM     11  H12 UNL     1      29.458 -31.086 284.780  1.00  0.00     0.176 HD
ATOM     12  H11 UNL     1      29.838 -29.383 284.529  1.00  0.00     0.176 HD
ENDBRANCH   7  10
ENDBRANCH   5   6
ENDBRANCH   4   5
BRANCH   4  13
HETATM   13  N12 UNL     1      25.567 -31.287 279.644  1.00  0.00    -0.340 N
HETATM   14  C14 UNL     1      24.727 -32.258 279.060  1.00  0.00     0.329 C
HETATM   15  N13 UNL     1      24.428 -32.240 277.680  1.00  0.00    -0.040 NA
HETATM   16  O4  UNL     1      24.234 -33.160 279.771  1.00  0.00    -0.251 OA
ATOM     17  H12 UNL     1      25.956 -30.562 279.040  1.00  0.00     0.164 HD
ENDBRANCH   4  13
ENDBRANCH   3   4
ENDBRANCH   2   3
BRANCH   2  18
HETATM   18  N3  UNL     1      22.851 -30.185 281.528  1.00  0.00    -0.071 N
ATOM     19  H33 UNL     1      23.161 -29.895 280.600  1.00  0.00     0.274 HD
ATOM     20  H32 UNL     1      22.261 -30.971 281.254  1.00  0.00     0.274 HD
ATOM     21  H31 UNL     1      22.312 -29.453 281.991  1.00  0.00     0.274 HD
ENDBRANCH   2  18
ENDBRANCH   1   2
BRANCH   1  22
HETATM   22  O2  UNL     1      23.925 -28.810 283.811  1.00  0.00    -0.374 OA
ATOM     23  H2  UNL     1      24.578 -28.641 284.480  1.00  0.00     0.212 HD
ENDBRANCH   1  22
BRANCH   1  24
HETATM   24  N4  UNL     1      24.730 -30.807 284.670  1.00  0.00    -0.198 N
ATOM     25  H4  UNL     1      25.654 -30.389 284.777  1.00  0.00     0.180 HD
BRANCH  24  26
HETATM   26  C7  UNL     1      24.422 -31.875 285.318  1.00  0.00     0.682 A
HETATM   27  N5  UNL     1      23.213 -32.045 285.872  1.00  0.00    -0.187 N
HETATM   28  C8  UNL     1      22.879 -33.165 286.557  1.00  0.00     0.117 A
ATOM     29  H5  UNL     1      22.519 -31.304 285.774  1.00  0.00     0.184 HD
HETATM   30  C10 UNL     1      23.793 -34.170 286.700  1.00  0.00     0.084 A
HETATM   31  C11 UNL     1      25.046 -34.013 286.135  1.00  0.00     0.126 A
HETATM   32  N11 UNL     1      25.334 -32.875 285.460  1.00  0.00    -0.177 N
ATOM     33  H11 UNL     1      26.260 -32.765 285.047  1.00  0.00     0.186 HD
BRANCH  28  34
HETATM   34  C9  UNL     1      21.557 -33.262 287.118  1.00  0.00     0.282 C
HETATM   35  N6  UNL     1      21.098 -34.369 287.881  1.00  0.00    -0.056 NA
HETATM   36  O3  UNL     1      20.740 -32.325 286.937  1.00  0.00    -0.269 OA
ENDBRANCH  28  34
BRANCH  31  37
HETATM   37  N7  UNL     1      25.913 -34.956 286.266  1.00  0.00    -0.313 N
ATOM     38  H7  UNL     1      26.594 -35.148 285.531  1.00  0.00     0.170 HD
BRANCH  37  39
HETATM   39  C12 UNL     1      25.893 -35.724 287.467  1.00  0.00     0.194 C
HETATM   40  N8  UNL     1      25.571 -35.344 288.655  1.00  0.00    -0.346 N
HETATM   41  C13 UNL     1      25.685 -36.436 289.597  1.00  0.00     0.259 C
ATOM     42  H8  UNL     1      25.275 -34.399 288.900  1.00  0.00     0.163 HD
HETATM   43  N9  UNL     1      26.415 -37.485 288.908  1.00  0.00    -0.119 NA
HETATM   44  N10 UNL     1      26.237 -37.102 287.575  1.00  0.00    -0.274 N
ATOM     45  H10 UNL     1      26.340 -37.731 286.779  1.00  0.00     0.185 HD
ENDBRANCH  37  39
ENDBRANCH  31  37
ENDBRANCH  24  26
ENDBRANCH   1  24
TORSDOF 14
ENDMDL