MODEL 3
REMARK VINA RESULT: -9.437003610      1.180      1.892
REMARK  16 active torsions:
REMARK  status: ('A' for Active; 'I' for Inactive)
REMARK    1  A    between atoms: N1_1  and  C1_4
REMARK    2  A    between atoms: C3_11  and  N4_12
REMARK       I    between atoms: N4_12  and  C4_14
REMARK    3  A    between atoms: C4_14  and  C5_16
REMARK    4  A    between atoms: C5_16  and  N5_17
REMARK    5  A    between atoms: C5_16  and  C12_35
REMARK    6  A    between atoms: N5_17  and  N6_18
REMARK       I    between atoms: N6_18  and  C6_20
REMARK    7  A    between atoms: C6_20  and  C7_22
REMARK    8  A    between atoms: C7_22  and  O4_23
REMARK    9  A    between atoms: C7_22  and  C8_25
REMARK   10  A    between atoms: C8_25  and  C9_26
REMARK   11  A    between atoms: C9_26  and  O5_27
REMARK   12  A    between atoms: C9_26  and  C10_29
REMARK   13  A    between atoms: C10_29  and  O6_30
REMARK   14  A    between atoms: C10_29  and  C11_32
REMARK   15  A    between atoms: C11_32  and  O7_33
REMARK   16  A    between atoms: C13_38  and  N8_39
ROOT
HETATM    1  C5  UNL     1      26.257 -31.899 283.012  1.00  0.00     0.260 C
ENDROOT
BRANCH   1   2
HETATM    2  C4  UNL     1      27.054 -31.263 281.948  1.00  0.00     0.264 C
HETATM    3  N4  UNL     1      27.874 -32.044 281.109  1.00  0.00    -0.157 N
ATOM      4  H4  UNL     1      28.691 -32.504 281.510  1.00  0.00     0.187 HD
HETATM    5  O2  UNL     1      27.013 -30.034 281.779  1.00  0.00    -0.270 OA
BRANCH   3   6
HETATM    6  C3  UNL     1      27.623 -32.201 279.836  1.00  0.00     0.703 A
HETATM    7  N3  UNL     1      26.783 -33.150 279.402  1.00  0.00    -0.140 N
HETATM    8  C2  UNL     1      26.521 -33.325 278.077  1.00  0.00     0.352 A
ATOM      9  H3  UNL     1      26.327 -33.758 280.083  1.00  0.00     0.189 HD
HETATM   10  N2  UNL     1      27.119 -32.526 277.167  1.00  0.00    -0.141 N
HETATM   11  O1  UNL     1      25.734 -34.211 277.646  1.00  0.00    -0.246 OA
HETATM   12  C1  UNL     1      27.963 -31.569 277.578  1.00  0.00     0.694 A
ATOM     13  H2  UNL     1      26.929 -32.649 276.173  1.00  0.00     0.189 HD
HETATM   14  N11 UNL     1      28.208 -31.416 278.917  1.00  0.00    -0.022 N
ATOM     15  H11 UNL     1      28.852 -30.687 279.224  1.00  0.00     0.203 HD
BRANCH  12  16
HETATM   16  N1  UNL     1      28.568 -30.774 276.747  1.00  0.00    -0.234 N
ATOM     17  H12 UNL     1      28.450 -29.768 276.867  1.00  0.00     0.174 HD
ATOM     18  H11 UNL     1      29.153 -31.122 275.988  1.00  0.00     0.174 HD
ENDBRANCH  12  16
ENDBRANCH   3   6
ENDBRANCH   1   2
BRANCH   1  19
HETATM   19  N5  UNL     1      27.119 -32.293 284.102  1.00  0.00    -0.116 NA
BRANCH  19  20
HETATM   20  N6  UNL     1      28.260 -31.533 284.148  1.00  0.00    -0.271 N
HETATM   21  C6  UNL     1      29.328 -31.902 284.999  1.00  0.00     0.262 C
HETATM   22  O3  UNL     1      29.235 -32.920 285.708  1.00  0.00    -0.269 OA
ATOM     23  H6  UNL     1      28.338 -30.698 283.566  1.00  0.00     0.185 HD
BRANCH  21  24
HETATM   24  C7  UNL     1      30.537 -31.048 285.013  1.00  0.00     0.213 C
BRANCH  24  25
HETATM   25  O4  UNL     1      30.277 -29.789 284.490  1.00  0.00    -0.386 OA
ATOM     26  H4  UNL     1      30.372 -29.779 283.544  1.00  0.00     0.210 HD
ENDBRANCH  24  25
BRANCH  24  27
HETATM   27  C8  UNL     1      31.644 -31.787 284.289  1.00  0.00     0.076 C
BRANCH  27  28
HETATM   28  C9  UNL     1      32.441 -32.526 285.350  1.00  0.00     0.151 C
BRANCH  28  29
HETATM   29  O5  UNL     1      32.335 -33.889 285.031  1.00  0.00    -0.393 OA
ATOM     30  H5  UNL     1      32.473 -33.948 284.092  1.00  0.00     0.210 HD
ENDBRANCH  28  29
BRANCH  28  31
HETATM   31  C10 UNL     1      33.898 -32.156 285.357  1.00  0.00     0.170 C
BRANCH  31  32
HETATM   32  O6  UNL     1      34.095 -30.831 285.676  1.00  0.00    -0.391 OA
ATOM     33  H6  UNL     1      33.589 -30.250 285.120  1.00  0.00     0.210 HD
ENDBRANCH  31  32
BRANCH  31  34
HETATM   34  C11 UNL     1      34.665 -33.124 286.197  1.00  0.00     0.198 C
BRANCH  34  35
HETATM   35  O7  UNL     1      35.023 -34.249 285.447  1.00  0.00    -0.398 OA
ATOM     36  H7  UNL     1      34.798 -34.127 284.532  1.00  0.00     0.209 HD
ENDBRANCH  34  35
ENDBRANCH  31  34
ENDBRANCH  28  31
ENDBRANCH  27  28
ENDBRANCH  24  27
ENDBRANCH  21  24
ENDBRANCH  19  20
ENDBRANCH   1  19
BRANCH   1  37
HETATM   37  C12 UNL     1      25.162 -31.034 283.488  1.00  0.00     0.125 A
HETATM   38  N7  UNL     1      23.933 -31.106 283.142  1.00  0.00    -0.333 N
HETATM   39  C13 UNL     1      23.197 -30.075 283.843  1.00  0.00     0.402 A
ATOM     40  H7  UNL     1      23.538 -31.777 282.483  1.00  0.00     0.164 HD
HETATM   41  N9  UNL     1      24.193 -29.418 284.633  1.00  0.00    -0.288 N
HETATM   42  N10 UNL     1      25.299 -29.979 284.413  1.00  0.00    -0.288 N
ATOM     43  H9  UNL     1      24.034 -28.632 285.263  1.00  0.00     0.184 HD
ATOM     44  H10 UNL     1      26.180 -29.706 284.849  1.00  0.00     0.188 HD
BRANCH  39  45
HETATM   45  N8  UNL     1      22.614 -29.157 282.903  1.00  0.00    -0.039 N
ATOM     46  H83 UNL     1      21.700 -29.473 282.579  1.00  0.00     0.279 HD
ATOM     47  H82 UNL     1      22.323 -28.287 283.350  1.00  0.00     0.279 HD
ATOM     48  H81 UNL     1      23.257 -28.990 282.129  1.00  0.00     0.279 HD
ENDBRANCH  39  45
ENDBRANCH   1  37
TORSDOF 16
ENDMDL