MODEL 3
REMARK VINA RESULT: -8.431534449      3.209      4.182
REMARK  14 active torsions:
REMARK  status: ('A' for Active; 'I' for Inactive)
REMARK    1  A    between atoms: N1_1  and  C1_5
REMARK    2  A    between atoms: C1_5  and  C2_6
REMARK    3  A    between atoms: C2_6  and  N2_7
REMARK    4  A    between atoms: N2_7  and  N3_9
REMARK    5  A    between atoms: N3_9  and  C3_11
REMARK    6  A    between atoms: N7_22  and  C7_23
REMARK    7  A    between atoms: C8_27  and  C9_28
REMARK    8  A    between atoms: C9_28  and  N9_29
REMARK       I    between atoms: N9_29  and  C10_31
REMARK    9  A    between atoms: C10_31  and  C11_33
REMARK   10  A    between atoms: C11_33  and  N10_34
REMARK   11  A    between atoms: C11_33  and  C12_38
REMARK   12  A    between atoms: C12_38  and  N11_39
REMARK   13  A    between atoms: C12_38  and  C13_43
REMARK       I    between atoms: C13_43  and  N12_45
REMARK   14  A    between atoms: N12_45  and  N13_47
ROOT
HETATM    1  C7  UNL     1      24.060 -30.939 280.781  1.00  0.00     0.444 C
HETATM    2  N8  UNL     1      23.511 -31.118 282.136  1.00  0.00    -0.002 N
ATOM      3  H81 UNL     1      23.605 -31.984 282.666  1.00  0.00     0.285 HD
ATOM      4  H82 UNL     1      22.511 -31.186 282.328  1.00  0.00     0.285 HD
HETATM    5  C8  UNL     1      24.299 -29.918 282.418  1.00  0.00     0.347 C
HETATM    6  O4  UNL     1      25.014 -30.050 281.268  1.00  0.00    -0.308 OA
ENDROOT
BRANCH   1   7
HETATM    7  N7  UNL     1      24.565 -32.218 280.326  1.00  0.00    -0.242 N
HETATM    8  C6  UNL     1      24.534 -33.218 281.222  1.00  0.00     0.163 A
HETATM    9  C5  UNL     1      24.598 -34.584 281.047  1.00  0.00     0.162 A
HETATM   10  N6  UNL     1      24.446 -33.484 282.535  1.00  0.00    -0.282 N
HETATM   11  C4  UNL     1      24.713 -35.204 279.821  1.00  0.00     0.279 C
HETATM   12  N5  UNL     1      24.506 -34.795 282.379  1.00  0.00    -0.291 N
HETATM   13  N4  UNL     1      25.004 -34.668 278.598  1.00  0.00    -0.302 N
HETATM   14  O1  UNL     1      24.514 -36.444 279.865  1.00  0.00    -0.265 OA
HETATM   15  C3  UNL     1      25.337 -33.404 278.279  1.00  0.00     0.192 C
ATOM     16  H4  UNL     1      24.962 -35.320 277.815  1.00  0.00     0.171 HD
HETATM   17  C14 UNL     1      25.019 -32.286 279.051  1.00  0.00     0.298 C
HETATM   18  O5  UNL     1      25.190 -31.209 278.453  1.00  0.00    -0.264 OA
ATOM     19  H5  UNL     1      24.490 -35.609 282.993  1.00  0.00     0.187 HD
ATOM     20  H6  UNL     1      24.363 -32.888 283.358  1.00  0.00     0.188 HD
BRANCH  15  21
HETATM   21  N3  UNL     1      25.990 -33.181 277.202  1.00  0.00    -0.285 N
ATOM     22  H3  UNL     1      25.430 -33.044 276.361  1.00  0.00     0.188 HD
BRANCH  21  23
HETATM   23  N2  UNL     1      27.344 -33.103 277.037  1.00  0.00    -0.333 N
ATOM     24  H2  UNL     1      27.757 -33.266 276.119  1.00  0.00     0.180 HD
BRANCH  23  25
HETATM   25  C2  UNL     1      28.190 -32.790 278.163  1.00  0.00     0.166 C
BRANCH  25  26
HETATM   26  C1  UNL     1      28.566 -31.308 278.172  1.00  0.00     0.250 C
BRANCH  26  27
HETATM   27  N1  UNL     1      28.491 -30.773 276.838  1.00  0.00    -0.078 N
ATOM     28  H13 UNL     1      27.753 -31.215 276.289  1.00  0.00     0.274 HD
ATOM     29  H12 UNL     1      28.133 -29.819 276.828  1.00  0.00     0.274 HD
ATOM     30  H11 UNL     1      29.401 -30.845 276.382  1.00  0.00     0.274 HD
ENDBRANCH  26  27
ENDBRANCH  25  26
ENDBRANCH  23  25
ENDBRANCH  21  23
ENDBRANCH  15  21
ENDBRANCH   1   7
BRANCH   5  31
HETATM   31  C9  UNL     1      25.071 -30.065 283.680  1.00  0.00     0.184 C
BRANCH  31  32
HETATM   32  N9  UNL     1      26.457 -30.260 283.481  1.00  0.00    -0.355 N
HETATM   33  C10 UNL     1      27.194 -31.435 283.652  1.00  0.00     0.251 C
HETATM   34  O2  UNL     1      26.671 -32.505 284.038  1.00  0.00    -0.271 OA
ATOM     35  H9  UNL     1      26.983 -29.443 283.175  1.00  0.00     0.162 HD
BRANCH  33  36
HETATM   36  C11 UNL     1      28.673 -31.487 283.380  1.00  0.00     0.314 C
BRANCH  36  37
HETATM   37  N10 UNL     1      29.064 -30.328 282.566  1.00  0.00    -0.064 N
ATOM     38 3H10 UNL     1      29.309 -30.592 281.612  1.00  0.00     0.275 HD
ATOM     39 2H10 UNL     1      28.272 -29.723 282.352  1.00  0.00     0.275 HD
ATOM     40 1H10 UNL     1      29.819 -29.823 283.032  1.00  0.00     0.275 HD
ENDBRANCH  36  37
BRANCH  36  41
HETATM   41  C12 UNL     1      29.425 -31.346 284.677  1.00  0.00     0.315 C
BRANCH  41  42
HETATM   42  N11 UNL     1      29.338 -32.679 285.312  1.00  0.00    -0.064 N
ATOM     43 3H11 UNL     1      28.611 -33.277 284.920  1.00  0.00     0.275 HD
ATOM     44 2H11 UNL     1      30.123 -33.293 285.095  1.00  0.00     0.275 HD
ATOM     45 1H11 UNL     1      29.225 -32.487 286.307  1.00  0.00     0.275 HD
ENDBRANCH  41  42
BRANCH  41  46
HETATM   46  C13 UNL     1      30.875 -31.114 284.440  1.00  0.00     0.268 C
HETATM   47  O3  UNL     1      31.528 -31.844 283.645  1.00  0.00    -0.269 OA
HETATM   48  N12 UNL     1      31.535 -30.070 285.111  1.00  0.00    -0.275 N
ATOM     49  H12 UNL     1      31.027 -29.470 285.762  1.00  0.00     0.189 HD
BRANCH  48  50
HETATM   50  N13 UNL     1      32.904 -29.864 284.873  1.00  0.00    -0.343 N
ATOM     51 2H13 UNL     1      33.548 -30.653 284.926  1.00  0.00     0.176 HD
ATOM     52 1H13 UNL     1      33.231 -28.924 284.649  1.00  0.00     0.176 HD
ENDBRANCH  48  50
ENDBRANCH  41  46
ENDBRANCH  36  41
ENDBRANCH  33  36
ENDBRANCH  31  32
ENDBRANCH   5  31
TORSDOF 14
ENDMDL