MODEL 1
REMARK VINA RESULT: -8.523765512      0.000      0.000
REMARK  14 active torsions:
REMARK  status: ('A' for Active; 'I' for Inactive)
REMARK       I    between atoms: C2_2  and  N1_4
REMARK    1  A    between atoms: N1_4  and  C3_6
REMARK    2  A    between atoms: C3_6  and  C4_7
REMARK    3  A    between atoms: C4_7  and  O2_8
REMARK    4  A    between atoms: C4_7  and  C5_10
REMARK    5  A    between atoms: C5_10  and  N2_11
REMARK    6  A    between atoms: C5_10  and  C14_39
REMARK    7  A    between atoms: N2_11  and  C6_14
REMARK    8  A    between atoms: C6_14  and  O3_15
REMARK    9  A    between atoms: C6_14  and  C7_17
REMARK   10  A    between atoms: C8_19  and  O5_20
REMARK   11  A    between atoms: C11_30  and  N5_31
REMARK   12  A    between atoms: N5_31  and  N6_32
REMARK   13  A    between atoms: C12_35  and  C13_36
REMARK   14  A    between atoms: C14_39  and  O8_41
ROOT
HETATM    1  C7  UNL     1      24.381 -33.334 283.908  1.00  0.00     0.273 C
HETATM    2  O4  UNL     1      24.830 -34.165 284.949  1.00  0.00    -0.332 OA
HETATM    3  C8  UNL     1      24.318 -33.846 286.174  1.00  0.00     0.225 C
HETATM    4  C9  UNL     1      24.099 -32.402 286.467  1.00  0.00     0.352 C
HETATM    5  N3  UNL     1      24.663 -31.495 285.488  1.00  0.00    -0.327 N
ATOM      6  H3  UNL     1      24.810 -30.509 285.708  1.00  0.00     0.164 HD
HETATM    7  C10 UNL     1      25.010 -32.028 284.195  1.00  0.00     0.253 C
HETATM    8  O6  UNL     1      25.772 -31.365 283.481  1.00  0.00    -0.270 OA
HETATM    9  N4  UNL     1      24.584 -32.139 287.821  1.00  0.00    -0.028 N
ATOM     10  H41 UNL     1      23.950 -31.567 288.380  1.00  0.00     0.281 HD
ATOM     11  H42 UNL     1      25.380 -31.504 287.857  1.00  0.00     0.281 HD
HETATM   12  C11 UNL     1      24.855 -33.460 288.399  1.00  0.00     0.318 C
HETATM   13  C12 UNL     1      25.390 -34.196 287.219  1.00  0.00     0.189 C
ENDROOT
BRANCH   1  14
HETATM   14  C6  UNL     1      24.692 -33.946 282.594  1.00  0.00     0.358 C
BRANCH  14  15
HETATM   15  N2  UNL     1      24.516 -33.006 281.495  1.00  0.00    -0.037 N
ATOM     16  H22 UNL     1      24.441 -32.054 281.852  1.00  0.00     0.281 HD
ATOM     17  H21 UNL     1      23.589 -33.113 281.082  1.00  0.00     0.281 HD
BRANCH  15  18
HETATM   18  C5  UNL     1      25.517 -33.081 280.489  1.00  0.00     0.247 C
BRANCH  18  19
HETATM   19  C4  UNL     1      25.987 -31.706 280.105  1.00  0.00     0.169 C
BRANCH  19  20
HETATM   20  C3  UNL     1      27.462 -31.499 280.040  1.00  0.00     0.156 C
BRANCH  20  21
HETATM   21  N1  UNL     1      28.211 -31.824 281.203  1.00  0.00    -0.359 N
HETATM   22  C2  UNL     1      28.524 -30.793 282.120  1.00  0.00     0.213 C
HETATM   23  C1  UNL     1      29.303 -31.038 283.366  1.00  0.00     0.117 C
HETATM   24  O1  UNL     1      28.155 -29.612 281.927  1.00  0.00    -0.274 OA
ATOM     25  H1  UNL     1      28.516 -32.783 281.373  1.00  0.00     0.162 HD
ENDBRANCH  20  21
ENDBRANCH  19  20
BRANCH  19  26
HETATM   26  O2  UNL     1      25.365 -30.669 280.788  1.00  0.00    -0.392 OA
ATOM     27  H2  UNL     1      24.787 -30.180 280.213  1.00  0.00     0.210 HD
ENDBRANCH  19  26
ENDBRANCH  18  19
BRANCH  18  28
HETATM   28  C14 UNL     1      25.047 -33.728 279.194  1.00  0.00     0.147 C
HETATM   29  C15 UNL     1      24.542 -32.684 278.259  1.00  0.00     0.041 C
BRANCH  28  30
HETATM   30  O8  UNL     1      23.975 -34.560 279.538  1.00  0.00    -0.394 OA
ATOM     31  H8  UNL     1      23.588 -34.848 278.719  1.00  0.00     0.210 HD
ENDBRANCH  28  30
ENDBRANCH  18  28
ENDBRANCH  15  18
ENDBRANCH  14  15
BRANCH  14  32
HETATM   32  O3  UNL     1      23.754 -34.967 282.407  1.00  0.00    -0.367 OA
ATOM     33  H3  UNL     1      24.173 -35.777 282.676  1.00  0.00     0.212 HD
ENDBRANCH  14  32
ENDBRANCH   1  14
BRANCH   3  34
HETATM   34  O5  UNL     1      23.160 -34.592 286.390  1.00  0.00    -0.362 OA
ATOM     35  H5  UNL     1      22.455 -34.005 286.634  1.00  0.00     0.213 HD
ENDBRANCH   3  34
BRANCH  13  36
HETATM   36  C13 UNL     1      25.535 -35.633 287.363  1.00  0.00     0.244 C
HETATM   37  N7  UNL     1      24.569 -36.392 288.060  1.00  0.00    -0.062 NA
HETATM   38  O7  UNL     1      26.518 -36.220 286.871  1.00  0.00    -0.276 OA
ENDBRANCH  13  36
BRANCH  12  39
HETATM   39  N5  UNL     1      25.737 -33.399 289.519  1.00  0.00    -0.114 NA
BRANCH  39  40
HETATM   40  N6  UNL     1      25.550 -34.474 290.396  1.00  0.00    -0.346 N
ATOM     41  H62 UNL     1      24.782 -35.140 290.307  1.00  0.00     0.172 HD
ATOM     42  H61 UNL     1      26.266 -34.507 291.121  1.00  0.00     0.172 HD
ENDBRANCH  39  40
ENDBRANCH  12  39
TORSDOF 14
ENDMDL