MODEL 1
REMARK VINA RESULT: -8.232092338      0.000      0.000
REMARK  8 active torsions:
REMARK  status: ('A' for Active; 'I' for Inactive)
REMARK    1  A    between atoms: C2_2  and  C3_3
REMARK    2  A    between atoms: C4_4  and  O1_5
REMARK    3  A    between atoms: N1_7  and  O2_8
REMARK    4  A    between atoms: N2_12  and  C6_13
REMARK    5  A    between atoms: C6_13  and  C7_14
REMARK    6  A    between atoms: C8_15  and  C9_16
REMARK    7  A    between atoms: C9_16  and  C10_17
REMARK    8  A    between atoms: C10_17  and  C11_18
ROOT
HETATM    1  C7  UNL     1      -0.780 -36.651   5.417  1.00  0.00    -0.011 C
HETATM    2  C8  UNL     1       0.047 -36.214   4.515  1.00  0.00    -0.029 C
ENDROOT
BRANCH   2   3
HETATM    3  C9  UNL     1      -0.191 -36.093   3.067  1.00  0.00     0.030 C
BRANCH   3   4
HETATM    4  C10 UNL     1       0.154 -34.725   2.508  1.00  0.00     0.045 C
BRANCH   4   5
HETATM    5  C11 UNL     1       0.102 -33.606   3.468  1.00  0.00     0.098 A
HETATM    6  O4  UNL     1      -0.893 -33.379   4.370  1.00  0.00    -0.365 OA
HETATM    7  C12 UNL     1      -1.080 -32.652   3.229  1.00  0.00     0.192 A
HETATM    8  C13 UNL     1      -0.495 -31.307   2.987  1.00  0.00     0.207 C
HETATM    9  F1  UNL     1      -1.141 -30.768   1.867  1.00  0.00    -0.246 F
HETATM   10  C14 UNL     1       0.932 -31.644   2.530  1.00  0.00     0.033 C
HETATM   11  C15 UNL     1       1.814 -30.459   2.490  1.00  0.00     0.008 C
HETATM   12  C19 UNL     1       1.304 -32.653   3.586  1.00  0.00    -0.004 C
HETATM   13  C16 UNL     1       2.495 -30.112   3.767  1.00  0.00     0.001 C
HETATM   14  C17 UNL     1       1.899 -30.658   5.001  1.00  0.00     0.001 C
HETATM   15  C18 UNL     1       1.302 -32.010   4.920  1.00  0.00     0.013 C
HETATM   16  C20 UNL     1       2.581 -33.370   3.346  1.00  0.00     0.019 C
ENDBRANCH   4   5
ENDBRANCH   3   4
ENDBRANCH   2   3
BRANCH   1  17
HETATM   17  C6  UNL     1      -2.145 -37.121   5.164  1.00  0.00     0.161 C
BRANCH  17  18
HETATM   18  N2  UNL     1      -3.122 -36.089   5.539  1.00  0.00    -0.294 N
HETATM   19  C3  UNL     1      -3.584 -35.880   6.783  1.00  0.00     0.069 A
HETATM   20  C4  UNL     1      -4.486 -34.813   6.700  1.00  0.00     0.195 A
HETATM   21  N1  UNL     1      -4.538 -34.419   5.420  1.00  0.00    -0.147 N
HETATM   22  C5  UNL     1      -3.703 -35.205   4.720  1.00  0.00     0.355 A
HETATM   23  O3  UNL     1      -3.514 -35.100   3.486  1.00  0.00    -0.244 OA
BRANCH  19  24
HETATM   24  C2  UNL     1      -3.248 -36.599   8.040  1.00  0.00     0.057 C
HETATM   25  C1  UNL     1      -2.243 -35.794   8.842  1.00  0.00     0.011 C
ENDBRANCH  19  24
BRANCH  20  26
HETATM   26  O1  UNL     1      -5.187 -34.280   7.769  1.00  0.00    -0.343 OA
ATOM     27  H1  UNL     1      -4.846 -33.635   8.376  1.00  0.00     0.219 HD
ENDBRANCH  20  26
BRANCH  21  28
HETATM   28  O2  UNL     1      -5.315 -33.385   4.902  1.00  0.00    -0.277 OA
ATOM     29  H2  UNL     1      -5.055 -32.763   4.233  1.00  0.00     0.245 HD
ENDBRANCH  21  28
ENDBRANCH  17  18
ENDBRANCH   1  17
TORSDOF 8
ENDMDL