MODEL 5
REMARK VINA RESULT: -7.630975347      3.882      6.757
REMARK  8 active torsions:
REMARK  status: ('A' for Active; 'I' for Inactive)
REMARK    1  A    between atoms: C2_2  and  C4_4
REMARK    2  A    between atoms: C4_4  and  N2_7
REMARK    3  A    between atoms: N2_7  and  N3_9
REMARK    4  A    between atoms: C6_11  and  C8_14
REMARK    5  A    between atoms: C8_14  and  N5_15
REMARK    6  A    between atoms: C8_14  and  C14_24
REMARK       I    between atoms: N5_15  and  C9_17
REMARK    7  A    between atoms: C9_17  and  O2_19
REMARK    8  A    between atoms: O2_19  and  C10_20
ROOT
HETATM    1  C4  UNL     1       3.674 -37.139   4.091  1.00  0.00     0.233 C
HETATM    2  C5  UNL     1       4.382 -36.834   2.848  1.00  0.00     0.090 C
HETATM    3  N1  UNL     1       4.929 -36.603   1.853  1.00  0.00    -0.195 NA
ENDROOT
BRANCH   1   4
HETATM    4  C2  UNL     1       4.376 -38.241   4.795  1.00  0.00    -0.056 C
HETATM    5  C1  UNL     1       5.075 -39.152   4.142  1.00  0.00     0.017 C
HETATM    6  C3  UNL     1       4.284 -38.312   6.267  1.00  0.00     0.046 C
ENDBRANCH   1   4
BRANCH   1   7
HETATM    7  N2  UNL     1       2.315 -37.571   3.840  1.00  0.00    -0.313 N
ATOM      8  H2  UNL     1       2.109 -38.546   3.624  1.00  0.00     0.182 HD
BRANCH   7   9
HETATM    9  N3  UNL     1       1.292 -36.623   3.900  1.00  0.00    -0.295 N
HETATM   10  C6  UNL     1       0.628 -36.275   2.869  1.00  0.00     0.133 C
HETATM   11  C7  UNL     1       0.927 -36.862   1.610  1.00  0.00     0.117 C
HETATM   12  N4  UNL     1       1.192 -37.356   0.578  1.00  0.00    -0.190 NA
ATOM     13  H3  UNL     1       1.068 -36.195   4.798  1.00  0.00     0.187 HD
BRANCH  10  14
HETATM   14  C8  UNL     1      -0.439 -35.273   2.987  1.00  0.00     0.182 C
BRANCH  14  15
HETATM   15  N5  UNL     1      -1.123 -35.510   4.247  1.00  0.00    -0.322 N
HETATM   16  C9  UNL     1      -2.529 -35.459   4.383  1.00  0.00     0.362 C
HETATM   17  O1  UNL     1      -3.278 -35.201   3.405  1.00  0.00    -0.238 OA
ATOM     18  H5  UNL     1      -0.562 -35.724   5.072  1.00  0.00     0.165 HD
BRANCH  16  19
HETATM   19  O2  UNL     1      -3.120 -35.692   5.597  1.00  0.00    -0.294 OA
BRANCH  19  20
HETATM   20  C10 UNL     1      -3.344 -36.935   6.188  1.00  0.00     0.061 C
HETATM   21  C11 UNL     1      -4.069 -37.907   5.249  1.00  0.00     0.046 C
HETATM   22  C12 UNL     1      -2.086 -37.577   6.737  1.00  0.00     0.046 C
HETATM   23  C13 UNL     1      -4.287 -36.715   7.366  1.00  0.00     0.046 C
ENDBRANCH  19  20
ENDBRANCH  16  19
ENDBRANCH  14  15
BRANCH  14  24
HETATM   24  C14 UNL     1       0.082 -33.916   2.864  1.00  0.00    -0.029 A
HETATM   25  C15 UNL     1       1.432 -33.689   2.965  1.00  0.00     0.011 A
HETATM   26  C16 UNL     1       1.991 -32.432   2.857  1.00  0.00     0.024 A
HETATM   27  C17 UNL     1       1.160 -31.355   2.635  1.00  0.00     0.034 A
HETATM   28 CL1  UNL     1       1.884 -29.776   2.501  1.00  0.00    -0.084 Cl
HETATM   29  C18 UNL     1      -0.197 -31.578   2.532  1.00  0.00     0.024 A
HETATM   30  C19 UNL     1      -0.747 -32.841   2.643  1.00  0.00     0.011 A
ENDBRANCH  14  24
ENDBRANCH  10  14
ENDBRANCH   7   9
ENDBRANCH   1   7
TORSDOF 8
ENDMDL