MODEL 2
REMARK VINA RESULT: -9.117065967      3.192      5.052
REMARK  6 active torsions:
REMARK  status: ('A' for Active; 'I' for Inactive)
REMARK    1  A    between atoms: N4_13  and  C7_14
REMARK    2  A    between atoms: C7_14  and  C8_15
REMARK    3  A    between atoms: C8_15  and  S1_16
REMARK    4  A    between atoms: C8_15  and  C14_22
REMARK    5  A    between atoms: S1_16  and  C9_17
REMARK       I    between atoms: C14_22  and  N5_24
REMARK    6  A    between atoms: N5_24  and  C15_26
ROOT
HETATM    1  C8  UNL     1       0.206 -35.452   3.939  1.00  0.00     0.180 C
ENDROOT
BRANCH   1   2
HETATM    2  C7  UNL     1      -0.947 -36.232   4.338  1.00  0.00     0.116 C
BRANCH   2   3
HETATM    3  N4  UNL     1      -1.932 -35.723   5.229  1.00  0.00    -0.253 N
HETATM    4  C3  UNL     1      -3.081 -35.126   4.878  1.00  0.00     0.087 A
HETATM    5  C2  UNL     1      -3.739 -34.856   3.680  1.00  0.00     0.063 A
HETATM    6  C4  UNL     1      -3.737 -34.734   6.029  1.00  0.00     0.081 A
HETATM    7  C1  UNL     1      -4.953 -34.244   3.586  1.00  0.00     0.087 A
HETATM    8  N1  UNL     1      -5.625 -33.969   2.368  1.00  0.00    -0.099 NA
HETATM    9  C6  UNL     1      -5.586 -33.860   4.771  1.00  0.00     0.142 A
HETATM   10  C5  UNL     1      -4.968 -34.110   5.970  1.00  0.00     0.077 A
HETATM   11  F1  UNL     1      -6.787 -33.250   4.736  1.00  0.00    -0.204 F
HETATM   12  N2  UNL     1      -2.961 -35.105   7.066  1.00  0.00    -0.284 N
HETATM   13  N3  UNL     1      -1.919 -35.679   6.559  1.00  0.00    -0.236 N
ATOM     14  H2  UNL     1      -3.157 -34.962   8.056  1.00  0.00     0.188 HD
ATOM     15  H3  UNL     1      -1.161 -36.061   7.124  1.00  0.00     0.209 HD
ENDBRANCH   2   3
ENDBRANCH   1   2
BRANCH   1  16
HETATM   16  S1  UNL     1       1.192 -36.370   2.697  1.00  0.00    -0.144 SA
BRANCH  16  17
HETATM   17  C9  UNL     1       2.638 -35.494   2.137  1.00  0.00     0.048 C
HETATM   18  C10 UNL     1       3.571 -35.084   3.231  1.00  0.00     0.015 C
HETATM   19  C11 UNL     1       4.947 -35.332   2.663  1.00  0.00     0.001 C
HETATM   20  C12 UNL     1       4.779 -36.595   1.873  1.00  0.00     0.001 C
HETATM   21  C13 UNL     1       3.440 -36.408   1.213  1.00  0.00     0.015 C
ENDBRANCH  16  17
ENDBRANCH   1  16
BRANCH   1  22
HETATM   22  C14 UNL     1       0.129 -34.080   3.472  1.00  0.00     0.236 C
HETATM   23  O1  UNL     1      -0.557 -33.762   2.480  1.00  0.00    -0.272 OA
HETATM   24  N5  UNL     1       0.871 -33.076   4.191  1.00  0.00    -0.355 N
ATOM     25  H5  UNL     1       1.420 -33.370   4.998  1.00  0.00     0.162 HD
BRANCH  24  26
HETATM   26  C15 UNL     1       0.882 -31.703   3.840  1.00  0.00     0.084 C
HETATM   27  C16 UNL     1       1.413 -30.784   4.934  1.00  0.00     0.025 C
HETATM   28  C17 UNL     1       1.658 -29.501   4.197  1.00  0.00     0.002 C
HETATM   29  C18 UNL     1       1.745 -29.837   2.722  1.00  0.00     0.002 C
HETATM   30  C19 UNL     1       1.791 -31.353   2.696  1.00  0.00     0.025 C
ENDBRANCH  24  26
ENDBRANCH   1  22
TORSDOF 6
ENDMDL