MODEL 2
REMARK VINA RESULT: -7.456789747      1.033      1.827
REMARK  8 active torsions:
REMARK  status: ('A' for Active; 'I' for Inactive)
REMARK    1  A    between atoms: C2_2  and  C15_26
REMARK    2  A    between atoms: C3_3  and  N1_4
REMARK    3  A    between atoms: C3_3  and  C12_15
REMARK    4  A    between atoms: N1_4  and  C4_6
REMARK    5  A    between atoms: C4_6  and  C5_7
REMARK    6  A    between atoms: C5_7  and  C6_8
REMARK    7  A    between atoms: C6_8  and  N2_9
REMARK    8  A    between atoms: N5_22  and  N6_23
ROOT
HETATM    1  C1  UNL     1      -2.488 -32.502   1.251  1.00  0.00     0.046 C
HETATM    2  C2  UNL     1      -3.161 -33.286   2.345  1.00  0.00    -0.048 C
HETATM    3  C3  UNL     1      -2.403 -33.806   3.277  1.00  0.00     0.078 C
ENDROOT
BRANCH   3   4
HETATM    4  N1  UNL     1      -0.989 -33.706   3.359  1.00  0.00    -0.383 N
ATOM      5  H1  UNL     1      -0.581 -32.946   3.904  1.00  0.00     0.160 HD
BRANCH   4   6
HETATM    6  C4  UNL     1      -0.086 -34.658   2.686  1.00  0.00     0.148 C
BRANCH   6   7
HETATM    7  C5  UNL     1       1.334 -34.395   2.939  1.00  0.00     0.004 C
BRANCH   7   8
HETATM    8  C6  UNL     1       1.834 -33.533   3.997  1.00  0.00     0.057 C
BRANCH   8   9
HETATM    9  N2  UNL     1       1.530 -32.154   4.090  1.00  0.00    -0.293 NA
HETATM   10  C7  UNL     1       2.132 -31.515   5.185  1.00  0.00     0.095 C
HETATM   11  C8  UNL     1       2.153 -30.012   5.111  1.00  0.00     0.015 C
HETATM   12  C9  UNL     1       1.382 -29.414   3.981  1.00  0.00     0.002 C
HETATM   13  C10 UNL     1       1.555 -30.148   2.679  1.00  0.00     0.015 C
HETATM   14  C11 UNL     1       2.026 -31.545   2.846  1.00  0.00     0.095 C
ENDBRANCH   8   9
ENDBRANCH   7   8
ENDBRANCH   6   7
ENDBRANCH   4   6
ENDBRANCH   3   4
BRANCH   3  15
HETATM   15  C12 UNL     1      -2.999 -34.520   4.429  1.00  0.00     0.171 A
HETATM   16  N3  UNL     1      -3.578 -33.930   5.494  1.00  0.00    -0.278 N
HETATM   17  N4  UNL     1      -4.050 -34.877   6.264  1.00  0.00    -0.269 N
ATOM     18  H3  UNL     1      -3.637 -32.927   5.669  1.00  0.00     0.189 HD
HETATM   19  C13 UNL     1      -4.762 -34.677   7.524  1.00  0.00     0.180 C
HETATM   20  C14 UNL     1      -3.767 -36.059   5.689  1.00  0.00     0.215 A
HETATM   21  S1  UNL     1      -4.145 -37.510   6.284  1.00  0.00    -0.037 SA
HETATM   22  N5  UNL     1      -3.097 -35.846   4.514  1.00  0.00    -0.215 N
BRANCH  22  23
HETATM   23  N6  UNL     1      -2.686 -36.860   3.658  1.00  0.00    -0.334 N
ATOM     24  H62 UNL     1      -3.176 -37.117   2.801  1.00  0.00     0.177 HD
ATOM     25  H61 UNL     1      -1.878 -37.481   3.680  1.00  0.00     0.177 HD
ENDBRANCH  22  23
ENDBRANCH   3  15
BRANCH   2  26
HETATM   26  C15 UNL     1      -4.619 -33.483   2.274  1.00  0.00     0.036 A
HETATM   27  C16 UNL     1      -5.592 -32.428   1.961  1.00  0.00     0.031 A
HETATM   28  C17 UNL     1      -5.335 -33.560   0.960  1.00  0.00     0.091 A
HETATM   29 CL1  UNL     1      -4.528 -33.183  -0.553  1.00  0.00    -0.124 Cl
ENDBRANCH   2  26
TORSDOF 8
ENDMDL