MODEL 2
REMARK VINA RESULT: -7.325313685      2.711      7.423
REMARK  8 active torsions:
REMARK  status: ('A' for Active; 'I' for Inactive)
REMARK    1  A    between atoms: C2_2  and  O1_3
REMARK    2  A    between atoms: O1_3  and  C3_4
REMARK    3  A    between atoms: C3_4  and  C4_6
REMARK    4  A    between atoms: C5_8  and  C6_9
REMARK       I    between atoms: C6_9  and  N1_11
REMARK    5  A    between atoms: N1_11  and  N2_13
REMARK    6  A    between atoms: C12_22  and  C13_23
REMARK    7  A    between atoms: C13_23  and  O5_25
REMARK    8  A    between atoms: O5_25  and  C14_26
ROOT
HETATM    1  C4  UNL     1       3.172 -36.282   2.916  1.00  0.00     0.088 A
HETATM    2  S1  UNL     1       1.674 -37.063   3.077  1.00  0.00    -0.077 SA
HETATM    3  C5  UNL     1       0.665 -35.666   3.381  1.00  0.00     0.092 A
HETATM    4  C12 UNL     1       1.566 -34.654   3.340  1.00  0.00     0.069 A
HETATM    5  C16 UNL     1       2.875 -34.966   3.099  1.00  0.00    -0.021 A
HETATM    6  C17 UNL     1       3.988 -33.909   3.028  1.00  0.00     0.051 C
ENDROOT
BRANCH   3   7
HETATM    7  C6  UNL     1      -0.773 -35.749   3.603  1.00  0.00     0.278 C
HETATM    8  O3  UNL     1      -1.376 -36.792   3.127  1.00  0.00    -0.265 OA
HETATM    9  N1  UNL     1      -1.565 -34.820   4.273  1.00  0.00    -0.264 N
ATOM     10  H1  UNL     1      -1.147 -33.978   4.669  1.00  0.00     0.190 HD
BRANCH   9  11
HETATM   11  N2  UNL     1      -2.982 -35.060   4.403  1.00  0.00    -0.286 N
HETATM   12  C7  UNL     1      -3.754 -34.480   3.557  1.00  0.00     0.091 C
HETATM   13  C8  UNL     1      -3.169 -33.612   2.512  1.00  0.00     0.077 C
HETATM   14  N3  UNL     1      -5.153 -34.705   3.670  1.00  0.00    -0.379 N
HETATM   15  C9  UNL     1      -4.167 -32.783   1.779  1.00  0.00     0.009 C
HETATM   16  C10 UNL     1      -5.547 -33.361   1.737  1.00  0.00     0.020 C
HETATM   17  C11 UNL     1      -6.064 -33.771   3.077  1.00  0.00     0.121 C
ATOM     18  H3  UNL     1      -5.505 -35.523   4.168  1.00  0.00     0.160 HD
ATOM     19  H2  UNL     1      -3.355 -35.664   5.136  1.00  0.00     0.188 HD
ENDBRANCH   9  11
ENDBRANCH   3   7
BRANCH   4  20
HETATM   20  C13 UNL     1       1.152 -33.215   3.561  1.00  0.00     0.295 C
HETATM   21  O4  UNL     1       0.872 -32.802   4.707  1.00  0.00    -0.259 OA
BRANCH  20  22
HETATM   22  O5  UNL     1       1.083 -32.334   2.496  1.00  0.00    -0.318 OA
BRANCH  22  23
HETATM   23  C14 UNL     1       0.716 -30.996   2.590  1.00  0.00     0.174 C
HETATM   24  C15 UNL     1       1.950 -30.150   2.777  1.00  0.00     0.034 C
ENDBRANCH  22  23
ENDBRANCH  20  22
ENDBRANCH   4  20
BRANCH   1  25
HETATM   25  C3  UNL     1       4.501 -36.892   2.642  1.00  0.00     0.300 C
HETATM   26  O2  UNL     1       4.923 -36.844   1.475  1.00  0.00    -0.259 OA
BRANCH  25  27
HETATM   27  O1  UNL     1       5.232 -37.484   3.629  1.00  0.00    -0.317 OA
BRANCH  27  28
HETATM   28  C2  UNL     1       4.701 -38.615   4.290  1.00  0.00     0.174 C
HETATM   29  C1  UNL     1       4.378 -38.350   5.736  1.00  0.00     0.034 C
ENDBRANCH  27  28
ENDBRANCH  25  27
ENDBRANCH   1  25
TORSDOF 8
ENDMDL