MODEL 2
REMARK VINA RESULT: -8.720193558      3.111      4.459
REMARK  7 active torsions:
REMARK  status: ('A' for Active; 'I' for Inactive)
REMARK    1  A    between atoms: C2_2  and  C3_3
REMARK    2  A    between atoms: C7_7  and  C8_8
REMARK    3  A    between atoms: C8_8  and  N1_10
REMARK    4  A    between atoms: C11_14  and  C12_15
REMARK    5  A    between atoms: C12_15  and  C13_20
REMARK    6  A    between atoms: N2_16  and  O1_18
REMARK    7  A    between atoms: C16_26  and  N4_27
ROOT
HETATM    1  C12 UNL     1       0.889 -37.215   2.546  1.00  0.00     0.081 C
HETATM    2  N2  UNL     1       0.780 -37.924   1.475  1.00  0.00    -0.269 N
ATOM      3  H2  UNL     1       0.234 -38.784   1.543  1.00  0.00     0.194 HD
ENDROOT
BRANCH   1   4
HETATM    4  C11 UNL     1       0.257 -37.611   3.835  1.00  0.00     0.055 C
HETATM    5  C3  UNL     1       0.899 -38.880   4.271  1.00  0.00     0.018 C
HETATM    6  C4  UNL     1       0.008 -40.095   3.976  1.00  0.00     0.009 C
HETATM    7  C5  UNL     1      -1.234 -40.052   4.806  1.00  0.00     0.001 C
HETATM    8  C6  UNL     1      -1.769 -38.643   4.778  1.00  0.00     0.007 C
HETATM    9  C7  UNL     1      -1.212 -37.771   3.706  1.00  0.00     0.026 C
BRANCH   5  10
HETATM   10  C2  UNL     1       1.382 -38.959   5.660  1.00  0.00    -0.031 C
HETATM   11  C1  UNL     1       1.534 -37.998   6.546  1.00  0.00     0.007 C
ENDBRANCH   5  10
BRANCH   9  12
HETATM   12  C8  UNL     1      -1.988 -36.474   3.757  1.00  0.00     0.186 C
HETATM   13  C9  UNL     1      -1.586 -35.595   4.910  1.00  0.00     0.040 C
BRANCH  12  14
HETATM   14  N1  UNL     1      -3.387 -36.822   3.951  1.00  0.00    -0.075 N
HETATM   15  C10 UNL     1      -4.206 -35.711   4.327  1.00  0.00     0.267 C
ATOM     16  H12 UNL     1      -3.761 -37.282   3.121  1.00  0.00     0.277 HD
ATOM     17  H11 UNL     1      -3.479 -37.583   4.624  1.00  0.00     0.277 HD
ENDBRANCH  12  14
ENDBRANCH   9  12
ENDBRANCH   1   4
BRANCH   1  18
HETATM   18  C13 UNL     1       1.667 -36.019   2.470  1.00  0.00     0.132 A
HETATM   19  N3  UNL     1       2.877 -36.008   1.925  1.00  0.00    -0.348 N
HETATM   20  C14 UNL     1       3.692 -34.965   1.797  1.00  0.00     0.136 A
ATOM     21  H3  UNL     1       3.220 -36.898   1.564  1.00  0.00     0.167 HD
HETATM   22  C15 UNL     1       3.230 -33.740   2.289  1.00  0.00     0.175 A
HETATM   23  F1  UNL     1       4.003 -32.628   2.196  1.00  0.00    -0.201 F
HETATM   24  C16 UNL     1       1.979 -33.716   2.861  1.00  0.00     0.145 A
HETATM   25  N5  UNL     1       1.220 -34.823   2.949  1.00  0.00    -0.325 N
ATOM     26  H5  UNL     1       0.298 -34.767   3.380  1.00  0.00     0.169 HD
BRANCH  24  27
HETATM   27  N4  UNL     1       1.456 -32.470   3.391  1.00  0.00    -0.365 N
HETATM   28  C17 UNL     1       1.469 -32.178   4.798  1.00  0.00     0.124 C
HETATM   29  C18 UNL     1       2.099 -30.858   5.059  1.00  0.00     0.020 C
HETATM   30  C19 UNL     1       1.536 -29.798   4.171  1.00  0.00     0.003 C
HETATM   31  C20 UNL     1       1.595 -30.181   2.706  1.00  0.00     0.020 C
HETATM   32  C21 UNL     1       0.888 -31.497   2.484  1.00  0.00     0.124 C
ENDBRANCH  24  27
ENDBRANCH   1  18
BRANCH   2  33
HETATM   33  O1  UNL     1       1.319 -37.637   0.271  1.00  0.00    -0.290 OA
ATOM     34  H1  UNL     1       1.320 -38.203  -0.492  1.00  0.00     0.244 HD
ENDBRANCH   2  33
TORSDOF 7
ENDMDL