MODEL 5
REMARK VINA RESULT: -8.199047817      2.542      3.310
REMARK  6 active torsions:
REMARK  status: ('A' for Active; 'I' for Inactive)
REMARK    1  A    between atoms: C4_5  and  C5_6
REMARK    2  A    between atoms: C6_9  and  C7_10
REMARK    3  A    between atoms: C7_10  and  N2_11
REMARK    4  A    between atoms: N2_11  and  C8_13
REMARK    5  A    between atoms: N3_19  and  C14_20
REMARK    6  A    between atoms: C14_20  and  C15_21
ROOT
HETATM    1  C7  UNL     1      -1.184 -37.886   3.497  1.00  0.00     0.193 C
ENDROOT
BRANCH   1   2
HETATM    2  C6  UNL     1      -0.273 -36.815   3.041  1.00  0.00     0.121 A
HETATM    3  N1  UNL     1      -0.439 -35.501   3.259  1.00  0.00    -0.321 N
HETATM    4  C5  UNL     1       0.582 -34.836   2.703  1.00  0.00     0.182 A
ATOM      5  H1  UNL     1      -1.217 -35.078   3.766  1.00  0.00     0.169 HD
HETATM    6  O1  UNL     1       1.349 -35.750   2.157  1.00  0.00    -0.217 OA
HETATM    7  N4  UNL     1       0.869 -36.927   2.340  1.00  0.00    -0.245 N
ATOM      8  H4  UNL     1       1.283 -37.798   2.010  1.00  0.00     0.196 HD
BRANCH   4   9
HETATM    9  C4  UNL     1       0.835 -33.405   2.680  1.00  0.00     0.017 A
HETATM   10  C3  UNL     1       2.143 -32.929   2.759  1.00  0.00     0.019 A
HETATM   11  C2  UNL     1       2.394 -31.560   2.736  1.00  0.00     0.043 A
HETATM   12  C1  UNL     1       1.330 -30.663   2.634  1.00  0.00     0.116 A
HETATM   13  F1  UNL     1       1.573 -29.318   2.610  1.00  0.00    -0.206 F
HETATM   14  C20 UNL     1       0.028 -31.107   2.553  1.00  0.00     0.043 A
HETATM   15  C19 UNL     1      -0.163 -32.468   2.581  1.00  0.00     0.019 A
ENDBRANCH   4   9
ENDBRANCH   1   2
BRANCH   1  16
HETATM   16  N2  UNL     1      -0.872 -38.229   4.850  1.00  0.00    -0.406 N
ATOM     17  H2  UNL     1      -0.037 -38.762   5.094  1.00  0.00     0.154 HD
BRANCH  16  18
HETATM   18  C8  UNL     1      -1.797 -37.782   5.834  1.00  0.00     0.030 C
HETATM   19  C9  UNL     1      -2.110 -38.774   6.907  1.00  0.00     0.035 C
HETATM   20  C10 UNL     1      -3.127 -38.126   7.857  1.00  0.00    -0.008 C
HETATM   21  C11 UNL     1      -2.554 -36.882   8.480  1.00  0.00     0.040 C
HETATM   22  C17 UNL     1      -4.410 -37.817   7.158  1.00  0.00     0.040 C
HETATM   23  C12 UNL     1      -2.352 -35.872   7.366  1.00  0.00     0.226 C
HETATM   24  C13 UNL     1      -1.316 -36.473   6.412  1.00  0.00     0.066 C
HETATM   25  N3  UNL     1      -3.543 -35.626   6.623  1.00  0.00     0.098 N
HETATM   26  C16 UNL     1      -4.095 -36.835   6.041  1.00  0.00     0.226 C
HETATM   27  C18 UNL     1      -3.115 -37.482   5.114  1.00  0.00     0.066 C
BRANCH  25  28
HETATM   28  C14 UNL     1      -4.542 -34.900   7.356  1.00  0.00     0.284 C
BRANCH  28  29
HETATM   29  C15 UNL     1      -5.003 -33.649   6.644  1.00  0.00     0.116 C
HETATM   30  S1  UNL     1      -4.192 -33.468   5.028  1.00  0.00    -0.096 SA
ENDBRANCH  28  29
ENDBRANCH  25  28
ENDBRANCH  16  18
ENDBRANCH   1  16
TORSDOF 6
ENDMDL