MODEL 5
REMARK VINA RESULT: -7.427293919      3.646      6.496
REMARK  9 active torsions:
REMARK  status: ('A' for Active; 'I' for Inactive)
REMARK    1  A    between atoms: C2_2  and  O1_3
REMARK    2  A    between atoms: O1_3  and  C3_4
REMARK    3  A    between atoms: C3_4  and  C4_6
REMARK    4  A    between atoms: C9_11  and  O3_12
REMARK    5  A    between atoms: C9_11  and  C10_14
REMARK    6  A    between atoms: C11_16  and  C12_17
REMARK    7  A    between atoms: C12_17  and  O5_19
REMARK    8  A    between atoms: O5_19  and  C13_20
REMARK    9  A    between atoms: C13_20  and  C14_21
ROOT
HETATM    1  C4  UNL     1      -2.711 -33.571   3.301  1.00  0.00     0.065 C
HETATM    2  C5  UNL     1      -3.429 -34.128   4.283  1.00  0.00    -0.059 C
HETATM    3  C6  UNL     1      -4.776 -33.540   4.568  1.00  0.00     0.045 C
HETATM    4  C7  UNL     1      -2.959 -35.269   5.064  1.00  0.00     0.049 C
HETATM    5  C8  UNL     1      -4.030 -36.347   5.021  1.00  0.00     0.018 C
HETATM    6  C9  UNL     1      -1.673 -35.899   4.591  1.00  0.00     0.109 C
HETATM    7  C11 UNL     1      -0.707 -34.806   4.148  1.00  0.00     0.173 C
HETATM    8  C20 UNL     1      -1.397 -34.140   3.009  1.00  0.00     0.036 C
HETATM    9  N1  UNL     1      -0.947 -34.038   1.816  1.00  0.00    -0.401 N
ATOM     10  H11 UNL     1      -0.029 -34.435   1.612  1.00  0.00     0.156 HD
ATOM     11  H12 UNL     1      -1.419 -33.582   1.036  1.00  0.00     0.156 HD
ENDROOT
BRANCH   7  12
HETATM   12  C12 UNL     1       0.617 -35.328   3.848  1.00  0.00     0.272 C
HETATM   13  O4  UNL     1       0.696 -36.255   2.967  1.00  0.00    -0.264 OA
BRANCH  12  14
HETATM   14  O5  UNL     1       1.795 -34.918   4.424  1.00  0.00    -0.317 OA
BRANCH  14  15
HETATM   15  C13 UNL     1       2.574 -33.916   3.910  1.00  0.00     0.212 C
BRANCH  15  16
HETATM   16  C14 UNL     1       2.019 -32.557   3.791  1.00  0.00    -0.060 C
HETATM   17  C15 UNL     1       1.663 -31.991   2.650  1.00  0.00    -0.022 C
HETATM   18  C16 UNL     1       1.104 -30.581   2.685  1.00  0.00     0.027 C
HETATM   19  C17 UNL     1       2.088 -29.805   3.538  1.00  0.00     0.004 C
HETATM   20  C18 UNL     1       2.037 -30.324   4.937  1.00  0.00     0.005 C
HETATM   21  C19 UNL     1       1.862 -31.796   5.078  1.00  0.00     0.036 C
ENDBRANCH  15  16
ENDBRANCH  14  15
ENDBRANCH  12  14
ENDBRANCH   7  12
BRANCH   6  22
HETATM   22  O3  UNL     1      -1.883 -36.796   3.548  1.00  0.00    -0.385 OA
ATOM     23  H3  UNL     1      -1.124 -36.867   2.980  1.00  0.00     0.210 HD
ENDBRANCH   6  22
BRANCH   6  24
HETATM   24  C10 UNL     1      -1.098 -36.631   5.781  1.00  0.00     0.262 C
HETATM   25  F1  UNL     1      -1.334 -35.980   6.947  1.00  0.00    -0.252 F
ENDBRANCH   6  24
BRANCH   1  26
HETATM   26  C3  UNL     1      -3.203 -32.435   2.529  1.00  0.00     0.295 C
HETATM   27  O2  UNL     1      -2.734 -31.296   2.509  1.00  0.00    -0.259 OA
BRANCH  26  28
HETATM   28  O1  UNL     1      -4.333 -32.643   1.715  1.00  0.00    -0.318 OA
BRANCH  28  29
HETATM   29  C2  UNL     1      -4.205 -33.167   0.408  1.00  0.00     0.174 C
HETATM   30  C1  UNL     1      -5.388 -32.821  -0.460  1.00  0.00     0.034 C
ENDBRANCH  28  29
ENDBRANCH  26  28
ENDBRANCH   1  26
TORSDOF 9
ENDMDL