MODEL 2
REMARK VINA RESULT: -8.067710233      1.081      2.143
REMARK  8 active torsions:
REMARK  status: ('A' for Active; 'I' for Inactive)
REMARK    1  A    between atoms: C2_2  and  C3_3
REMARK    2  A    between atoms: C8_9  and  N1_10
REMARK    3  A    between atoms: N1_10  and  C9_12
REMARK    4  A    between atoms: C9_12  and  C10_13
REMARK    5  A    between atoms: C10_13  and  S1_14
REMARK    6  A    between atoms: S1_14  and  C11_15
REMARK    7  A    between atoms: C12_20  and  C13_21
REMARK    8  A    between atoms: N4_25  and  O2_27
ROOT
HETATM    1  C9  UNL     1      -4.974 -33.806   3.001  1.00  0.00     0.111 C
HETATM    2  N4  UNL     1      -5.934 -33.440   2.268  1.00  0.00    -0.256 N
ATOM      3  H4  UNL     1      -6.740 -34.063   2.240  1.00  0.00     0.195 HD
ENDROOT
BRANCH   1   4
HETATM    4  N1  UNL     1      -5.165 -35.061   3.695  1.00  0.00    -0.343 N
ATOM      5  H1  UNL     1      -5.782 -35.771   3.300  1.00  0.00     0.167 HD
BRANCH   4   6
HETATM    6  C8  UNL     1      -4.497 -35.308   4.923  1.00  0.00     0.043 A
HETATM    7  C3  UNL     1      -3.494 -36.230   5.036  1.00  0.00    -0.009 A
HETATM    8  C4  UNL     1      -2.830 -36.382   6.262  1.00  0.00     0.032 A
HETATM    9  C5  UNL     1      -3.178 -35.618   7.339  1.00  0.00     0.011 A
HETATM   10 BR1  UNL     1      -2.306 -35.780   9.039  1.00  0.00    -0.051 Br
HETATM   11  C6  UNL     1      -4.195 -34.679   7.240  1.00  0.00     0.021 A
HETATM   12  C7  UNL     1      -4.838 -34.538   6.039  1.00  0.00     0.031 A
BRANCH   7  13
HETATM   13  C2  UNL     1      -3.029 -37.101   3.976  1.00  0.00     0.003 C
HETATM   14  C1  UNL     1      -3.165 -38.388   3.887  1.00  0.00     0.012 C
ENDBRANCH   7  13
ENDBRANCH   4   6
ENDBRANCH   1   4
BRANCH   1  15
HETATM   15  C10 UNL     1      -3.737 -33.031   3.159  1.00  0.00     0.161 C
BRANCH  15  16
HETATM   16  S1  UNL     1      -2.590 -33.329   1.830  1.00  0.00    -0.077 SA
BRANCH  16  17
HETATM   17  C11 UNL     1      -0.945 -32.744   2.197  1.00  0.00     0.203 A
HETATM   18  N2  UNL     1       0.177 -33.461   2.398  1.00  0.00    -0.272 N
HETATM   19  N3  UNL     1       1.154 -32.622   2.637  1.00  0.00    -0.281 N
ATOM     20  H2  UNL     1       0.252 -34.478   2.369  1.00  0.00     0.189 HD
HETATM   21  C12 UNL     1       0.662 -31.366   2.589  1.00  0.00     0.145 A
ATOM     22  H3  UNL     1       2.124 -32.876   2.827  1.00  0.00     0.189 HD
HETATM   23  O1  UNL     1      -0.610 -31.495   2.321  1.00  0.00    -0.272 OA
BRANCH  21  24
HETATM   24  C13 UNL     1       1.439 -30.107   2.805  1.00  0.00     0.062 A
HETATM   25  C14 UNL     1       2.432 -30.038   3.904  1.00  0.00     0.013 A
HETATM   26  C15 UNL     1       1.142 -29.341   4.109  1.00  0.00     0.013 A
ENDBRANCH  21  24
ENDBRANCH  16  17
ENDBRANCH  15  16
ENDBRANCH   1  15
BRANCH   2  27
HETATM   27  O2  UNL     1      -6.021 -32.320   1.516  1.00  0.00    -0.288 OA
ATOM     28  H2  UNL     1      -5.341 -31.920   0.986  1.00  0.00     0.244 HD
ENDBRANCH   2  27
TORSDOF 8
ENDMDL