MODEL 2
REMARK VINA RESULT: -7.597430843      3.221      6.588
REMARK  8 active torsions:
REMARK  status: ('A' for Active; 'I' for Inactive)
REMARK    1  A    between atoms: C2_2  and  C3_3
REMARK    2  A    between atoms: C7_12  and  C8_13
REMARK    3  A    between atoms: C8_13  and  O3_15
REMARK    4  A    between atoms: O3_15  and  C9_16
REMARK    5  A    between atoms: C9_16  and  C11_18
REMARK    6  A    between atoms: C11_18  and  C13_22
REMARK    7  A    between atoms: C13_22  and  O4_23
REMARK    8  A    between atoms: C13_22  and  C14_25
ROOT
HETATM    1  C11 UNL     1      -4.133 -34.468   4.541  1.00  0.00     0.246 C
HETATM    2  F1  UNL     1      -5.253 -35.108   3.966  1.00  0.00    -0.221 F
HETATM    3  C12 UNL     1      -4.485 -34.332   5.955  1.00  0.00     0.109 C
HETATM    4  N3  UNL     1      -4.777 -34.250   7.096  1.00  0.00    -0.193 NA
ENDROOT
BRANCH   1   5
HETATM    5  C9  UNL     1      -2.998 -35.439   4.335  1.00  0.00     0.185 C
HETATM    6  C10 UNL     1      -3.421 -36.858   4.266  1.00  0.00     0.045 C
BRANCH   5   7
HETATM    7  O3  UNL     1      -1.970 -35.198   5.287  1.00  0.00    -0.311 OA
BRANCH   7   8
HETATM    8  C8  UNL     1      -0.625 -35.239   5.006  1.00  0.00     0.271 C
HETATM    9  O2  UNL     1       0.086 -35.690   5.946  1.00  0.00    -0.264 OA
BRANCH   8  10
HETATM   10  C7  UNL     1      -0.073 -34.787   3.705  1.00  0.00     0.153 C
HETATM   11  C3  UNL     1       0.598 -33.453   3.790  1.00  0.00     0.104 C
HETATM   12  N1  UNL     1       2.010 -33.557   4.088  1.00  0.00    -0.337 N
HETATM   13  C4  UNL     1       2.742 -34.637   3.499  1.00  0.00     0.320 C
ATOM     14  H1  UNL     1       2.469 -32.881   4.699  1.00  0.00     0.164 HD
HETATM   15  O1  UNL     1       4.003 -34.551   3.418  1.00  0.00    -0.247 OA
HETATM   16  N2  UNL     1       2.001 -35.745   3.038  1.00  0.00    -0.316 N
HETATM   17  C5  UNL     1       0.725 -35.858   3.106  1.00  0.00     0.003 C
ATOM     18  H2  UNL     1       2.520 -36.515   2.617  1.00  0.00     0.170 HD
HETATM   19  C6  UNL     1       0.046 -37.106   2.572  1.00  0.00     0.064 C
BRANCH  11  20
HETATM   20  C2  UNL     1       0.500 -32.700   2.456  1.00  0.00     0.022 C
HETATM   21  C1  UNL     1       0.133 -31.266   2.669  1.00  0.00     0.007 C
ENDBRANCH  11  20
ENDBRANCH   8  10
ENDBRANCH   7   8
ENDBRANCH   5   7
ENDBRANCH   1   5
BRANCH   1  22
HETATM   22  C13 UNL     1      -4.042 -33.161   3.899  1.00  0.00     0.208 C
BRANCH  22  23
HETATM   23  O4  UNL     1      -2.793 -32.602   4.174  1.00  0.00    -0.386 OA
ATOM     24  H4  UNL     1      -2.622 -31.901   3.555  1.00  0.00     0.210 HD
ENDBRANCH  22  23
BRANCH  22  25
HETATM   25  C14 UNL     1      -4.186 -33.148   2.393  1.00  0.00    -0.018 A
HETATM   26  C15 UNL     1      -3.122 -33.138   1.559  1.00  0.00     0.017 A
HETATM   27  C16 UNL     1      -3.375 -33.129   0.217  1.00  0.00     0.050 A
HETATM   28  S1  UNL     1      -5.077 -33.136   0.146  1.00  0.00    -0.113 SA
HETATM   29  C17 UNL     1      -5.423 -33.150   1.816  1.00  0.00     0.059 A
ENDBRANCH  22  25
ENDBRANCH   1  22
TORSDOF 8
ENDMDL