MODEL 2
REMARK VINA RESULT: -5.082211444      1.224      1.270
REMARK  2 active torsions:
REMARK  status: ('A' for Active; 'I' for Inactive)
REMARK    1  A    between atoms: N1_2  and  C2_4
REMARK    2  A    between atoms: C6_8  and  N2_9
ROOT
HETATM    1  C2  UNL     1       0.149  71.585  22.463  1.00  0.00     0.078 C
HETATM    2  C3  UNL     1       1.229  70.552  22.465  1.00  0.00     0.025 C
HETATM    3  C4  UNL     1       2.049  70.479  23.695  1.00  0.00     0.004 C
HETATM    4  C5  UNL     1       2.143  71.748  24.483  1.00  0.00     0.033 C
HETATM    5  C6  UNL     1       0.829  72.426  24.694  1.00  0.00     0.185 C
HETATM    6  C7  UNL     1      -0.293  71.885  23.869  1.00  0.00     0.057 C
ENDROOT
BRANCH   5   7
HETATM    7  N2  UNL     1       0.428  72.314  26.100  1.00  0.00    -0.075 N
ATOM      8  H23 UNL     1       1.195  72.534  26.735  1.00  0.00     0.274 HD
ATOM      9  H22 UNL     1      -0.212  73.059  26.376  1.00  0.00     0.274 HD
ATOM     10  H21 UNL     1       0.038  71.389  26.278  1.00  0.00     0.274 HD
ENDBRANCH   5   7
BRANCH   1  11
HETATM   11  N1  UNL     1      -0.917  71.119  21.628  1.00  0.00    -0.421 N
HETATM   12  C1  UNL     1      -0.542  70.770  20.297  1.00  0.00     0.140 C
ATOM     13  H1  UNL     1      -1.878  71.043  21.962  1.00  0.00     0.153 HD
ENDBRANCH   1  11
TORSDOF 2
ENDMDL