MODEL 5
REMARK VINA RESULT: -4.468073445      1.351      2.238
REMARK  2 active torsions:
REMARK  status: ('A' for Active; 'I' for Inactive)
REMARK    1  A    between atoms: C2_2  and  N1_3
REMARK    2  A    between atoms: C6_7  and  N2_8
ROOT
HETATM    1  N1  UNL     1       0.329  71.491  22.652  1.00  0.00    -0.391 N
HETATM    2  C3  UNL     1      -0.196  72.674  23.281  1.00  0.00     0.122 C
HETATM    3  C4  UNL     1       0.025  72.687  24.778  1.00  0.00     0.022 C
HETATM    4  C5  UNL     1       1.336  72.007  25.078  1.00  0.00     0.034 C
HETATM    5  C6  UNL     1       1.108  70.531  25.057  1.00  0.00     0.185 C
HETATM    6  C7  UNL     1       1.817  69.953  23.877  1.00  0.00     0.052 C
HETATM    7  C8  UNL     1       1.592  70.811  22.678  1.00  0.00     0.124 C
ENDROOT
BRANCH   5   8
HETATM    8  N2  UNL     1       1.556  69.940  26.314  1.00  0.00    -0.075 N
ATOM      9  H23 UNL     1       0.785  69.804  26.968  1.00  0.00     0.274 HD
ATOM     10  H22 UNL     1       1.831  68.965  26.203  1.00  0.00     0.274 HD
ATOM     11  H21 UNL     1       2.304  70.505  26.717  1.00  0.00     0.274 HD
ENDBRANCH   5   8
BRANCH   1  12
HETATM   12  C2  UNL     1      -0.621  70.851  21.815  1.00  0.00     0.075 C
HETATM   13  C1  UNL     1      -0.546  70.882  20.518  1.00  0.00     0.029 C
ENDBRANCH   1  12
TORSDOF 2
ENDMDL