MODEL 1
REMARK VINA RESULT: -5.345567605      0.000      0.000
REMARK  3 active torsions:
REMARK  status: ('A' for Active; 'I' for Inactive)
REMARK    1  A    between atoms: O1_2  and  C2_3
REMARK    2  A    between atoms: C2_3  and  C3_4
REMARK    3  A    between atoms: C6_7  and  N1_8
ROOT
HETATM    1  C3  UNL     1      -0.791  71.883  22.768  1.00  0.00     0.009 C
HETATM    2  C4  UNL     1       0.213  72.775  23.392  1.00  0.00     0.009 C
HETATM    3  C5  UNL     1       0.927  72.270  24.579  1.00  0.00     0.033 C
HETATM    4  C6  UNL     1       0.839  70.802  24.824  1.00  0.00     0.183 C
HETATM    5  C7  UNL     1      -0.606  70.442  24.838  1.00  0.00     0.033 C
HETATM    6  C8  UNL     1      -1.395  70.847  23.657  1.00  0.00     0.009 C
ENDROOT
BRANCH   4   7
HETATM    7  N1  UNL     1       1.349  70.568  26.186  1.00  0.00    -0.075 N
ATOM      8  H13 UNL     1       2.120  71.186  26.439  1.00  0.00     0.274 HD
ATOM      9  H12 UNL     1       0.701  70.865  26.916  1.00  0.00     0.274 HD
ATOM     10  H11 UNL     1       1.592  69.579  26.243  1.00  0.00     0.274 HD
ENDBRANCH   4   7
BRANCH   1  11
HETATM   11  C2  UNL     1      -0.213  71.205  21.545  1.00  0.00     0.171 C
BRANCH  11  12
HETATM   12  O1  UNL     1      -1.107  70.916  20.556  1.00  0.00    -0.396 OA
HETATM   13  C1  UNL     1      -0.629  69.967  19.670  1.00  0.00     0.201 C
ENDBRANCH  11  12
ENDBRANCH   1  11
TORSDOF 3
ENDMDL