MODEL 2
REMARK VINA RESULT: -5.803233287      0.933      1.855
REMARK  1 active torsions:
REMARK  status: ('A' for Active; 'I' for Inactive)
REMARK    1  A    between atoms: C2_3  and  C3_4
ROOT
HETATM    1  N1  UNL     1      -1.175  70.863  19.716  1.00  0.00    -0.197 NA
HETATM    2  C1  UNL     1      -0.335  70.824  20.521  1.00  0.00     0.059 C
HETATM    3  C2  UNL     1       0.740  70.774  21.514  1.00  0.00     0.128 C
ENDROOT
BRANCH   3   4
HETATM    4  C3  UNL     1       0.163  70.734  22.939  1.00  0.00     0.000 C
HETATM    5  C4  UNL     1      -0.952  71.687  23.005  1.00  0.00     0.007 C
HETATM    6  C5  UNL     1      -1.224  72.351  24.292  1.00  0.00     0.028 C
HETATM    7  C6  UNL     1      -0.703  71.665  25.507  1.00  0.00     0.232 C
HETATM    8  N2  UNL     1       0.595  72.267  25.829  1.00  0.00    -0.075 N
HETATM    9  C7  UNL     1       1.361  72.220  24.573  1.00  0.00     0.232 C
ATOM     10  H22 UNL     1       0.529  73.199  26.238  1.00  0.00     0.277 HD
ATOM     11  H21 UNL     1       1.070  71.827  26.618  1.00  0.00     0.277 HD
HETATM   12  C8  UNL     1       1.254  70.886  23.927  1.00  0.00     0.033 C
ENDBRANCH   3   4
TORSDOF 1
ENDMDL