MODEL 5
REMARK VINA RESULT: -4.610862607      1.103      3.409
REMARK  1 active torsions:
REMARK  status: ('A' for Active; 'I' for Inactive)
REMARK    1  A    between atoms: C2_2  and  C3_3
ROOT
HETATM    1  C3  UNL     1       1.251  71.941  23.877  1.00  0.00     0.171 C
HETATM    2  N1  UNL     1       0.193  72.418  24.685  1.00  0.00    -0.402 N
ATOM      3  H1  UNL     1       0.336  72.677  25.661  1.00  0.00     0.155 HD
HETATM    4  C4  UNL     1      -1.089  72.518  24.059  1.00  0.00     0.117 C
HETATM    5  C5  UNL     1      -1.433  71.239  23.340  1.00  0.00     0.043 C
HETATM    6  C6  UNL     1      -0.330  70.837  22.408  1.00  0.00     0.076 C
HETATM    7  C7  UNL     1      -0.566  71.539  21.068  1.00  0.00     0.032 C
HETATM    8  N2  UNL     1       0.976  70.983  22.900  1.00  0.00    -0.398 N
ATOM      9  H2  UNL     1       1.724  70.389  22.544  1.00  0.00     0.155 HD
ENDROOT
BRANCH   1  10
HETATM   10  C2  UNL     1       2.284  71.332  24.836  1.00  0.00     0.041 C
HETATM   11  C1  UNL     1       1.626  70.399  25.817  1.00  0.00     0.009 C
ENDBRANCH   1  10
TORSDOF 1
ENDMDL