MODEL 1
REMARK VINA RESULT: -5.109014243      0.000      0.000
REMARK  2 active torsions:
REMARK  status: ('A' for Active; 'I' for Inactive)
REMARK    1  A    between atoms: C2_2  and  C3_3
REMARK    2  A    between atoms: C7_9  and  N2_10
ROOT
HETATM    1  C3  UNL     1       0.274  71.546  22.121  1.00  0.00     0.004 C
HETATM    2  C4  UNL     1      -0.323  72.000  23.425  1.00  0.00     0.118 C
HETATM    3  N1  UNL     1       0.748  72.340  24.291  1.00  0.00    -0.415 N
ATOM      4  H1  UNL     1       0.785  73.242  24.766  1.00  0.00     0.153 HD
HETATM    5  C5  UNL     1       1.760  71.371  24.467  1.00  0.00     0.102 C
HETATM    6  C6  UNL     1       1.557  70.741  25.855  1.00  0.00     0.034 C
HETATM    7  C7  UNL     1       1.942  70.345  23.438  1.00  0.00     0.205 C
HETATM    8  C8  UNL     1       0.893  70.221  22.395  1.00  0.00     0.041 C
ENDROOT
BRANCH   7   9
HETATM    9  N2  UNL     1       3.227  70.504  22.734  1.00  0.00    -0.073 N
ATOM     10  H23 UNL     1       3.246  71.362  22.183  1.00  0.00     0.274 HD
ATOM     11  H22 UNL     1       3.984  70.715  23.384  1.00  0.00     0.274 HD
ATOM     12  H21 UNL     1       3.445  69.689  22.161  1.00  0.00     0.274 HD
ENDBRANCH   7   9
BRANCH   1  13
HETATM   13  C2  UNL     1      -0.695  71.554  20.981  1.00  0.00     0.002 C
HETATM   14  C1  UNL     1      -0.515  70.423  20.025  1.00  0.00     0.005 C
ENDBRANCH   1  13
TORSDOF 2
ENDMDL