MODEL 4
REMARK VINA RESULT: -4.105308713      1.897      3.339
REMARK  1 active torsions:
REMARK  status: ('A' for Active; 'I' for Inactive)
REMARK    1  A    between atoms: S1_2  and  C2_3
ROOT
HETATM    1  C2  UNL     1       0.166  72.357  23.594  1.00  0.00     0.142 C
HETATM    2  C3  UNL     1       1.502  72.393  24.209  1.00  0.00     0.036 C
HETATM    3  C4  UNL     1       2.440  71.277  23.962  1.00  0.00     0.008 C
HETATM    4  C5  UNL     1       1.981  70.226  23.005  1.00  0.00     0.044 C
HETATM    5  C6  UNL     1       0.968  70.694  22.009  1.00  0.00     0.056 C
HETATM    6  N1  UNL     1      -0.079  71.482  22.522  1.00  0.00    -0.389 N
ATOM      7  H1  UNL     1      -1.014  71.419  22.117  1.00  0.00     0.159 HD
ENDROOT
BRANCH   1   8
HETATM    8  S1  UNL     1      -1.120  72.043  24.859  1.00  0.00    -0.148 SA
HETATM    9  C1  UNL     1      -1.474  70.292  25.048  1.00  0.00     0.092 C
ENDBRANCH   1   8
TORSDOF 1
ENDMDL