MODEL 5
REMARK VINA RESULT: -3.640919302      1.265      2.364
REMARK  1 active torsions:
REMARK  status: ('A' for Active; 'I' for Inactive)
REMARK    1  A    between atoms: C5_8  and  C6_9
ROOT
HETATM    1  C1  UNL     1      -1.111  72.000  20.504  1.00  0.00     0.041 C
HETATM    2  C2  UNL     1      -0.442  71.152  21.542  1.00  0.00     0.208 C
HETATM    3  C3  UNL     1       0.814  70.568  20.980  1.00  0.00     0.264 C
HETATM    4  N1  UNL     1       1.635  69.895  21.954  1.00  0.00    -0.071 N
ATOM      5  H11 UNL     1       2.550  69.664  21.565  1.00  0.00     0.277 HD
ATOM      6  H12 UNL     1       1.292  68.953  22.135  1.00  0.00     0.277 HD
HETATM    7  C4  UNL     1       1.767  70.655  23.193  1.00  0.00     0.265 C
HETATM    8  C5  UNL     1       0.387  70.918  23.689  1.00  0.00     0.215 C
HETATM    9  N2  UNL     1      -0.213  71.883  22.785  1.00  0.00    -0.064 N
ATOM     10  H21 UNL     1      -1.049  72.332  23.158  1.00  0.00     0.278 HD
ATOM     11  H22 UNL     1       0.336  72.734  22.668  1.00  0.00     0.278 HD
ENDROOT
BRANCH   8  12
HETATM   12  C6  UNL     1       0.313  71.340  25.122  1.00  0.00     0.010 C
HETATM   13  C7  UNL     1       1.430  70.803  25.962  1.00  0.00     0.011 C
HETATM   14  C8  UNL     1       0.326  72.844  25.200  1.00  0.00     0.011 C
ENDBRANCH   8  12
TORSDOF 1
ENDMDL