MODEL 2
REMARK VINA RESULT: -5.502938923      1.191      1.625
REMARK  0 active torsions:
REMARK  status: ('A' for Active; 'I' for Inactive)
ROOT
HETATM    1  C1  UNL     1      -1.570  71.281  22.563  1.00  0.00     0.032 C
HETATM    2  C2  UNL     1      -0.082  71.355  22.944  1.00  0.00     0.075 C
HETATM    3  C3  UNL     1       0.102  72.599  23.736  1.00  0.00     0.057 C
HETATM    4  C4  UNL     1       1.230  72.554  24.721  1.00  0.00     0.188 C
HETATM    5  C5  UNL     1       2.557  72.241  24.092  1.00  0.00     0.035 C
HETATM    6  C6  UNL     1       2.553  70.887  23.415  1.00  0.00     0.028 C
HETATM    7  C7  UNL     1       1.550  70.027  24.119  1.00  0.00     0.102 C
HETATM    8  C8  UNL     1       1.532  70.380  25.609  1.00  0.00     0.257 C
HETATM    9  N1  UNL     1       0.938  71.665  25.816  1.00  0.00    -0.069 N
ATOM     10  H11 UNL     1      -0.065  71.592  25.984  1.00  0.00     0.277 HD
ATOM     11  H12 UNL     1       1.218  72.068  26.711  1.00  0.00     0.277 HD
HETATM   12  N2  UNL     1       0.221  70.143  23.635  1.00  0.00    -0.412 N
ATOM     13  H2  UNL     1      -0.472  69.408  23.772  1.00  0.00     0.154 HD
ENDROOT
TORSDOF 0
ENDMDL