MODEL 5
REMARK VINA RESULT: -4.743307734      2.240      3.109
REMARK  4 active torsions:
REMARK  status: ('A' for Active; 'I' for Inactive)
REMARK    1  A    between atoms: N1_1  and  C1_4
REMARK    2  A    between atoms: C1_4  and  N2_5
REMARK    3  A    between atoms: N2_5  and  N3_7
REMARK    4  A    between atoms: N3_7  and  C2_9
ROOT
HETATM    1  N3  UNL     1       2.421  70.181  22.328  1.00  0.00    -0.324 N
ATOM      2  H3  UNL     1       2.228  69.728  21.435  1.00  0.00     0.181 HD
ENDROOT
BRANCH   1   3
HETATM    3  N2  UNL     1       3.718  70.630  22.586  1.00  0.00    -0.255 N
ATOM      4  H2  UNL     1       3.933  71.201  23.404  1.00  0.00     0.198 HD
BRANCH   3   5
HETATM    5  C1  UNL     1       4.629  70.288  21.741  1.00  0.00     0.060 C
BRANCH   5   6
HETATM    6  N1  UNL     1       5.546  69.738  21.042  1.00  0.00    -0.351 N
ATOM      7  H12 UNL     1       5.982  69.384  21.894  1.00  0.00     0.167 HD
ATOM      8  H11 UNL     1       6.179  69.378  20.328  1.00  0.00     0.167 HD
ENDBRANCH   5   6
ENDBRANCH   3   5
ENDBRANCH   1   3
BRANCH   1   9
HETATM    9  C2  UNL     1       1.331  70.335  23.289  1.00  0.00     0.100 C
HETATM   10  C3  UNL     1       0.197  70.984  22.600  1.00  0.00     0.026 C
HETATM   11  C4  UNL     1      -0.632  71.921  23.373  1.00  0.00     0.002 C
HETATM   12  C5  UNL     1      -0.015  72.534  24.577  1.00  0.00     0.000 C
HETATM   13  C6  UNL     1       1.493  72.497  24.409  1.00  0.00     0.002 C
HETATM   14  C7  UNL     1       1.869  71.029  24.484  1.00  0.00     0.026 C
ENDBRANCH   1   9
TORSDOF 4
ENDMDL