MODEL 1
REMARK VINA RESULT: -7.901736759      0.000      0.000
REMARK  9 active torsions:
REMARK  status: ('A' for Active; 'I' for Inactive)
REMARK    1  A    between atoms: N1_4  and  C4_5
REMARK    2  A    between atoms: C10_11  and  C11_12
REMARK    3  A    between atoms: C11_12  and  N2_13
REMARK    4  A    between atoms: C14_16  and  C15_17
REMARK    5  A    between atoms: C15_17  and  C16_18
REMARK    6  A    between atoms: C18_20  and  N3_21
REMARK    7  A    between atoms: C19_25  and  O1_26
REMARK    8  A    between atoms: C19_25  and  C20_28
REMARK    9  A    between atoms: C23_32  and  C24_33
ROOT
HETATM    1  C16 UNL     1     -10.366  83.286  13.784  1.00  0.00     0.029 C
HETATM    2  C17 UNL     1     -11.853  83.409  13.865  1.00  0.00     0.044 C
HETATM    3  C18 UNL     1     -11.927  82.010  14.523  1.00  0.00     0.223 C
HETATM    4  C19 UNL     1     -10.489  81.841  14.218  1.00  0.00     0.119 C
ENDROOT
BRANCH   1   5
HETATM    5  C15 UNL     1      -9.622  84.161  14.711  1.00  0.00     0.013 C
BRANCH   5   6
HETATM    6  C14 UNL     1      -8.735  85.204  14.177  1.00  0.00    -0.008 C
HETATM    7  C13 UNL     1      -9.467  86.347  13.500  1.00  0.00     0.049 C
HETATM    8  C12 UNL     1      -8.459  87.077  12.643  1.00  0.00     0.058 C
HETATM    9  N2  UNL     1      -7.122  86.664  12.780  1.00  0.00    -0.393 N
HETATM   10  C28 UNL     1      -6.604  86.401  14.067  1.00  0.00     0.122 C
HETATM   11  C27 UNL     1      -7.643  85.762  14.998  1.00  0.00     0.024 C
BRANCH   9  12
HETATM   12  C11 UNL     1      -6.475  86.083  11.663  1.00  0.00     0.126 C
BRANCH  12  13
HETATM   13  C10 UNL     1      -5.952  84.684  11.975  1.00  0.00     0.010 C
HETATM   14  C2  UNL     1      -4.568  84.458  11.437  1.00  0.00     0.015 C
HETATM   15  C1  UNL     1      -3.589  84.052  12.490  1.00  0.00     0.012 C
HETATM   16  C3  UNL     1      -4.545  83.425  10.330  1.00  0.00     0.278 C
HETATM   17  N1  UNL     1      -5.013  82.150  10.803  1.00  0.00     0.097 N
HETATM   18  C8  UNL     1      -6.240  82.272  11.522  1.00  0.00     0.274 C
HETATM   19  C9  UNL     1      -6.870  83.642  11.378  1.00  0.00     0.037 C
BRANCH  17  20
HETATM   20  C4  UNL     1      -5.061  81.198   9.730  1.00  0.00     0.149 C
HETATM   21  C5  UNL     1      -3.692  80.892   9.173  1.00  0.00     0.048 C
HETATM   22  C6  UNL     1      -5.938  81.629   8.575  1.00  0.00     0.048 C
HETATM   23  C7  UNL     1      -5.631  79.855  10.209  1.00  0.00     0.048 C
ENDBRANCH  17  20
ENDBRANCH  12  13
ENDBRANCH   9  12
ENDBRANCH   5   6
ENDBRANCH   1   5
BRANCH   4  24
HETATM   24  O1  UNL     1      -9.783  81.597  15.407  1.00  0.00    -0.382 OA
ATOM     25  H1  UNL     1     -10.328  81.736  16.173  1.00  0.00     0.211 HD
ENDBRANCH   4  24
BRANCH   4  26
HETATM   26  C20 UNL     1     -10.097  80.825  13.214  1.00  0.00     0.020 A
HETATM   27  C21 UNL     1      -9.680  81.149  11.941  1.00  0.00     0.056 A
HETATM   28  C22 UNL     1      -9.313  80.176  11.002  1.00  0.00     0.132 A
HETATM   29  F1  UNL     1      -8.914  80.584   9.766  1.00  0.00    -0.205 F
HETATM   30  C23 UNL     1      -9.360  78.844  11.335  1.00  0.00     0.070 A
HETATM   31  C25 UNL     1      -9.770  78.491  12.596  1.00  0.00     0.062 A
HETATM   32  C26 UNL     1     -10.129  79.475  13.509  1.00  0.00     0.127 A
HETATM   33  F2  UNL     1     -10.530  79.060  14.750  1.00  0.00    -0.205 F
BRANCH  30  34
HETATM   34  C24 UNL     1      -8.975  77.822  10.356  1.00  0.00     0.268 C
HETATM   35  N4  UNL     1      -7.803  77.047  10.576  1.00  0.00    -0.057 NA
HETATM   36  O2  UNL     1      -9.647  77.606   9.328  1.00  0.00    -0.271 OA
ENDBRANCH  30  34
ENDBRANCH   4  26
BRANCH   3  37
HETATM   37  N3  UNL     1     -12.239  82.103  15.945  1.00  0.00    -0.072 N
ATOM     38  H33 UNL     1     -11.392  82.119  16.513  1.00  0.00     0.274 HD
ATOM     39  H32 UNL     1     -12.608  83.023  16.187  1.00  0.00     0.274 HD
ATOM     40  H31 UNL     1     -12.870  81.358  16.239  1.00  0.00     0.274 HD
ENDBRANCH   3  37
TORSDOF 9
ENDMDL