MODEL 5
REMARK VINA RESULT: -8.510570876      5.207      8.327
REMARK  8 active torsions:
REMARK  status: ('A' for Active; 'I' for Inactive)
REMARK    1  A    between atoms: C2_2  and  O1_3
REMARK    2  A    between atoms: C2_2  and  C3_5
REMARK    3  A    between atoms: C3_5  and  O2_6
REMARK    4  A    between atoms: C3_5  and  C4_8
REMARK    5  A    between atoms: C8_14  and  N1_15
REMARK    6  A    between atoms: C14_21  and  C15_22
REMARK    7  A    between atoms: C25_33  and  C26_34
REMARK    8  A    between atoms: C26_34  and  O4_35
ROOT
HETATM    1  N1  UNL     1     -12.155  84.424  17.847  1.00  0.00    -0.407 N
HETATM    2  C9  UNL     1     -12.785  84.309  19.110  1.00  0.00     0.118 C
HETATM    3  C10 UNL     1     -11.688  84.191  20.159  1.00  0.00     0.035 C
HETATM    4  C11 UNL     1     -10.708  83.094  19.816  1.00  0.00     0.003 C
HETATM    5  C12 UNL     1      -9.674  83.073  20.880  1.00  0.00    -0.014 A
HETATM    6  C13 UNL     1      -9.471  84.119  21.777  1.00  0.00     0.022 A
HETATM    7  C14 UNL     1      -8.500  84.075  22.750  1.00  0.00    -0.029 A
HETATM    8  C21 UNL     1      -7.684  82.964  22.862  1.00  0.00     0.014 A
HETATM    9  C22 UNL     1      -7.881  81.924  21.977  1.00  0.00     0.038 A
HETATM   10  C23 UNL     1      -8.857  81.959  20.991  1.00  0.00     0.075 A
HETATM   11  O3  UNL     1      -9.064  80.927  20.103  1.00  0.00    -0.350 OA
HETATM   12  C24 UNL     1     -10.351  80.606  19.703  1.00  0.00     0.183 C
HETATM   13  C25 UNL     1     -11.343  81.735  19.782  1.00  0.00     0.047 C
HETATM   14  C27 UNL     1     -10.060  83.521  18.529  1.00  0.00     0.013 C
HETATM   15  C28 UNL     1     -10.007  82.509  17.438  1.00  0.00     0.012 C
HETATM   16  C29 UNL     1     -10.775  84.729  17.901  1.00  0.00     0.122 C
ENDROOT
BRANCH  13  17
HETATM   17  C26 UNL     1     -12.200  81.454  21.004  1.00  0.00     0.172 C
BRANCH  17  18
HETATM   18  O4  UNL     1     -12.815  80.205  20.908  1.00  0.00    -0.400 OA
ATOM     19  H4  UNL     1     -13.254  80.103  20.072  1.00  0.00     0.209 HD
ENDBRANCH  17  18
ENDBRANCH  13  17
BRANCH   1  20
HETATM   20  C8  UNL     1     -12.876  85.138  16.829  1.00  0.00     0.091 C
HETATM   21  C4  UNL     1     -13.777  84.298  15.982  1.00  0.00     0.045 C
HETATM   22  C5  UNL     1     -14.945  85.185  15.633  1.00  0.00     0.088 C
HETATM   23  C6  UNL     1     -15.018  86.234  16.728  1.00  0.00     0.246 C
HETATM   24  F1  UNL     1     -15.355  87.478  16.237  1.00  0.00    -0.206 F
HETATM   25  F2  UNL     1     -15.933  85.818  17.672  1.00  0.00    -0.206 F
HETATM   26  C7  UNL     1     -13.628  86.316  17.334  1.00  0.00     0.104 C
BRANCH  21  27
HETATM   27  C3  UNL     1     -13.117  83.829  14.711  1.00  0.00     0.152 C
BRANCH  27  28
HETATM   28  C2  UNL     1     -12.894  82.359  14.726  1.00  0.00     0.143 C
HETATM   29  C1  UNL     1     -11.721  81.948  13.865  1.00  0.00     0.042 C
BRANCH  28  30
HETATM   30  O1  UNL     1     -14.003  81.607  14.455  1.00  0.00    -0.393 OA
ATOM     31  H1  UNL     1     -14.150  80.949  15.124  1.00  0.00     0.210 HD
ENDBRANCH  28  30
ENDBRANCH  27  28
BRANCH  27  32
HETATM   32  O2  UNL     1     -11.864  84.467  14.635  1.00  0.00    -0.393 OA
ATOM     33  H2  UNL     1     -11.371  84.251  15.417  1.00  0.00     0.210 HD
ENDBRANCH  27  32
ENDBRANCH  21  27
ENDBRANCH   1  20
BRANCH   7  34
HETATM   34  C15 UNL     1      -8.340  85.221  23.661  1.00  0.00    -0.052 C
HETATM   35  C16 UNL     1      -7.304  86.071  23.525  1.00  0.00    -0.019 C
HETATM   36  C17 UNL     1      -7.269  87.195  24.528  1.00  0.00     0.028 C
HETATM   37  C18 UNL     1      -8.592  87.919  24.373  1.00  0.00     0.004 C
HETATM   38  C19 UNL     1      -9.740  86.976  24.608  1.00  0.00     0.005 C
HETATM   39  C20 UNL     1      -9.259  85.531  24.758  1.00  0.00     0.039 C
ENDBRANCH   7  34
TORSDOF 8
ENDMDL