MODEL 2
REMARK VINA RESULT: -7.446148945      2.160      2.664
REMARK  11 active torsions:
REMARK  status: ('A' for Active; 'I' for Inactive)
REMARK    1  A    between atoms: C2_2  and  N1_4
REMARK    2  A    between atoms: C2_2  and  C4_8
REMARK    3  A    between atoms: C5_9  and  C6_10
REMARK    4  A    between atoms: C10_15  and  O1_16
REMARK    5  A    between atoms: O1_16  and  C11_17
REMARK    6  A    between atoms: N2_20  and  C14_21
REMARK    7  A    between atoms: C14_21  and  C17_24
REMARK    8  A    between atoms: C19_27  and  C20_28
REMARK    9  A    between atoms: C20_28  and  N4_29
REMARK   10  A    between atoms: C20_28  and  C21_33
REMARK   11  A    between atoms: C21_33  and  N5_34
ROOT
HETATM    1  C17 UNL     1      -8.698  78.980  13.003  1.00  0.00     0.058 C
HETATM    2  C18 UNL     1      -9.200  77.838  13.760  1.00  0.00     0.097 C
HETATM    3  N3  UNL     1      -9.586  76.911  14.350  1.00  0.00    -0.192 NA
HETATM    4  C19 UNL     1      -8.610  78.847  11.712  1.00  0.00     0.028 C
ENDROOT
BRANCH   1   5
HETATM    5  C14 UNL     1      -8.321  80.235  13.654  1.00  0.00     0.189 C
HETATM    6  C15 UNL     1      -8.697  81.395  12.759  1.00  0.00     0.055 C
HETATM    7  C16 UNL     1      -6.815  80.228  13.802  1.00  0.00     0.055 C
BRANCH   5   8
HETATM    8  N2  UNL     1      -9.005  80.457  14.908  1.00  0.00     0.105 N
HETATM    9  C13 UNL     1      -8.375  81.365  15.802  1.00  0.00     0.276 C
HETATM   10  C12 UNL     1      -9.436  81.648  16.834  1.00  0.00     0.064 C
HETATM   11  C11 UNL     1     -10.711  81.647  16.020  1.00  0.00     0.159 C
HETATM   12  C22 UNL     1     -10.273  81.120  14.660  1.00  0.00     0.306 C
BRANCH  11  13
HETATM   13  O1  UNL     1     -11.175  82.957  15.989  1.00  0.00    -0.343 OA
BRANCH  13  14
HETATM   14  C10 UNL     1     -12.425  83.427  15.709  1.00  0.00     0.088 A
HETATM   15  C9  UNL     1     -13.184  82.860  14.717  1.00  0.00     0.040 A
HETATM   16  C8  UNL     1     -14.443  83.356  14.461  1.00  0.00     0.028 A
HETATM   17  C7  UNL     1     -14.937  84.411  15.192  1.00  0.00     0.054 A
HETATM   18  C6  UNL     1     -14.180  84.993  16.197  1.00  0.00     0.059 A
HETATM   19 CL1  UNL     1     -16.548  85.029  14.847  1.00  0.00    -0.083 Cl
HETATM   20  C23 UNL     1     -12.923  84.485  16.440  1.00  0.00     0.064 A
HETATM   21 BR1  UNL     1     -11.890  85.307  17.827  1.00  0.00    -0.046 Br
BRANCH  18  22
HETATM   22  C5  UNL     1     -14.742  86.097  16.942  1.00  0.00    -0.061 C
HETATM   23  C4  UNL     1     -15.219  87.026  17.544  1.00  0.00    -0.062 C
BRANCH  23  24
HETATM   24  C2  UNL     1     -15.802  88.156  18.245  1.00  0.00     0.179 C
HETATM   25  C1  UNL     1     -15.516  89.465  17.575  1.00  0.00     0.060 C
HETATM   26  C3  UNL     1     -17.323  88.008  18.338  1.00  0.00     0.060 C
BRANCH  24  27
HETATM   27  N1  UNL     1     -15.320  88.150  19.606  1.00  0.00    -0.060 N
ATOM     28  H13 UNL     1     -14.597  87.443  19.744  1.00  0.00     0.276 HD
ATOM     29  H12 UNL     1     -14.766  88.982  19.812  1.00  0.00     0.276 HD
ATOM     30  H11 UNL     1     -16.087  88.037  20.268  1.00  0.00     0.276 HD
ENDBRANCH  24  27
ENDBRANCH  23  24
ENDBRANCH  18  22
ENDBRANCH  13  14
ENDBRANCH  11  13
ENDBRANCH   5   8
ENDBRANCH   1   5
BRANCH   4  31
HETATM   31  C20 UNL     1      -8.992  77.575  11.063  1.00  0.00     0.232 C
BRANCH  31  32
HETATM   32  N4  UNL     1      -7.853  76.778  10.670  1.00  0.00    -0.070 N
ATOM     33  H43 UNL     1      -7.292  76.520  11.482  1.00  0.00     0.275 HD
ATOM     34  H42 UNL     1      -8.146  75.850  10.367  1.00  0.00     0.275 HD
ATOM     35  H41 UNL     1      -7.278  77.229   9.958  1.00  0.00     0.275 HD
ENDBRANCH  31  32
BRANCH  31  36
HETATM   36  C21 UNL     1      -9.908  77.872   9.895  1.00  0.00     0.266 C
BRANCH  36  37
HETATM   37  N5  UNL     1     -10.912  76.823   9.814  1.00  0.00    -0.077 N
ATOM     38  H53 UNL     1     -10.502  75.889   9.816  1.00  0.00     0.274 HD
ATOM     39  H52 UNL     1     -11.459  76.739  10.670  1.00  0.00     0.274 HD
ATOM     40  H51 UNL     1     -11.494  76.992   8.993  1.00  0.00     0.274 HD
ENDBRANCH  36  37
ENDBRANCH  31  36
ENDBRANCH   4  31
TORSDOF 11
ENDMDL