MODEL 3
REMARK VINA RESULT: -7.061470091      3.704      5.694
REMARK  8 active torsions:
REMARK  status: ('A' for Active; 'I' for Inactive)
REMARK    1  A    between atoms: C5_6  and  C6_7
REMARK    2  A    between atoms: C5_6  and  C13_15
REMARK    3  A    between atoms: C6_7  and  C7_8
REMARK    4  A    between atoms: C7_8  and  C8_9
REMARK    5  A    between atoms: C8_9  and  C9_10
REMARK    6  A    between atoms: C9_10  and  C10_12
REMARK    7  A    between atoms: C14_18  and  O3_19
REMARK    8  A    between atoms: C15_21  and  O4_22
ROOT
HETATM    1  C1  UNL     1     -12.507  82.528  20.653  1.00  0.00     0.019 C
HETATM    2  C2  UNL     1     -12.444  83.761  20.213  1.00  0.00    -0.062 C
HETATM    3  C3  UNL     1     -11.111  84.151  19.735  1.00  0.00     0.023 C
HETATM    4  C4  UNL     1     -10.769  84.877  18.668  1.00  0.00     0.011 C
HETATM    5 BR1  UNL     1      -8.893  85.119  18.476  1.00  0.00    -0.054 Br
HETATM    6  C5  UNL     1     -11.687  85.488  17.697  1.00  0.00     0.116 C
HETATM    7  C14 UNL     1     -12.855  86.171  18.447  1.00  0.00     0.112 C
HETATM    8  C15 UNL     1     -13.126  87.524  17.952  1.00  0.00     0.163 C
HETATM    9  C16 UNL     1     -14.180  87.760  16.921  1.00  0.00     0.145 C
HETATM   10  C17 UNL     1     -15.454  87.733  17.670  1.00  0.00     0.261 C
HETATM   11  O5  UNL     1     -16.203  88.700  17.520  1.00  0.00    -0.265 OA
HETATM   12  O6  UNL     1     -15.856  86.725  18.508  1.00  0.00    -0.321 OA
HETATM   13  C18 UNL     1     -15.327  85.420  18.518  1.00  0.00     0.187 C
HETATM   14  C19 UNL     1     -13.905  85.226  18.839  1.00  0.00     0.057 C
HETATM   15  C20 UNL     1     -13.657  84.645  20.246  1.00  0.00     0.023 C
HETATM   16  C21 UNL     1     -14.839  83.894  20.782  1.00  0.00     0.015 C
ENDROOT
BRANCH   6  17
HETATM   17  C6  UNL     1     -11.064  86.304  16.642  1.00  0.00     0.029 C
BRANCH  17  18
HETATM   18  C7  UNL     1     -10.551  85.480  15.502  1.00  0.00     0.003 C
BRANCH  18  19
HETATM   19  C8  UNL     1      -9.761  86.396  14.534  1.00  0.00     0.020 C
BRANCH  19  20
HETATM   20  C9  UNL     1      -8.329  85.939  14.480  1.00  0.00     0.085 C
HETATM   21 CL1  UNL     1      -8.165  84.217  14.806  1.00  0.00    -0.125 Cl
BRANCH  20  22
HETATM   22  C10 UNL     1      -7.823  86.244  13.077  1.00  0.00    -0.004 C
HETATM   23  C11 UNL     1      -6.496  86.973  13.126  1.00  0.00     0.011 C
HETATM   24  C12 UNL     1      -8.807  87.116  12.333  1.00  0.00     0.011 C
ENDBRANCH  20  22
ENDBRANCH  19  20
ENDBRANCH  18  19
ENDBRANCH  17  18
ENDBRANCH   6  17
BRANCH   6  25
HETATM   25  C13 UNL     1     -12.201  84.291  16.915  1.00  0.00     0.190 C
HETATM   26  O1  UNL     1     -11.722  83.140  17.042  1.00  0.00    -0.647 OA
HETATM   27  O2  UNL     1     -13.241  84.385  16.002  1.00  0.00    -0.647 OA
ENDBRANCH   6  25
BRANCH   7  28
HETATM   28  O3  UNL     1     -12.201  86.510  19.687  1.00  0.00    -0.385 OA
ATOM     29  H3  UNL     1     -12.845  87.098  20.063  1.00  0.00     0.210 HD
ENDBRANCH   7  28
BRANCH   8  30
HETATM   30  O4  UNL     1     -13.484  88.457  18.972  1.00  0.00    -0.392 OA
ATOM     31  H4  UNL     1     -12.975  89.259  18.959  1.00  0.00     0.210 HD
ENDBRANCH   8  30
TORSDOF 8
ENDMDL