MODEL 4
REMARK VINA RESULT: -7.022792210      5.000      8.267
REMARK  9 active torsions:
REMARK  status: ('A' for Active; 'I' for Inactive)
REMARK    1  A    between atoms: C2_2  and  C24_32
REMARK    2  A    between atoms: C3_3  and  C4_4
REMARK    3  A    between atoms: C5_5  and  C6_7
REMARK    4  A    between atoms: C6_7  and  C7_9
REMARK    5  A    between atoms: C7_9  and  O2_10
REMARK    6  A    between atoms: C7_9  and  C8_12
REMARK    7  A    between atoms: C15_19  and  O3_20
REMARK    8  A    between atoms: C15_19  and  C16_22
REMARK    9  A    between atoms: C24_32  and  O5_33
ROOT
HETATM    1  C8  UNL     1      -8.780  80.290  11.558  1.00  0.00     0.039 C
HETATM    2  C9  UNL     1      -9.365  79.404  10.425  1.00  0.00     0.017 C
HETATM    3  C10 UNL     1      -8.734  78.068  10.511  1.00  0.00     0.006 C
HETATM    4  C11 UNL     1      -7.560  78.308  11.440  1.00  0.00    -0.003 C
HETATM    5  C12 UNL     1      -6.485  78.921  10.600  1.00  0.00     0.047 C
HETATM    6  C13 UNL     1      -6.657  80.321  10.208  1.00  0.00     0.106 C
HETATM    7  C14 UNL     1      -5.262  81.009  10.216  1.00  0.00     0.110 C
HETATM    8  C15 UNL     1      -5.198  80.583   8.740  1.00  0.00     0.168 C
HETATM    9  O4  UNL     1      -6.571  80.525   8.826  1.00  0.00    -0.340 OA
HETATM   10  C19 UNL     1      -7.736  81.116  10.908  1.00  0.00     0.142 C
HETATM   11  C20 UNL     1      -8.258  82.119   9.919  1.00  0.00     0.056 C
HETATM   12  F1  UNL     1      -6.974  81.881  11.822  1.00  0.00    -0.239 F
HETATM   13  C21 UNL     1      -8.209  79.241  12.439  1.00  0.00    -0.030 C
HETATM   14  C22 UNL     1      -9.166  78.376  13.181  1.00  0.00     0.016 C
HETATM   15  C23 UNL     1      -7.159  79.697  13.401  1.00  0.00     0.016 C
ENDROOT
BRANCH   1  16
HETATM   16  C7  UNL     1      -9.978  81.009  12.048  1.00  0.00     0.206 C
BRANCH  16  17
HETATM   17  C6  UNL     1      -9.978  81.774  13.269  1.00  0.00     0.196 C
HETATM   18  O1  UNL     1     -10.817  81.386  14.180  1.00  0.00    -0.289 OA
BRANCH  17  19
HETATM   19  C5  UNL     1      -9.210  82.907  13.681  1.00  0.00     0.059 C
HETATM   20  C4  UNL     1      -9.058  84.082  13.101  1.00  0.00     0.023 C
HETATM   21 BR1  UNL     1      -8.210  82.725  15.340  1.00  0.00    -0.047 Br
BRANCH  20  22
HETATM   22  C3  UNL     1      -8.212  85.126  13.679  1.00  0.00     0.006 C
HETATM   23  C2  UNL     1      -7.209  85.724  13.124  1.00  0.00    -0.060 C
HETATM   24  C1  UNL     1      -6.425  86.794  13.857  1.00  0.00     0.045 C
BRANCH  23  25
HETATM   25  C24 UNL     1      -6.734  85.440  11.762  1.00  0.00     0.198 C
BRANCH  25  26
HETATM   26  O5  UNL     1      -5.732  86.341  11.383  1.00  0.00    -0.397 OA
ATOM     27  H5  UNL     1      -5.693  86.427  10.437  1.00  0.00     0.209 HD
ENDBRANCH  25  26
ENDBRANCH  23  25
ENDBRANCH  20  22
ENDBRANCH  17  19
ENDBRANCH  16  17
BRANCH  16  28
HETATM   28  O2  UNL     1     -11.087  80.121  12.111  1.00  0.00    -0.387 OA
ATOM     29  H2  UNL     1     -10.772  79.309  12.489  1.00  0.00     0.210 HD
ENDBRANCH  16  28
ENDBRANCH   1  16
BRANCH   8  30
HETATM   30  O3  UNL     1      -4.648  79.313   8.571  1.00  0.00    -0.365 OA
ATOM     31  H3  UNL     1      -3.748  79.341   8.270  1.00  0.00     0.213 HD
ENDBRANCH   8  30
BRANCH   8  32
HETATM   32  C16 UNL     1      -4.529  81.610   7.925  1.00  0.00     0.040 C
HETATM   33  C17 UNL     1      -5.097  81.945   6.600  1.00  0.00     0.015 C
HETATM   34  C18 UNL     1      -3.080  81.155   7.680  1.00  0.00     0.015 C
ENDBRANCH   8  32
TORSDOF 9
ENDMDL