MODEL 1
REMARK VINA RESULT: -8.456614908      0.000      0.000
REMARK  9 active torsions:
REMARK  status: ('A' for Active; 'I' for Inactive)
REMARK    1  A    between atoms: C2_2  and  C3_3
REMARK    2  A    between atoms: C5_9  and  C6_10
REMARK    3  A    between atoms: C8_14  and  N4_15
REMARK    4  A    between atoms: N4_15  and  C9_17
REMARK    5  A    between atoms: C9_17  and  C11_19
REMARK    6  A    between atoms: C11_19  and  C12_20
REMARK    7  A    between atoms: C20_31  and  C21_32
REMARK    8  A    between atoms: C21_32  and  C22_33
REMARK    9  A    between atoms: C22_33  and  C23_34
ROOT
HETATM    1  C3  UNL     1      -8.506  79.927  10.345  1.00  0.00     0.030 A
HETATM    2  N1  UNL     1      -8.875  78.669  10.134  1.00  0.00    -0.354 N
ATOM      3  H1  UNL     1      -8.449  78.152   9.364  1.00  0.00     0.166 HD
HETATM    4  C4  UNL     1      -9.789  78.056  10.897  1.00  0.00     0.181 A
HETATM    5  N2  UNL     1     -10.347  78.739  11.906  1.00  0.00    -0.350 N
ATOM      6  H2  UNL     1     -11.041  78.263  12.482  1.00  0.00     0.166 HD
HETATM    7  C5  UNL     1     -10.043  80.015  12.203  1.00  0.00     0.065 A
HETATM    8  C20 UNL     1      -9.107  80.614  11.409  1.00  0.00     0.068 A
ENDROOT
BRANCH   7   9
HETATM    9  C6  UNL     1     -10.640  80.733  13.306  1.00  0.00     0.011 A
HETATM   10  C7  UNL     1      -9.990  80.819  14.530  1.00  0.00     0.103 A
HETATM   11  N3  UNL     1     -10.537  81.462  15.578  1.00  0.00    -0.349 N
HETATM   12  C8  UNL     1     -11.736  82.070  15.552  1.00  0.00     0.140 A
ATOM     13  H3  UNL     1     -10.007  81.490  16.450  1.00  0.00     0.167 HD
HETATM   14  C18 UNL     1     -12.422  82.005  14.336  1.00  0.00     0.160 A
HETATM   15  F2  UNL     1     -13.626  82.592  14.244  1.00  0.00    -0.202 F
HETATM   16  C19 UNL     1     -11.870  81.344  13.244  1.00  0.00     0.061 A
BRANCH  12  17
HETATM   17  N4  UNL     1     -12.261  82.685  16.544  1.00  0.00    -0.366 N
ATOM     18  H4  UNL     1     -13.255  82.521  16.703  1.00  0.00     0.161 HD
BRANCH  17  19
HETATM   19  C9  UNL     1     -11.615  83.573  17.449  1.00  0.00     0.116 C
HETATM   20  C10 UNL     1     -11.613  83.065  18.877  1.00  0.00     0.035 C
BRANCH  19  21
HETATM   21  C11 UNL     1     -12.327  84.917  17.444  1.00  0.00     0.110 C
HETATM   22  C13 UNL     1     -13.030  85.111  18.753  1.00  0.00     0.076 C
HETATM   23  C14 UNL     1     -13.798  86.403  18.707  1.00  0.00    -0.083 C
HETATM   24  C15 UNL     1     -13.789  87.382  19.802  1.00  0.00     0.043 C
HETATM   25  C16 UNL     1     -14.499  86.596  17.581  1.00  0.00     0.002 C
HETATM   26  C17 UNL     1     -14.396  85.498  16.570  1.00  0.00     0.196 C
HETATM   27  O1  UNL     1     -13.111  85.089  16.336  1.00  0.00    -0.372 OA
BRANCH  21  28
HETATM   28  C12 UNL     1     -11.228  85.990  17.377  1.00  0.00     0.262 C
HETATM   29  F1  UNL     1     -11.134  86.461  16.075  1.00  0.00    -0.252 F
ENDBRANCH  21  28
ENDBRANCH  19  21
ENDBRANCH  17  19
ENDBRANCH  12  17
ENDBRANCH   7   9
BRANCH   8  30
HETATM   30  C21 UNL     1      -8.701  81.960  11.677  1.00  0.00    -0.056 C
BRANCH  30  31
HETATM   31  C22 UNL     1      -8.334  83.107  11.935  1.00  0.00    -0.043 C
BRANCH  31  32
HETATM   32  C23 UNL     1      -7.882  84.432  12.229  1.00  0.00     0.094 A
HETATM   33  N5  UNL     1      -6.717  84.957  11.791  1.00  0.00    -0.335 N
HETATM   34  C24 UNL     1      -6.339  86.207  12.096  1.00  0.00     0.099 A
ATOM     35  H5  UNL     1      -6.105  84.384  11.209  1.00  0.00     0.168 HD
HETATM   36  N6  UNL     1      -5.223  86.676  11.663  1.00  0.00    -0.385 N
HETATM   37  C25 UNL     1      -7.122  87.022  12.876  1.00  0.00     0.048 A
ATOM     38  H62 UNL     1      -4.641  86.071  11.084  1.00  0.00     0.157 HD
ATOM     39  H61 UNL     1      -4.936  87.626  11.895  1.00  0.00     0.157 HD
HETATM   40  C26 UNL     1      -8.313  86.530  13.343  1.00  0.00     0.013 A
HETATM   41  C27 UNL     1      -8.673  85.243  13.012  1.00  0.00    -0.026 A
HETATM   42  C28 UNL     1      -9.976  84.705  13.525  1.00  0.00     0.051 C
ENDBRANCH  31  32
ENDBRANCH  30  31
ENDBRANCH   8  30
BRANCH   1  43
HETATM   43  C2  UNL     1      -7.502  80.647   9.535  1.00  0.00     0.054 C
HETATM   44  C1  UNL     1      -6.087  80.293   9.923  1.00  0.00     0.011 C
ENDBRANCH   1  43
TORSDOF 9
ENDMDL