MODEL 5
REMARK VINA RESULT: -6.292097899      3.509      5.733
REMARK  7 active torsions:
REMARK  status: ('A' for Active; 'I' for Inactive)
REMARK    1  A    between atoms: C2_2  and  C3_3
REMARK    2  A    between atoms: C2_2  and  C4_5
REMARK    3  A    between atoms: C4_5  and  C5_6
REMARK    4  A    between atoms: N1_8  and  N2_10
REMARK    5  A    between atoms: N2_10  and  C7_12
REMARK    6  A    between atoms: C14_25  and  N6_26
REMARK    7  A    between atoms: C18_31  and  C19_32
ROOT
HETATM    1  C4  UNL     1     -11.699  85.419  17.295  1.00  0.00     0.067 C
HETATM    2  C8  UNL     1     -11.986  86.427  18.432  1.00  0.00     0.029 C
HETATM    3  C9  UNL     1     -12.177  85.954  19.786  1.00  0.00     0.032 C
HETATM    4  C10 UNL     1     -12.124  84.519  20.112  1.00  0.00     0.089 C
HETATM    5  C11 UNL     1     -11.068  84.164  21.175  1.00  0.00     0.038 C
HETATM    6  C12 UNL     1     -13.390  84.097  20.697  1.00  0.00     0.075 C
HETATM    7  N4  UNL     1     -14.409  83.755  21.146  1.00  0.00    -0.196 NA
HETATM    8  C13 UNL     1     -11.738  83.678  18.912  1.00  0.00     0.049 C
HETATM    9  N5  UNL     1     -12.205  82.513  18.939  1.00  0.00    -0.399 N
ATOM     10  H51 UNL     1     -11.945  81.946  18.132  1.00  0.00     0.156 HD
ATOM     11  H52 UNL     1     -12.793  82.033  19.621  1.00  0.00     0.156 HD
HETATM   12  C14 UNL     1     -10.885  84.373  17.924  1.00  0.00     0.050 C
ENDROOT
BRANCH  12  13
HETATM   13  N6  UNL     1      -9.906  83.620  17.299  1.00  0.00    -0.375 N
HETATM   14  C15 UNL     1      -8.588  83.594  17.728  1.00  0.00     0.125 C
HETATM   15  C16 UNL     1      -8.507  82.290  18.570  1.00  0.00     0.042 C
HETATM   16  C17 UNL     1      -9.070  81.386  17.523  1.00  0.00     0.106 C
HETATM   17 CL1  UNL     1      -9.620  79.845  18.149  1.00  0.00    -0.123 Cl
HETATM   18  C18 UNL     1     -10.242  82.273  17.008  1.00  0.00     0.102 C
BRANCH  18  19
HETATM   19  C19 UNL     1     -10.223  82.020  15.514  1.00  0.00     0.022 C
HETATM   20  C20 UNL     1     -11.224  80.948  15.165  1.00  0.00     0.007 C
ENDBRANCH  18  19
ENDBRANCH  12  13
BRANCH   1  21
HETATM   21  C2  UNL     1     -12.985  84.985  16.647  1.00  0.00    -0.059 C
HETATM   22  C1  UNL     1     -12.900  84.196  15.556  1.00  0.00     0.016 C
BRANCH  21  23
HETATM   23  C3  UNL     1     -14.347  85.424  16.967  1.00  0.00     0.120 C
HETATM   24 BR1  UNL     1     -15.709  85.050  15.669  1.00  0.00    -0.092 Br
ENDBRANCH  21  23
ENDBRANCH   1  21
BRANCH   1  25
HETATM   25  C5  UNL     1     -11.026  86.326  16.281  1.00  0.00     0.019 C
HETATM   26  C6  UNL     1     -11.112  87.824  16.465  1.00  0.00     0.066 C
HETATM   27  N1  UNL     1     -10.369  85.922  15.263  1.00  0.00    -0.306 N
ATOM     28  H1  UNL     1     -10.282  84.917  15.109  1.00  0.00     0.186 HD
BRANCH  27  29
HETATM   29  N2  UNL     1      -9.765  86.786  14.356  1.00  0.00    -0.279 N
ATOM     30  H2  UNL     1      -9.781  87.788  14.546  1.00  0.00     0.189 HD
BRANCH  29  31
HETATM   31  C7  UNL     1      -9.122  86.320  13.164  1.00  0.00     0.199 C
HETATM   32  N3  UNL     1      -8.889  87.170  12.063  1.00  0.00    -0.068 NA
HETATM   33  S1  UNL     1      -8.630  84.765  13.040  1.00  0.00    -0.043 SA
ENDBRANCH  29  31
ENDBRANCH  27  29
ENDBRANCH   1  25
TORSDOF 7
ENDMDL