MODEL 4
REMARK VINA RESULT: -7.811671002      2.647      3.295
REMARK  9 active torsions:
REMARK  status: ('A' for Active; 'I' for Inactive)
REMARK    1  A    between atoms: O1_2  and  C2_3
REMARK    2  A    between atoms: C2_3  and  C3_4
REMARK    3  A    between atoms: C5_6  and  C6_7
REMARK    4  A    between atoms: C8_9  and  O2_10
REMARK    5  A    between atoms: C10_12  and  N1_13
REMARK    6  A    between atoms: N1_13  and  C11_14
REMARK    7  A    between atoms: C12_17  and  N3_18
REMARK    8  A    between atoms: N3_18  and  C13_19
REMARK    9  A    between atoms: C20_31  and  O3_32
ROOT
HETATM    1  C6  UNL     1      -9.267  82.205  12.462  1.00  0.00    -0.025 A
HETATM    2  C7  UNL     1      -9.006  83.451  12.891  1.00  0.00     0.049 A
HETATM    3  C8  UNL     1      -9.729  84.050  13.870  1.00  0.00     0.112 A
HETATM    4  C10 UNL     1     -10.834  83.408  14.528  1.00  0.00     0.179 A
HETATM    5  C20 UNL     1     -11.077  82.120  14.072  1.00  0.00     0.132 A
HETATM    6  C21 UNL     1     -10.317  81.527  13.066  1.00  0.00     0.077 A
HETATM    7 CL2  UNL     1     -10.703  79.909  12.537  1.00  0.00    -0.081 Cl
ENDROOT
BRANCH   4   8
HETATM    8  N1  UNL     1     -11.512  84.069  15.403  1.00  0.00    -0.365 NA
BRANCH   8   9
HETATM    9  C11 UNL     1     -11.959  84.438  16.500  1.00  0.00     0.263 A
HETATM   10  N2  UNL     1     -12.098  83.688  17.595  1.00  0.00    -0.290 N
HETATM   11  C12 UNL     1     -12.603  84.187  18.799  1.00  0.00     0.192 A
ATOM     12  H2  UNL     1     -11.824  82.707  17.551  1.00  0.00     0.172 HD
HETATM   13  C16 UNL     1     -12.983  85.546  18.841  1.00  0.00     0.089 A
HETATM   14  C17 UNL     1     -13.498  86.313  19.853  1.00  0.00     0.068 A
HETATM   15  C19 UNL     1     -12.830  86.289  17.706  1.00  0.00     0.125 A
HETATM   16 CL1  UNL     1     -13.895  85.939  21.511  1.00  0.00    -0.082 Cl
HETATM   17  C18 UNL     1     -13.659  87.595  19.268  1.00  0.00     0.114 A
HETATM   18  N4  UNL     1     -13.260  87.553  18.009  1.00  0.00    -0.350 N
ATOM     19  H4  UNL     1     -13.271  88.341  17.362  1.00  0.00     0.166 HD
HETATM   20  N5  UNL     1     -12.346  85.762  16.596  1.00  0.00    -0.301 N
ATOM     21  H5  UNL     1     -12.252  86.358  15.774  1.00  0.00     0.171 HD
BRANCH  11  22
HETATM   22  N3  UNL     1     -12.650  83.513  19.774  1.00  0.00    -0.425 NA
BRANCH  22  23
HETATM   23  C13 UNL     1     -12.670  82.734  20.850  1.00  0.00     0.157 C
HETATM   24  C14 UNL     1     -11.708  81.498  20.725  1.00  0.00     0.047 C
HETATM   25  C15 UNL     1     -14.018  82.120  21.313  1.00  0.00     0.047 C
ENDBRANCH  22  23
ENDBRANCH  11  22
ENDBRANCH   8   9
ENDBRANCH   4   8
BRANCH   3  26
HETATM   26  O2  UNL     1      -9.486  85.324  14.341  1.00  0.00    -0.352 OA
HETATM   27  C9  UNL     1      -9.354  86.397  13.401  1.00  0.00     0.210 C
ENDBRANCH   3  26
BRANCH   5  28
HETATM   28  O3  UNL     1     -12.118  81.383  14.629  1.00  0.00    -0.356 OA
ATOM     29  H3  UNL     1     -11.946  80.823  15.377  1.00  0.00     0.218 HD
ENDBRANCH   5  28
BRANCH   1  30
HETATM   30  C5  UNL     1      -8.491  81.519  11.429  1.00  0.00     0.051 C
HETATM   31  C4  UNL     1      -8.154  82.415  10.246  1.00  0.00     0.049 C
HETATM   32  C3  UNL     1      -6.946  81.710   9.678  1.00  0.00     0.246 C
HETATM   33  N6  UNL     1      -6.414  80.824  10.637  1.00  0.00     0.091 N
HETATM   34  C22 UNL     1      -7.020  81.306  11.906  1.00  0.00     0.282 C
HETATM   35  C23 UNL     1      -6.793  79.439  10.561  1.00  0.00     0.310 C
BRANCH  32  36
HETATM   36  C2  UNL     1      -7.107  81.307   8.270  1.00  0.00     0.202 C
BRANCH  36  37
HETATM   37  O1  UNL     1      -6.008  80.968   7.558  1.00  0.00    -0.394 OA
HETATM   38  C1  UNL     1      -5.503  81.751   6.597  1.00  0.00     0.201 C
ENDBRANCH  36  37
ENDBRANCH  32  36
ENDBRANCH   1  30
TORSDOF 9
ENDMDL