MODEL 5
REMARK VINA RESULT: -8.360475528      4.089      7.210
REMARK  9 active torsions:
REMARK  status: ('A' for Active; 'I' for Inactive)
REMARK    1  A    between atoms: O1_2  and  C2_3
REMARK    2  A    between atoms: C2_3  and  C3_5
REMARK    3  A    between atoms: C6_8  and  N1_9
REMARK    4  A    between atoms: N1_9  and  C7_11
REMARK    5  A    between atoms: C8_14  and  N3_15
REMARK    6  A    between atoms: N3_15  and  C9_17
REMARK    7  A    between atoms: C9_17  and  C10_18
REMARK    8  A    between atoms: C16_28  and  C17_29
REMARK       I    between atoms: C17_29  and  N5_31
REMARK    9  A    between atoms: N5_31  and  C18_33
ROOT
HETATM    1  C7  UNL     1     -11.330  82.774  16.774  1.00  0.00     0.134 A
HETATM    2  N2  UNL     1     -11.335  82.206  17.985  1.00  0.00    -0.176 N
ATOM      3  H2  UNL     1     -12.185  82.250  18.546  1.00  0.00     0.186 HD
HETATM    4  C8  UNL     1     -10.247  81.572  18.493  1.00  0.00     0.679 A
HETATM    5  N4  UNL     1      -9.089  81.480  17.794  1.00  0.00    -0.201 N
ATOM      6  H4  UNL     1      -8.279  81.001  18.187  1.00  0.00     0.183 HD
HETATM    7  C15 UNL     1      -9.033  82.037  16.572  1.00  0.00     0.127 A
HETATM    8  C16 UNL     1     -10.144  82.682  16.057  1.00  0.00     0.092 A
ENDROOT
BRANCH   1   9
HETATM    9  N1  UNL     1     -12.297  83.369  16.262  1.00  0.00    -0.370 N
ATOM     10  H1  UNL     1     -12.466  83.064  15.303  1.00  0.00     0.161 HD
BRANCH   9  11
HETATM   11  C6  UNL     1     -13.210  84.345  16.664  1.00  0.00     0.083 C
HETATM   12  C5  UNL     1     -14.279  84.541  15.618  1.00  0.00     0.026 C
HETATM   13  C4  UNL     1     -15.359  85.488  16.075  1.00  0.00     0.017 C
HETATM   14  C3  UNL     1     -14.834  86.670  16.834  1.00  0.00     0.093 C
HETATM   15  C24 UNL     1     -13.844  86.326  17.902  1.00  0.00    -0.033 C
HETATM   16  C23 UNL     1     -12.660  85.638  17.204  1.00  0.00     0.034 C
HETATM   17  C25 UNL     1     -14.447  85.455  18.966  1.00  0.00     0.016 C
HETATM   18  C26 UNL     1     -13.403  87.614  18.559  1.00  0.00     0.016 C
BRANCH  14  19
HETATM   19  C2  UNL     1     -15.998  87.377  17.433  1.00  0.00     0.263 C
HETATM   20  O2  UNL     1     -16.998  86.779  17.903  1.00  0.00    -0.265 OA
BRANCH  19  21
HETATM   21  O1  UNL     1     -15.999  88.763  17.486  1.00  0.00    -0.326 OA
HETATM   22  C1  UNL     1     -16.554  89.420  18.604  1.00  0.00     0.213 C
ENDBRANCH  19  21
ENDBRANCH  14  19
ENDBRANCH   9  11
ENDBRANCH   1   9
BRANCH   8  23
HETATM   23  C17 UNL     1     -10.064  83.281  14.728  1.00  0.00     0.257 C
HETATM   24  O3  UNL     1     -10.747  82.769  13.834  1.00  0.00    -0.267 OA
HETATM   25  N5  UNL     1      -9.237  84.410  14.456  1.00  0.00    -0.352 N
ATOM     26  H5  UNL     1      -8.674  84.831  15.195  1.00  0.00     0.163 HD
BRANCH  25  27
HETATM   27  C18 UNL     1      -9.208  84.949  13.112  1.00  0.00     0.084 C
HETATM   28  C19 UNL     1      -7.767  85.016  12.673  1.00  0.00     0.025 C
HETATM   29  C20 UNL     1      -7.832  85.997  11.525  1.00  0.00     0.002 C
HETATM   30  C21 UNL     1      -8.720  87.093  12.120  1.00  0.00     0.002 C
HETATM   31  C22 UNL     1      -9.596  86.414  13.133  1.00  0.00     0.025 C
ENDBRANCH  25  27
ENDBRANCH   8  23
BRANCH   4  32
HETATM   32  N3  UNL     1     -10.228  81.016  19.656  1.00  0.00    -0.226 N
ATOM     33  H3  UNL     1     -10.117  80.003  19.677  1.00  0.00     0.177 HD
BRANCH  32  34
HETATM   34  C9  UNL     1     -10.347  81.673  20.915  1.00  0.00     0.142 C
BRANCH  34  35
HETATM   35  C10 UNL     1     -10.210  83.176  20.809  1.00  0.00     0.010 C
HETATM   36  C11 UNL     1      -9.536  83.781  21.998  1.00  0.00     0.012 C
HETATM   37  C12 UNL     1     -10.086  85.194  22.087  1.00  0.00     0.079 C
HETATM   38  C13 UNL     1     -11.143  85.316  21.019  1.00  0.00     0.244 C
HETATM   39  F1  UNL     1     -12.177  86.082  21.497  1.00  0.00    -0.206 F
HETATM   40  F2  UNL     1     -10.646  85.753  19.818  1.00  0.00    -0.206 F
HETATM   41  C14 UNL     1     -11.562  83.857  20.832  1.00  0.00     0.085 C
ENDBRANCH  34  35
ENDBRANCH  32  34
ENDBRANCH   4  32
TORSDOF 9
ENDMDL