MODEL 2
REMARK VINA RESULT: -8.038114704      2.566      4.105
REMARK  8 active torsions:
REMARK  status: ('A' for Active; 'I' for Inactive)
REMARK    1  A    between atoms: C5_6  and  C6_7
REMARK    2  A    between atoms: C12_14  and  C13_15
REMARK    3  A    between atoms: C13_15  and  N1_16
REMARK    4  A    between atoms: N1_16  and  C14_18
REMARK    5  A    between atoms: C14_18  and  C15_19
REMARK    6  A    between atoms: C15_19  and  O2_20
REMARK    7  A    between atoms: C15_19  and  C16_22
REMARK    8  A    between atoms: C22_31  and  C24_33
ROOT
HETATM    1  C1  UNL     1      -9.763  78.922  10.318  1.00  0.00     0.031 C
HETATM    2  C2  UNL     1      -9.966  78.900  11.815  1.00  0.00     0.138 C
HETATM    3  S1  UNL     1     -10.771  80.465  12.339  1.00  0.00    -0.122 SA
HETATM    4  C3  UNL     1      -9.375  81.156  13.315  1.00  0.00     0.101 C
HETATM    5  C4  UNL     1      -9.035  82.537  12.811  1.00  0.00     0.076 C
HETATM    6  C5  UNL     1      -9.964  83.580  13.322  1.00  0.00     0.129 C
HETATM    7  O1  UNL     1     -10.383  83.450  14.596  1.00  0.00    -0.377 OA
HETATM    8  C12 UNL     1     -10.581  82.271  15.195  1.00  0.00     0.156 C
HETATM    9  C22 UNL     1      -9.684  81.180  14.766  1.00  0.00     0.078 C
HETATM   10  C23 UNL     1      -8.347  81.492  15.485  1.00  0.00     0.027 C
HETATM   11  N3  UNL     1      -8.308  80.297  12.893  1.00  0.00    -0.336 N
HETATM   12  C25 UNL     1      -6.893  80.700  12.759  1.00  0.00     0.154 C
HETATM   13  C26 UNL     1      -8.706  78.986  12.585  1.00  0.00     0.234 C
HETATM   14  O3  UNL     1      -8.065  77.953  12.923  1.00  0.00    -0.272 OA
ENDROOT
BRANCH   8  15
HETATM   15  C13 UNL     1     -12.072  81.971  15.182  1.00  0.00     0.151 C
BRANCH  15  16
HETATM   16  N1  UNL     1     -12.631  82.889  16.124  1.00  0.00    -0.397 N
ATOM     17  H1  UNL     1     -12.402  82.799  17.114  1.00  0.00     0.158 HD
BRANCH  16  18
HETATM   18  C14 UNL     1     -13.490  83.912  15.701  1.00  0.00     0.089 C
BRANCH  18  19
HETATM   19  C15 UNL     1     -13.158  85.295  16.123  1.00  0.00     0.187 C
BRANCH  19  20
HETATM   20  O2  UNL     1     -11.891  85.395  16.652  1.00  0.00    -0.388 OA
ATOM     21  H2  UNL     1     -11.900  85.628  17.573  1.00  0.00     0.210 HD
ENDBRANCH  19  20
BRANCH  19  22
HETATM   22  C16 UNL     1     -14.142  85.844  17.116  1.00  0.00     0.223 C
HETATM   23  N2  UNL     1     -13.965  87.228  17.419  1.00  0.00    -0.067 N
HETATM   24  C17 UNL     1     -14.964  88.075  16.787  1.00  0.00     0.237 C
ATOM     25  H22 UNL     1     -13.940  87.381  18.428  1.00  0.00     0.277 HD
ATOM     26  H21 UNL     1     -13.022  87.536  17.182  1.00  0.00     0.277 HD
HETATM   27  C18 UNL     1     -16.294  87.412  16.688  1.00  0.00     0.012 C
HETATM   28  C19 UNL     1     -16.426  86.337  17.778  1.00  0.00     0.013 C
HETATM   29  C21 UNL     1     -16.208  86.220  15.725  1.00  0.00     0.013 C
HETATM   30  C20 UNL     1     -15.568  85.462  16.849  1.00  0.00     0.020 C
ENDBRANCH  19  22
ENDBRANCH  18  19
ENDBRANCH  16  18
ENDBRANCH  15  16
ENDBRANCH   8  15
BRANCH   9  31
HETATM   31  C24 UNL     1     -10.034  79.822  15.323  1.00  0.00     0.367 C
HETATM   32  F1  UNL     1     -10.900  79.813  16.357  1.00  0.00    -0.213 F
HETATM   33  F2  UNL     1      -8.833  79.263  15.770  1.00  0.00    -0.213 F
ENDBRANCH   9  31
BRANCH   6  34
HETATM   34  C6  UNL     1      -9.250  84.951  13.285  1.00  0.00     0.015 C
HETATM   35  C7  UNL     1      -8.055  84.713  12.373  1.00  0.00     0.007 C
HETATM   36  C8  UNL     1      -7.492  86.078  12.038  1.00  0.00     0.000 C
HETATM   37  C9  UNL     1      -7.123  86.763  13.311  1.00  0.00     0.000 C
HETATM   38  C10 UNL     1      -7.368  85.964  14.543  1.00  0.00     0.000 C
HETATM   39  C11 UNL     1      -8.750  85.373  14.621  1.00  0.00     0.007 C
ENDBRANCH   6  34
TORSDOF 8
ENDMDL