MODEL 3
REMARK VINA RESULT: -6.957776450      2.328      3.677
REMARK  7 active torsions:
REMARK  status: ('A' for Active; 'I' for Inactive)
REMARK    1  A    between atoms: O1_2  and  C2_3
REMARK    2  A    between atoms: C2_3  and  C3_4
REMARK    3  A    between atoms: C3_4  and  O2_5
REMARK    4  A    between atoms: C5_8  and  O3_9
REMARK    5  A    between atoms: O3_9  and  C6_10
REMARK       I    between atoms: C6_10  and  N1_12
REMARK    6  A    between atoms: C7_15  and  O5_16
REMARK    7  A    between atoms: C19_30  and  O6_31
ROOT
HETATM    1  C3  UNL     1     127.860 103.978 284.884  1.00  0.00     0.084 C
HETATM    2  C4  UNL     1     127.826 104.819 286.092  1.00  0.00     0.075 C
HETATM    3  C5  UNL     1     128.706 106.000 286.206  1.00  0.00     0.165 C
HETATM    4  C7  UNL     1     130.085 105.640 286.701  1.00  0.00     0.148 C
HETATM    5  C8  UNL     1     130.530 104.233 286.403  1.00  0.00     0.042 C
HETATM    6  C9  UNL     1     131.123 104.022 285.066  1.00  0.00     0.024 C
HETATM    7  C10 UNL     1     131.484 105.355 284.481  1.00  0.00     0.014 C
HETATM    8  C11 UNL     1     131.984 104.853 283.148  1.00  0.00     0.016 C
HETATM    9  C12 UNL     1     132.202 105.925 282.162  1.00  0.00     0.019 C
HETATM   10  C13 UNL     1     131.332 107.113 282.516  1.00  0.00     0.028 C
HETATM   11 BR1  UNL     1     134.034 106.597 282.379  1.00  0.00    -0.086 Br
HETATM   12  C14 UNL     1     132.047 105.561 280.731  1.00  0.00     0.021 C
HETATM   13  C15 UNL     1     131.172 104.399 280.452  1.00  0.00     0.002 C
HETATM   14  C16 UNL     1     130.249 104.012 281.589  1.00  0.00     0.012 C
HETATM   15  C17 UNL     1     131.086 103.745 282.794  1.00  0.00    -0.007 C
HETATM   16  C18 UNL     1     132.013 102.583 282.393  1.00  0.00     0.019 C
HETATM   17  C19 UNL     1     130.235 103.355 284.025  1.00  0.00     0.074 C
HETATM   18  C21 UNL     1     128.911 103.993 283.907  1.00  0.00     0.079 C
ENDROOT
BRANCH   3  19
HETATM   19  O3  UNL     1     128.167 106.827 287.246  1.00  0.00    -0.295 OA
BRANCH  19  20
HETATM   20  C6  UNL     1     126.822 106.896 287.470  1.00  0.00     0.375 C
HETATM   21  O4  UNL     1     126.371 106.504 288.558  1.00  0.00    -0.237 OA
HETATM   22  N1  UNL     1     125.950 107.404 286.480  1.00  0.00    -0.244 N
HETATM   23 CL1  UNL     1     124.247 107.471 286.810  1.00  0.00     0.015 Cl
ATOM     24  H1  UNL     1     126.316 107.726 285.584  1.00  0.00     0.185 HD
ENDBRANCH  19  20
ENDBRANCH   3  19
BRANCH   4  25
HETATM   25  O5  UNL     1     130.155 105.782 288.111  1.00  0.00    -0.393 OA
ATOM     26  H5  UNL     1     131.008 106.111 288.366  1.00  0.00     0.210 HD
ENDBRANCH   4  25
BRANCH   1  27
HETATM   27  C2  UNL     1     126.581 104.428 284.090  1.00  0.00     0.205 C
BRANCH  27  28
HETATM   28  O1  UNL     1     125.576 104.637 285.019  1.00  0.00    -0.393 OA
HETATM   29  C1  UNL     1     124.394 104.125 284.545  1.00  0.00     0.201 C
ENDBRANCH  27  28
ENDBRANCH   1  27
BRANCH   1  30
HETATM   30  O2  UNL     1     127.393 102.718 285.333  1.00  0.00    -0.387 OA
ATOM     31  H2  UNL     1     128.169 102.443 285.806  1.00  0.00     0.210 HD
ENDBRANCH   1  30
BRANCH  17  32
HETATM   32  O6  UNL     1     130.298 102.028 284.284  1.00  0.00    -0.384 OA
HETATM   33  C20 UNL     1     130.716 101.491 285.431  1.00  0.00     0.202 C
ENDBRANCH  17  32
TORSDOF 7
ENDMDL