MODEL 2
REMARK VINA RESULT: -7.490795145      3.642      6.687
REMARK  7 active torsions:
REMARK  status: ('A' for Active; 'I' for Inactive)
REMARK    1  A    between atoms: C2_2  and  C4_4
REMARK    2  A    between atoms: C4_4  and  N1_5
REMARK    3  A    between atoms: N1_5  and  S1_7
REMARK    4  A    between atoms: S1_7  and  C5_10
REMARK    5  A    between atoms: C18_26  and  O5_27
REMARK    6  A    between atoms: C19_29  and  O6_30
REMARK    7  A    between atoms: C20_32  and  C22_34
ROOT
HETATM    1  C5  UNL     1     130.477 102.142 284.394  1.00  0.00     0.116 A
HETATM    2  C6  UNL     1     130.925 101.336 285.409  1.00  0.00     0.070 A
HETATM    3  C7  UNL     1     130.258 101.293 286.626  1.00  0.00     0.118 A
HETATM    4  F1  UNL     1     130.704 100.493 287.636  1.00  0.00    -0.206 F
HETATM    5  C8  UNL     1     129.136 102.062 286.826  1.00  0.00     0.053 A
HETATM    6  C9  UNL     1     128.659 102.884 285.825  1.00  0.00    -0.011 A
HETATM    7  C10 UNL     1     129.325 102.924 284.616  1.00  0.00     0.099 A
HETATM    8  O3  UNL     1     128.788 103.768 283.674  1.00  0.00    -0.348 OA
HETATM    9  C11 UNL     1     128.345 105.055 284.084  1.00  0.00     0.182 C
HETATM   10  C12 UNL     1     127.454 105.016 285.303  1.00  0.00     0.035 C
HETATM   11  C13 UNL     1     127.434 103.712 286.007  1.00  0.00    -0.005 C
HETATM   12  C14 UNL     1     126.333 102.765 285.453  1.00  0.00     0.021 C
HETATM   13  C15 UNL     1     127.138 103.771 287.475  1.00  0.00     0.049 C
HETATM   14  C16 UNL     1     126.203 104.867 287.751  1.00  0.00     0.160 C
HETATM   15  O4  UNL     1     125.080 104.965 286.971  1.00  0.00    -0.380 OA
HETATM   16  C17 UNL     1     124.536 106.190 287.433  1.00  0.00     0.203 C
HETATM   17  C18 UNL     1     125.728 107.102 287.658  1.00  0.00     0.179 C
HETATM   18  C19 UNL     1     126.891 106.202 287.448  1.00  0.00     0.120 C
HETATM   19  C20 UNL     1     127.544 106.267 286.115  1.00  0.00     0.015 C
HETATM   20  C21 UNL     1     126.753 107.317 285.287  1.00  0.00     0.020 C
ENDROOT
BRANCH   1  21
HETATM   21  S1  UNL     1     131.189 102.253 282.810  1.00  0.00     0.261 S
HETATM   22  O1  UNL     1     130.535 101.191 281.947  1.00  0.00    -0.200 OA
HETATM   23  O2  UNL     1     132.663 101.884 282.999  1.00  0.00    -0.200 OA
BRANCH  21  24
HETATM   24  N1  UNL     1     131.156 103.778 282.090  1.00  0.00    -0.315 N
ATOM     25  H1  UNL     1     130.415 104.053 281.445  1.00  0.00     0.172 HD
BRANCH  24  26
HETATM   26  C4  UNL     1     132.216 104.653 282.434  1.00  0.00     0.136 C
BRANCH  26  27
HETATM   27  C2  UNL     1     132.188 105.802 281.411  1.00  0.00    -0.004 C
HETATM   28  C1  UNL     1     131.509 106.992 282.059  1.00  0.00     0.011 C
HETATM   29  C3  UNL     1     131.333 105.322 280.261  1.00  0.00     0.011 C
ENDBRANCH  26  27
ENDBRANCH  24  26
ENDBRANCH  21  24
ENDBRANCH   1  21
BRANCH  19  30
HETATM   30  C22 UNL     1     128.867 106.927 286.239  1.00  0.00     0.090 C
HETATM   31  C23 UNL     1     129.463 107.671 285.137  1.00  0.00     0.027 C
HETATM   32 CL1  UNL     1     130.059 105.622 286.649  1.00  0.00    -0.124 Cl
ENDBRANCH  19  30
BRANCH  18  33
HETATM   33  O6  UNL     1     127.805 106.361 288.510  1.00  0.00    -0.384 OA
ATOM     34  H6  UNL     1     128.656 106.292 288.092  1.00  0.00     0.210 HD
ENDBRANCH  18  33
BRANCH  17  35
HETATM   35  O5  UNL     1     125.688 107.472 289.022  1.00  0.00    -0.390 OA
ATOM     36  H5  UNL     1     124.777 107.648 289.221  1.00  0.00     0.210 HD
ENDBRANCH  17  35
TORSDOF 7
ENDMDL