MODEL 3
REMARK VINA RESULT: -6.896473980      3.990      5.523
REMARK  5 active torsions:
REMARK  status: ('A' for Active; 'I' for Inactive)
REMARK    1  A    between atoms: O1_2  and  C2_3
REMARK    2  A    between atoms: C3_4  and  C4_5
REMARK    3  A    between atoms: C13_19  and  C14_20
REMARK    4  A    between atoms: N4_21  and  N5_23
REMARK    5  A    between atoms: N5_23  and  C15_25
ROOT
HETATM    1  C2  UNL     1     131.944 104.667 285.387  1.00  0.00     0.096 A
HETATM    2  C3  UNL     1     131.504 105.217 286.561  1.00  0.00     0.011 A
HETATM    3  C12 UNL     1     132.190 104.889 287.747  1.00  0.00     0.027 A
HETATM    4  C13 UNL     1     133.263 104.042 287.695  1.00  0.00     0.000 A
HETATM    5  C16 UNL     1     133.681 103.506 286.496  1.00  0.00     0.042 A
HETATM    6 BR1  UNL     1     135.183 102.327 286.454  1.00  0.00    -0.049 Br
HETATM    7  C17 UNL     1     133.046 103.794 285.313  1.00  0.00     0.063 A
HETATM    8 BR2  UNL     1     133.625 103.055 283.660  1.00  0.00    -0.047 Br
ENDROOT
BRANCH   2   9
HETATM    9  C4  UNL     1     130.390 106.157 286.716  1.00  0.00     0.101 A
HETATM   10  C5  UNL     1     130.262 106.616 288.173  1.00  0.00     0.051 C
HETATM   11  N1  UNL     1     130.608 107.388 285.962  1.00  0.00    -0.359 N
HETATM   12  C6  UNL     1     129.574 107.717 285.290  1.00  0.00     0.125 A
ATOM     13  H1  UNL     1     131.478 107.919 285.972  1.00  0.00     0.162 HD
HETATM   14  N2  UNL     1     129.465 108.856 284.465  1.00  0.00    -0.082 NA
HETATM   15  C7  UNL     1     128.549 106.702 285.471  1.00  0.00     0.030 A
HETATM   16  C8  UNL     1     127.271 106.517 284.991  1.00  0.00     0.018 A
HETATM   17  C11 UNL     1     129.046 105.706 286.319  1.00  0.00     0.056 A
HETATM   18  C9  UNL     1     126.490 105.429 285.299  1.00  0.00     0.018 A
HETATM   19  C10 UNL     1     127.024 104.473 286.138  1.00  0.00     0.088 A
HETATM   20  N3  UNL     1     128.269 104.644 286.612  1.00  0.00    -0.366 N
ATOM     21  H3  UNL     1     128.650 103.927 287.231  1.00  0.00     0.165 HD
ENDBRANCH   2   9
BRANCH   1  22
HETATM   22  O1  UNL     1     131.350 104.912 284.176  1.00  0.00    -0.354 OA
HETATM   23  C1  UNL     1     130.344 104.154 283.551  1.00  0.00     0.210 C
ENDBRANCH   1  22
BRANCH   4  24
HETATM   24  C14 UNL     1     133.946 103.725 288.945  1.00  0.00     0.120 C
HETATM   25  N4  UNL     1     133.769 104.516 289.947  1.00  0.00    -0.309 N
ATOM     26  H4  UNL     1     133.161 105.325 289.821  1.00  0.00     0.186 HD
BRANCH  25  27
HETATM   27  N5  UNL     1     134.357 104.327 291.182  1.00  0.00    -0.279 N
ATOM     28  H5  UNL     1     135.257 104.760 291.391  1.00  0.00     0.189 HD
BRANCH  27  29
HETATM   29  C15 UNL     1     133.711 103.534 292.155  1.00  0.00     0.199 C
HETATM   30  N6  UNL     1     132.323 103.317 292.071  1.00  0.00    -0.068 NA
HETATM   31  S1  UNL     1     134.545 102.860 293.384  1.00  0.00    -0.043 SA
ENDBRANCH  27  29
ENDBRANCH  25  27
ENDBRANCH   4  24
TORSDOF 5
ENDMDL