MODEL 4
REMARK VINA RESULT: -8.146729727      3.439      4.908
REMARK  7 active torsions:
REMARK  status: ('A' for Active; 'I' for Inactive)
REMARK    1  A    between atoms: C4_4  and  C5_5
REMARK    2  A    between atoms: C6_8  and  N2_9
REMARK    3  A    between atoms: N2_9  and  C7_11
REMARK    4  A    between atoms: C7_11  and  C8_12
REMARK    5  A    between atoms: N4_16  and  O2_17
REMARK    6  A    between atoms: C9_19  and  C10_20
REMARK    7  A    between atoms: C17_31  and  N6_32
ROOT
HETATM    1  C5  UNL     1     132.676 104.447 288.954  1.00  0.00     0.079 A
HETATM    2  N1  UNL     1     131.413 104.905 289.132  1.00  0.00    -0.338 N
ATOM      3  H1  UNL     1     130.948 104.661 290.006  1.00  0.00     0.167 HD
HETATM    4  C6  UNL     1     130.719 105.658 288.251  1.00  0.00     0.123 A
HETATM    5  C14 UNL     1     131.320 106.003 287.065  1.00  0.00     0.056 A
HETATM    6 BR1  UNL     1     130.469 107.067 285.712  1.00  0.00    -0.047 Br
HETATM    7  C15 UNL     1     132.598 105.562 286.840  1.00  0.00     0.044 A
HETATM    8  C16 UNL     1     133.297 104.775 287.785  1.00  0.00     0.041 A
HETATM    9 BR2  UNL     1     135.067 104.242 287.322  1.00  0.00    -0.049 Br
ENDROOT
BRANCH   4  10
HETATM   10  N2  UNL     1     129.536 106.008 288.574  1.00  0.00    -0.349 N
ATOM     11  H2  UNL     1     129.479 106.978 288.885  1.00  0.00     0.167 HD
BRANCH  10  12
HETATM   12  C7  UNL     1     128.301 105.355 288.596  1.00  0.00     0.123 C
BRANCH  12  13
HETATM   13  C8  UNL     1     127.200 106.367 288.644  1.00  0.00     0.100 A
HETATM   14  N3  UNL     1     126.859 107.140 289.652  1.00  0.00    -0.236 N
HETATM   15  O1  UNL     1     125.839 107.894 289.301  1.00  0.00    -0.128 OA
ATOM     16  H3  UNL     1     127.315 107.153 290.565  1.00  0.00     0.197 HD
HETATM   17  N4  UNL     1     125.520 107.603 288.051  1.00  0.00    -0.103 N
HETATM   18  C9  UNL     1     126.342 106.653 287.598  1.00  0.00     0.105 A
BRANCH  17  19
HETATM   19  O2  UNL     1     124.465 108.256 287.412  1.00  0.00    -0.261 OA
ATOM     20  H2  UNL     1     124.488 108.416 286.476  1.00  0.00     0.247 HD
ENDBRANCH  17  19
BRANCH  18  21
HETATM   21  C10 UNL     1     126.348 106.038 286.277  1.00  0.00    -0.002 C
HETATM   22  C11 UNL     1     127.315 104.877 286.163  1.00  0.00     0.021 C
HETATM   23  C12 UNL     1     124.981 105.482 285.968  1.00  0.00     0.021 C
HETATM   24  C13 UNL     1     126.633 107.074 285.179  1.00  0.00     0.021 C
ENDBRANCH  18  21
ENDBRANCH  12  13
ENDBRANCH  10  12
ENDBRANCH   4  10
BRANCH   1  25
HETATM   25  C4  UNL     1     133.277 103.643 290.017  1.00  0.00     0.079 A
HETATM   26  C3  UNL     1     133.193 102.311 290.213  1.00  0.00     0.057 A
HETATM   27  C2  UNL     1     133.848 101.705 291.307  1.00  0.00     0.025 A
HETATM   28  C1  UNL     1     133.751 100.251 291.511  1.00  0.00     0.068 C
HETATM   29  N7  UNL     1     134.564 102.433 292.176  1.00  0.00    -0.196 N
HETATM   30  C17 UNL     1     134.646 103.760 291.978  1.00  0.00     0.676 A
ATOM     31  H7  UNL     1     135.035 101.992 292.965  1.00  0.00     0.184 HD
HETATM   32  N5  UNL     1     134.024 104.323 290.941  1.00  0.00    -0.190 N
ATOM     33  H5  UNL     1     134.111 105.333 290.829  1.00  0.00     0.184 HD
BRANCH  30  34
HETATM   34  N6  UNL     1     135.343 104.451 292.827  1.00  0.00    -0.234 N
ATOM     35  H62 UNL     1     135.491 105.440 292.622  1.00  0.00     0.174 HD
ATOM     36  H61 UNL     1     135.736 104.039 293.672  1.00  0.00     0.174 HD
ENDBRANCH  30  34
ENDBRANCH   1  25
TORSDOF 7
ENDMDL