MODEL 5
REMARK VINA RESULT: -6.863125141      5.123      7.266
REMARK  8 active torsions:
REMARK  status: ('A' for Active; 'I' for Inactive)
REMARK    1  A    between atoms: C5_6  and  C6_7
REMARK    2  A    between atoms: C7_8  and  C8_9
REMARK    3  A    between atoms: C8_9  and  O1_12
REMARK    4  A    between atoms: C14_17  and  C15_18
REMARK    5  A    between atoms: C15_18  and  C17_23
REMARK    6  A    between atoms: N1_19  and  O2_21
REMARK    7  A    between atoms: C22_31  and  O4_32
REMARK    8  A    between atoms: C24_34  and  O5_35
ROOT
HETATM    1  C1  UNL     1     131.376 106.294 280.995  1.00  0.00     0.103 C
HETATM    2  C2  UNL     1     131.615 105.190 281.475  1.00  0.00    -0.145 C
HETATM    3  C3  UNL     1     131.887 103.906 282.004  1.00  0.00     0.053 A
HETATM    4  C4  UNL     1     131.693 102.745 281.306  1.00  0.00     0.153 A
HETATM    5  F1  UNL     1     131.206 102.871 280.028  1.00  0.00    -0.203 F
HETATM    6  C5  UNL     1     131.968 101.504 281.845  1.00  0.00     0.058 A
HETATM    7  C11 UNL     1     132.455 101.429 283.130  1.00  0.00     0.036 A
HETATM    8  C12 UNL     1     132.665 102.609 283.872  1.00  0.00    -0.015 A
HETATM    9  C13 UNL     1     132.382 103.800 283.307  1.00  0.00    -0.011 A
HETATM   10  C14 UNL     1     132.665 104.900 284.262  1.00  0.00     0.115 A
HETATM   11  C18 UNL     1     133.184 104.178 285.459  1.00  0.00     0.004 A
HETATM   12  C19 UNL     1     133.167 102.824 285.217  1.00  0.00    -0.014 A
HETATM   13  C20 UNL     1     133.581 101.864 286.129  1.00  0.00     0.035 A
HETATM   14  C21 UNL     1     134.038 102.276 287.353  1.00  0.00     0.048 A
HETATM   15 BR1  UNL     1     134.609 101.001 288.620  1.00  0.00    -0.048 Br
HETATM   16  C22 UNL     1     134.060 103.626 287.604  1.00  0.00     0.119 A
HETATM   17  C24 UNL     1     133.652 104.585 286.705  1.00  0.00     0.108 A
ENDROOT
BRANCH   6  18
HETATM   18  C6  UNL     1     131.741 100.322 281.057  1.00  0.00    -0.061 C
HETATM   19  C7  UNL     1     131.557  99.318 280.412  1.00  0.00    -0.064 C
BRANCH  19  20
HETATM   20  C8  UNL     1     131.316  98.117 279.630  1.00  0.00     0.114 C
HETATM   21  C9  UNL     1     132.542  97.231 279.737  1.00  0.00     0.060 C
HETATM   22  C10 UNL     1     130.090  97.397 280.173  1.00  0.00     0.060 C
BRANCH  20  23
HETATM   23  O1  UNL     1     131.078  98.494 278.308  1.00  0.00    -0.378 OA
ATOM     24  H1  UNL     1     130.673  97.762 277.856  1.00  0.00     0.211 HD
ENDBRANCH  20  23
ENDBRANCH  19  20
ENDBRANCH   6  18
BRANCH  10  25
HETATM   25  C15 UNL     1     131.430 105.668 284.522  1.00  0.00     0.110 C
HETATM   26  N1  UNL     1     131.496 106.953 284.428  1.00  0.00    -0.265 N
ATOM     27  H1  UNL     1     132.397 107.360 284.180  1.00  0.00     0.194 HD
BRANCH  26  28
HETATM   28  O2  UNL     1     130.461 107.803 284.632  1.00  0.00    -0.285 OA
HETATM   29  C16 UNL     1     130.361 109.093 284.096  1.00  0.00     0.237 C
ENDBRANCH  26  28
BRANCH  25  30
HETATM   30  C17 UNL     1     130.169 105.055 284.793  1.00  0.00     0.280 C
HETATM   31  N2  UNL     1     129.783 104.445 286.002  1.00  0.00    -0.056 NA
HETATM   32  O3  UNL     1     129.233 105.021 283.898  1.00  0.00    -0.270 OA
ENDBRANCH  25  30
ENDBRANCH  10  25
BRANCH  17  33
HETATM   33  O5  UNL     1     133.714 105.935 287.056  1.00  0.00    -0.357 OA
ATOM     34  H5  UNL     1     134.518 106.330 287.372  1.00  0.00     0.217 HD
ENDBRANCH  17  33
BRANCH  16  35
HETATM   35  O4  UNL     1     134.523 104.098 288.850  1.00  0.00    -0.352 OA
HETATM   36  C23 UNL     1     133.668 104.097 289.986  1.00  0.00     0.210 C
ENDBRANCH  16  35
TORSDOF 8
ENDMDL