MODEL 3
REMARK VINA RESULT: -8.250307873      2.800      7.043
REMARK  9 active torsions:
REMARK  status: ('A' for Active; 'I' for Inactive)
REMARK    1  A    between atoms: C4_5  and  O1_6
REMARK    2  A    between atoms: C5_8  and  C22_30
REMARK    3  A    between atoms: C9_12  and  O2_13
REMARK    4  A    between atoms: C11_16  and  C12_17
REMARK    5  A    between atoms: C13_18  and  C14_20
REMARK    6  A    between atoms: C17_23  and  C18_24
REMARK    7  A    between atoms: C18_24  and  O4_26
REMARK    8  A    between atoms: C22_30  and  O5_31
REMARK    9  A    between atoms: C27_37  and  O7_38
ROOT
HETATM    1  C1  UNL     1     133.478 105.572 287.127  1.00  0.00     0.019 C
HETATM    2  C2  UNL     1     133.276 105.085 285.937  1.00  0.00    -0.026 C
HETATM    3  C3  UNL     1     133.737 105.925 284.803  1.00  0.00     0.152 C
HETATM    4 CL1  UNL     1     135.495 105.845 284.573  1.00  0.00    -0.117 Cl
HETATM    5  C4  UNL     1     132.943 105.804 283.599  1.00  0.00     0.127 C
HETATM    6  C5  UNL     1     132.916 104.726 282.661  1.00  0.00     0.089 C
HETATM    7  C6  UNL     1     131.742 105.161 281.830  1.00  0.00    -0.074 C
HETATM    8  C7  UNL     1     131.422 104.874 280.411  1.00  0.00     0.044 C
HETATM    9  C8  UNL     1     130.912 105.934 282.567  1.00  0.00     0.021 C
HETATM   10  C9  UNL     1     131.469 106.073 283.945  1.00  0.00     0.133 C
HETATM   11  C10 UNL     1     130.863 105.127 284.850  1.00  0.00    -0.031 C
HETATM   12  C11 UNL     1     129.759 105.430 285.480  1.00  0.00     0.009 C
HETATM   13  C20 UNL     1     131.368 103.729 285.079  1.00  0.00     0.067 C
HETATM   14  C21 UNL     1     131.448 103.021 283.764  1.00  0.00     0.052 C
HETATM   15  C22 UNL     1     132.736 103.325 283.011  1.00  0.00     0.081 C
HETATM   16  C24 UNL     1     133.804 102.641 283.831  1.00  0.00     0.090 C
HETATM   17  C25 UNL     1     133.630 101.121 283.679  1.00  0.00     0.021 C
HETATM   18  C26 UNL     1     133.684 102.878 285.291  1.00  0.00     0.172 C
HETATM   19  O6  UNL     1     134.471 102.357 286.064  1.00  0.00    -0.294 OA
HETATM   20  C27 UNL     1     132.612 103.750 285.857  1.00  0.00     0.150 C
ENDROOT
BRANCH  10  21
HETATM   21  O2  UNL     1     131.365 107.413 284.343  1.00  0.00    -0.378 OA
ATOM     22  H2  UNL     1     132.024 107.565 285.010  1.00  0.00     0.211 HD
ENDBRANCH  10  21
BRANCH  12  23
HETATM   23  C12 UNL     1     128.972 106.606 285.433  1.00  0.00     0.039 C
HETATM   24  C13 UNL     1     127.660 106.626 285.485  1.00  0.00     0.102 C
HETATM   25  F1  UNL     1     126.940 107.762 285.440  1.00  0.00    -0.210 F
BRANCH  24  26
HETATM   26  C14 UNL     1     126.876 105.362 285.493  1.00  0.00     0.090 A
HETATM   27  C15 UNL     1     126.520 104.969 284.092  1.00  0.00     0.044 A
HETATM   28  C16 UNL     1     125.137 105.076 284.514  1.00  0.00    -0.012 A
HETATM   29  C17 UNL     1     125.456 105.412 285.713  1.00  0.00     0.024 A
BRANCH  29  30
HETATM   30  C18 UNL     1     124.648 105.715 286.927  1.00  0.00     0.289 C
HETATM   31  O3  UNL     1     124.669 104.975 287.929  1.00  0.00    -0.260 OA
BRANCH  30  32
HETATM   32  O4  UNL     1     123.851 106.827 286.962  1.00  0.00    -0.323 OA
HETATM   33  C19 UNL     1     124.268 108.164 286.989  1.00  0.00     0.213 C
ENDBRANCH  30  32
ENDBRANCH  29  30
ENDBRANCH  24  26
ENDBRANCH  12  23
BRANCH   5  34
HETATM   34  O1  UNL     1     133.258 106.974 282.832  1.00  0.00    -0.383 OA
ATOM     35  H1  UNL     1     132.471 107.157 282.333  1.00  0.00     0.210 HD
ENDBRANCH   5  34
BRANCH  20  36
HETATM   36  O7  UNL     1     132.328 103.348 287.165  1.00  0.00    -0.377 OA
ATOM     37  H7  UNL     1     131.535 102.826 287.134  1.00  0.00     0.211 HD
ENDBRANCH  20  36
BRANCH  15  38
HETATM   38  O5  UNL     1     132.655 102.581 281.843  1.00  0.00    -0.383 OA
HETATM   39  C23 UNL     1     131.622 101.734 281.673  1.00  0.00     0.202 C
ENDBRANCH  15  38
TORSDOF 9
ENDMDL