MODEL 2
REMARK VINA RESULT: -7.560063608      3.729      5.906
REMARK  7 active torsions:
REMARK  status: ('A' for Active; 'I' for Inactive)
REMARK    1  A    between atoms: N2_5  and  C4_6
REMARK    2  A    between atoms: C9_11  and  C10_12
REMARK    3  A    between atoms: C11_13  and  C12_14
REMARK    4  A    between atoms: C12_14  and  O1_15
REMARK    5  A    between atoms: N3_17  and  O2_19
REMARK    6  A    between atoms: C13_21  and  O3_22
REMARK    7  A    between atoms: C17_27  and  C18_28
ROOT
HETATM    1  C4  UNL     1     130.530 105.588 285.324  1.00  0.00     0.041 A
HETATM    2  C5  UNL     1     129.220 105.467 284.777  1.00  0.00     0.039 A
HETATM    3  C6  UNL     1     128.145 105.370 285.629  1.00  0.00    -0.026 A
HETATM    4  C7  UNL     1     128.273 105.385 286.987  1.00  0.00    -0.020 A
HETATM    5  C8  UNL     1     129.535 105.500 287.503  1.00  0.00     0.024 A
HETATM    6  C9  UNL     1     130.690 105.602 286.653  1.00  0.00    -0.009 A
HETATM    7  C13 UNL     1     127.088 105.287 287.881  1.00  0.00     0.158 C
HETATM    8  C14 UNL     1     125.951 104.553 287.294  1.00  0.00     0.050 C
HETATM    9  C15 UNL     1     125.657 103.231 288.024  1.00  0.00     0.013 C
HETATM   10  C16 UNL     1     124.802 102.344 287.140  1.00  0.00     0.033 C
HETATM   11  C17 UNL     1     124.044 103.157 286.116  1.00  0.00     0.132 C
HETATM   12  O4  UNL     1     124.824 103.972 285.337  1.00  0.00    -0.378 OA
HETATM   13  C19 UNL     1     126.105 104.147 285.848  1.00  0.00     0.151 C
HETATM   14  C20 UNL     1     126.774 105.237 285.036  1.00  0.00     0.145 C
HETATM   15 CL1  UNL     1     125.871 106.733 285.281  1.00  0.00    -0.117 Cl
ENDROOT
BRANCH   6  16
HETATM   16  C10 UNL     1     131.943 105.608 287.344  1.00  0.00     0.018 C
HETATM   17  C11 UNL     1     132.343 104.902 288.347  1.00  0.00     0.058 C
BRANCH  17  18
HETATM   18  C12 UNL     1     133.735 105.119 288.876  1.00  0.00     0.159 C
HETATM   19  N3  UNL     1     134.094 104.741 290.027  1.00  0.00    -0.248 N
ATOM     20  H3  UNL     1     135.059 104.934 290.292  1.00  0.00     0.196 HD
BRANCH  18  21
HETATM   21  O1  UNL     1     134.613 105.762 288.028  1.00  0.00    -0.345 OA
ATOM     22  H1  UNL     1     135.528 105.751 288.286  1.00  0.00     0.219 HD
ENDBRANCH  18  21
BRANCH  19  23
HETATM   23  O2  UNL     1     133.328 104.105 290.943  1.00  0.00    -0.288 OA
ATOM     24  H2  UNL     1     133.610 103.425 291.543  1.00  0.00     0.244 HD
ENDBRANCH  19  23
ENDBRANCH  17  18
ENDBRANCH   6  16
BRANCH   1  25
HETATM   25  N2  UNL     1     131.543 105.784 284.379  1.00  0.00    -0.377 N
HETATM   26  C3  UNL     1     131.889 107.042 283.741  1.00  0.00     0.153 C
HETATM   27  C2  UNL     1     131.618 106.787 282.245  1.00  0.00     0.291 C
HETATM   28  N1  UNL     1     132.455 105.706 281.767  1.00  0.00     0.087 N
HETATM   29  C1  UNL     1     131.584 104.688 281.217  1.00  0.00     0.310 C
HETATM   30  C22 UNL     1     133.226 105.104 282.831  1.00  0.00     0.291 C
HETATM   31  C21 UNL     1     132.301 104.607 283.916  1.00  0.00     0.153 C
ENDBRANCH   1  25
BRANCH   7  32
HETATM   32  O3  UNL     1     127.479 104.612 289.056  1.00  0.00    -0.390 OA
ATOM     33  H3  UNL     1     126.693 104.339 289.515  1.00  0.00     0.210 HD
ENDBRANCH   7  32
BRANCH  11  34
HETATM   34  C18 UNL     1     123.210 102.284 285.231  1.00  0.00     0.117 C
HETATM   35 BR1  UNL     1     122.814 103.088 283.536  1.00  0.00    -0.094 Br
ENDBRANCH  11  34
TORSDOF 7
ENDMDL