MODEL 5
REMARK VINA RESULT: -8.272257540      3.140      4.061
REMARK  8 active torsions:
REMARK  status: ('A' for Active; 'I' for Inactive)
REMARK    1  A    between atoms: C2_2  and  C3_3
REMARK    2  A    between atoms: C2_2  and  C12_20
REMARK    3  A    between atoms: C3_3  and  C4_4
REMARK    4  A    between atoms: C5_5  and  C6_6
REMARK    5  A    between atoms: N1_8  and  N2_9
REMARK       I    between atoms: N2_9  and  C8_11
REMARK    6  A    between atoms: C8_11  and  C9_13
REMARK    7  A    between atoms: C14_22  and  O4_23
REMARK    8  A    between atoms: C20_30  and  O5_31
ROOT
HETATM    1  C12 UNL     1     130.641 105.291 283.735  1.00  0.00     0.007 C
HETATM    2  C13 UNL     1     130.977 106.083 282.488  1.00  0.00     0.038 C
HETATM    3  C14 UNL     1     132.292 105.884 281.872  1.00  0.00     0.119 C
HETATM    4  C15 UNL     1     133.345 105.604 282.895  1.00  0.00     0.041 C
HETATM    5  C16 UNL     1     133.007 104.620 283.960  1.00  0.00    -0.033 C
HETATM    6  C17 UNL     1     133.911 103.415 283.697  1.00  0.00     0.016 C
HETATM    7  C18 UNL     1     131.576 104.174 284.049  1.00  0.00     0.002 C
HETATM    8  C19 UNL     1     131.204 103.539 285.332  1.00  0.00     0.038 C
HETATM    9  C20 UNL     1     132.076 103.598 286.503  1.00  0.00     0.125 C
HETATM   10  C21 UNL     1     133.380 104.334 286.409  1.00  0.00     0.043 C
HETATM   11  C22 UNL     1     133.658 105.109 287.694  1.00  0.00     0.175 C
HETATM   12  O6  UNL     1     134.584 106.102 287.491  1.00  0.00    -0.391 OA
HETATM   13  C23 UNL     1     135.467 105.827 286.457  1.00  0.00     0.168 C
HETATM   14  C24 UNL     1     134.694 106.027 285.165  1.00  0.00     0.032 C
HETATM   15  C25 UNL     1     133.377 105.294 285.280  1.00  0.00     0.005 C
ENDROOT
BRANCH   1  16
HETATM   16  C2  UNL     1     129.244 105.100 283.756  1.00  0.00     0.057 C
HETATM   17  C1  UNL     1     129.014 106.425 285.020  1.00  0.00     0.023 C
BRANCH  16  18
HETATM   18  C3  UNL     1     128.000 104.929 283.774  1.00  0.00    -0.151 C
BRANCH  18  19
HETATM   19  C4  UNL     1     126.673 104.741 283.788  1.00  0.00     0.049 C
HETATM   20  C5  UNL     1     125.725 104.521 284.667  1.00  0.00     0.015 C
BRANCH  20  21
HETATM   21  C6  UNL     1     125.676 104.380 286.110  1.00  0.00     0.177 C
HETATM   22  C7  UNL     1     125.887 102.984 286.606  1.00  0.00     0.191 C
HETATM   23  N1  UNL     1     125.246 103.026 287.912  1.00  0.00    -0.231 N
HETATM   24  C11 UNL     1     124.254 104.074 287.836  1.00  0.00     0.382 C
HETATM   25  O2  UNL     1     123.463 104.321 288.811  1.00  0.00    -0.236 OA
HETATM   26  O3  UNL     1     124.350 104.669 286.602  1.00  0.00    -0.292 OA
BRANCH  23  27
HETATM   27  N2  UNL     1     125.546 102.238 289.010  1.00  0.00    -0.259 N
HETATM   28  C8  UNL     1     126.684 102.570 289.843  1.00  0.00     0.291 C
HETATM   29  O1  UNL     1     127.346 103.571 289.529  1.00  0.00    -0.267 OA
ATOM     30  H2  UNL     1     124.968 101.427 289.232  1.00  0.00     0.190 HD
BRANCH  28  31
HETATM   31  C9  UNL     1     126.975 101.697 290.999  1.00  0.00     0.256 C
HETATM   32  C10 UNL     1     128.390 101.247 291.085  1.00  0.00     0.081 C
HETATM   33  F1  UNL     1     126.561 102.243 292.205  1.00  0.00    -0.215 F
HETATM   34 CL1  UNL     1     125.965 100.220 290.769  1.00  0.00    -0.073 Cl
ENDBRANCH  28  31
ENDBRANCH  23  27
ENDBRANCH  20  21
ENDBRANCH  18  19
ENDBRANCH  16  18
ENDBRANCH   1  16
BRANCH   3  35
HETATM   35  O4  UNL     1     132.365 105.039 280.776  1.00  0.00    -0.396 OA
ATOM     36  H4  UNL     1     133.044 104.375 280.777  1.00  0.00     0.210 HD
ENDBRANCH   3  35
BRANCH   9  37
HETATM   37  O5  UNL     1     132.291 102.283 287.019  1.00  0.00    -0.395 OA
ATOM     38  H5  UNL     1     131.919 102.211 287.890  1.00  0.00     0.210 HD
ENDBRANCH   9  37
TORSDOF 8
ENDMDL