MODEL 4
REMARK VINA RESULT: -7.095965861      2.129      3.030
REMARK  7 active torsions:
REMARK  status: ('A' for Active; 'I' for Inactive)
REMARK    1  A    between atoms: O1_2  and  C2_3
REMARK    2  A    between atoms: C4_6  and  O2_7
REMARK    3  A    between atoms: C5_9  and  O3_10
REMARK    4  A    between atoms: O3_10  and  C6_11
REMARK    5  A    between atoms: C14_20  and  N1_21
REMARK       I    between atoms: N1_21  and  C15_23
REMARK    6  A    between atoms: C18_27  and  C20_29
REMARK    7  A    between atoms: C20_29  and  O5_30
ROOT
HETATM    1  C2  UNL     1     129.237 107.040 286.509  1.00  0.00     0.096 C
HETATM    2  C3  UNL     1     129.503 106.468 287.665  1.00  0.00     0.052 C
HETATM    3 BR1  UNL     1     127.982 106.013 288.704  1.00  0.00    -0.050 Br
HETATM    4  C4  UNL     1     130.846 106.134 288.275  1.00  0.00     0.190 C
HETATM    5  C5  UNL     1     131.662 105.418 287.293  1.00  0.00     0.158 C
HETATM    6  C17 UNL     1     130.933 105.037 286.017  1.00  0.00     0.049 C
HETATM    7  C18 UNL     1     130.836 106.109 284.993  1.00  0.00     0.017 C
HETATM    8  C19 UNL     1     129.643 105.707 284.095  1.00  0.00     0.021 C
HETATM    9  C21 UNL     1     130.385 107.453 285.580  1.00  0.00     0.238 C
HETATM   10  F1  UNL     1     129.848 108.274 284.630  1.00  0.00    -0.241 F
ENDROOT
BRANCH   5  11
HETATM   11  O3  UNL     1     132.325 104.281 287.689  1.00  0.00    -0.365 OA
BRANCH  11  12
HETATM   12  C6  UNL     1     133.255 103.745 286.882  1.00  0.00     0.207 C
HETATM   13  S1  UNL     1     132.889 101.945 286.770  1.00  0.00    -0.126 SA
HETATM   14  C7  UNL     1     134.027 101.084 285.692  1.00  0.00     0.006 C
HETATM   15  C8  UNL     1     133.318  99.811 285.228  1.00  0.00     0.027 C
HETATM   16  C9  UNL     1     134.316 101.909 284.444  1.00  0.00     0.027 C
HETATM   17  C10 UNL     1     135.316 100.705 286.343  1.00  0.00     0.046 C
HETATM   18  C11 UNL     1     135.291 100.726 287.820  1.00  0.00    -0.029 C
HETATM   19  C12 UNL     1     134.974 101.640 288.742  1.00  0.00    -0.028 C
HETATM   20  C13 UNL     1     134.508 103.030 288.831  1.00  0.00     0.055 C
HETATM   21  C14 UNL     1     134.611 103.797 287.534  1.00  0.00     0.127 C
BRANCH  21  22
HETATM   22  N1  UNL     1     135.004 105.159 287.721  1.00  0.00    -0.353 N
HETATM   23  C15 UNL     1     135.656 105.918 286.710  1.00  0.00     0.214 C
HETATM   24  C16 UNL     1     136.047 107.328 286.947  1.00  0.00     0.117 C
HETATM   25  O4  UNL     1     135.884 105.344 285.614  1.00  0.00    -0.274 OA
ATOM     26  H1  UNL     1     134.809 105.605 288.618  1.00  0.00     0.163 HD
ENDBRANCH  21  22
ENDBRANCH  11  12
ENDBRANCH   5  11
BRANCH   4  27
HETATM   27  O2  UNL     1     131.396 107.404 288.589  1.00  0.00    -0.388 OA
ATOM     28  H2  UNL     1     130.859 107.708 289.311  1.00  0.00     0.210 HD
ENDBRANCH   4  27
BRANCH   7  29
HETATM   29  C20 UNL     1     131.996 106.238 284.067  1.00  0.00     0.176 C
BRANCH  29  30
HETATM   30  O5  UNL     1     133.200 106.568 284.654  1.00  0.00    -0.400 OA
ATOM     31  H5  UNL     1     133.969 106.156 284.279  1.00  0.00     0.209 HD
ENDBRANCH  29  30
ENDBRANCH   7  29
BRANCH   1  32
HETATM   32  O1  UNL     1     128.009 107.280 286.098  1.00  0.00    -0.356 OA
HETATM   33  C1  UNL     1     126.986 106.787 285.377  1.00  0.00     0.209 C
ENDBRANCH   1  32
TORSDOF 7
ENDMDL