MODEL 3
REMARK VINA RESULT: -7.458917073      3.082      5.871
REMARK  11 active torsions:
REMARK  status: ('A' for Active; 'I' for Inactive)
REMARK    1  A    between atoms: C2_5  and  O2_6
REMARK    2  A    between atoms: C3_8  and  N2_9
REMARK    3  A    between atoms: N3_12  and  N4_13
REMARK    4  A    between atoms: N4_13  and  N5_15
REMARK    5  A    between atoms: N5_15  and  C4_17
REMARK    6  A    between atoms: C5_18  and  S1_19
REMARK    7  A    between atoms: C7_30  and  N9_31
REMARK    8  A    between atoms: N9_31  and  O8_33
REMARK    9  A    between atoms: O8_33  and  C8_34
REMARK   10  A    between atoms: C8_34  and  C9_35
REMARK   11  A    between atoms: C9_35  and  O9_36
ROOT
HETATM    1  C4  UNL     1     -31.302   5.637 -24.981  1.00  0.00     0.121 A
HETATM    2  C5  UNL     1     -31.066   4.299 -24.752  1.00  0.00     0.182 A
HETATM    3  N6  UNL     1     -30.366   3.858 -25.812  1.00  0.00    -0.326 N
ATOM      4  H6  UNL     1     -30.040   2.899 -25.931  1.00  0.00     0.168 HD
HETATM    5  C6  UNL     1     -30.150   4.857 -26.700  1.00  0.00     0.151 A
HETATM    6  N7  UNL     1     -29.519   4.908 -27.875  1.00  0.00    -0.269 N
ATOM      7  H7  UNL     1     -29.083   4.068 -28.255  1.00  0.00     0.189 HD
HETATM    8  N8  UNL     1     -29.457   6.044 -28.548  1.00  0.00    -0.129 N
ATOM      9  H8  UNL     1     -28.968   6.053 -29.444  1.00  0.00     0.205 HD
HETATM   10  C7  UNL     1     -30.007   7.188 -28.109  1.00  0.00     0.717 A
HETATM   11  N10 UNL     1     -30.644   7.119 -26.912  1.00  0.00    -0.183 N
ATOM     12  H10 UNL     1     -31.074   7.969 -26.545  1.00  0.00     0.184 HD
HETATM   13  C10 UNL     1     -30.738   5.999 -26.189  1.00  0.00     0.126 A
ENDROOT
BRANCH   1  14
HETATM   14  N5  UNL     1     -32.010   6.483 -24.105  1.00  0.00    -0.281 N
ATOM     15  H5  UNL     1     -31.470   6.961 -23.384  1.00  0.00     0.188 HD
BRANCH  14  16
HETATM   16  N4  UNL     1     -33.252   6.703 -24.133  1.00  0.00    -0.229 N
ATOM     17  H4  UNL     1     -33.912   5.967 -23.882  1.00  0.00     0.209 HD
BRANCH  16  18
HETATM   18  N3  UNL     1     -33.713   7.967 -24.514  1.00  0.00    -0.164 N
HETATM   19  C1  UNL     1     -33.855   8.472 -25.751  1.00  0.00     0.350 A
HETATM   20  O1  UNL     1     -33.582   7.855 -26.824  1.00  0.00    -0.244 OA
HETATM   21  N1  UNL     1     -34.335   9.744 -25.695  1.00  0.00    -0.284 N
HETATM   22  C2  UNL     1     -34.504  10.063 -24.395  1.00  0.00     0.198 A
ATOM     23  H1  UNL     1     -34.531  10.348 -26.493  1.00  0.00     0.172 HD
HETATM   24  C3  UNL     1     -34.113   8.947 -23.677  1.00  0.00     0.251 A
BRANCH  22  25
HETATM   25  O2  UNL     1     -34.980  11.275 -23.870  1.00  0.00    -0.343 OA
ATOM     26  H2  UNL     1     -35.797  11.713 -24.077  1.00  0.00     0.219 HD
ENDBRANCH  22  25
BRANCH  24  27
HETATM   27  N2  UNL     1     -34.127   8.839 -22.260  1.00  0.00    -0.091 N
HETATM   28  O3  UNL     1     -35.033   9.401 -21.581  1.00  0.00    -0.530 OA
HETATM   29  O4  UNL     1     -33.175   8.132 -21.591  1.00  0.00    -0.530 OA
ENDBRANCH  24  27
ENDBRANCH  16  18
ENDBRANCH  14  16
ENDBRANCH   1  14
BRANCH   2  30
HETATM   30  S1  UNL     1     -31.563   3.333 -23.368  1.00  0.00     0.157 S
HETATM   31  O5  UNL     1     -30.392   3.072 -22.463  1.00  0.00    -0.590 OA
HETATM   32  O6  UNL     1     -32.574   4.114 -22.537  1.00  0.00    -0.590 OA
HETATM   33  O7  UNL     1     -32.267   1.926 -23.893  1.00  0.00    -0.590 OA
ENDBRANCH   2  30
BRANCH  10  34
HETATM   34  N9  UNL     1     -29.952   8.286 -28.771  1.00  0.00    -0.095 N
ATOM     35  H9  UNL     1     -29.252   8.958 -28.455  1.00  0.00     0.213 HD
BRANCH  34  36
HETATM   36  O8  UNL     1     -30.689   8.667 -29.821  1.00  0.00    -0.264 OA
BRANCH  36  37
HETATM   37  C8  UNL     1     -32.030   8.337 -30.016  1.00  0.00     0.227 C
BRANCH  37  38
HETATM   38  C9  UNL     1     -32.846   9.571 -29.638  1.00  0.00     0.192 C
BRANCH  38  39
HETATM   39  O9  UNL     1     -32.427  10.080 -28.421  1.00  0.00    -0.399 OA
ATOM     40  H9  UNL     1     -32.632  11.005 -28.356  1.00  0.00     0.209 HD
ENDBRANCH  38  39
ENDBRANCH  37  38
ENDBRANCH  36  37
ENDBRANCH  34  36
ENDBRANCH  10  34
TORSDOF 11
ENDMDL