MODEL 1
REMARK VINA RESULT: -8.913105438      0.000      0.000
REMARK  9 active torsions:
REMARK  status: ('A' for Active; 'I' for Inactive)
REMARK    1  A    between atoms: N1_1  and  C1_4
REMARK    2  A    between atoms: C3_8  and  C4_9
REMARK    3  A    between atoms: N3_10  and  N4_12
REMARK    4  A    between atoms: N4_12  and  N5_14
REMARK    5  A    between atoms: N5_14  and  C5_16
REMARK    6  A    between atoms: C8_19  and  N6_20
REMARK    7  A    between atoms: C9_23  and  S1_24
REMARK    8  A    between atoms: S1_24  and  N7_27
REMARK    9  A    between atoms: C11_35  and  O5_36
ROOT
HETATM    1  C5  UNL     1     -29.704   5.028 -27.896  1.00  0.00     0.084 A
HETATM    2  C6  UNL     1     -29.883   3.981 -27.012  1.00  0.00     0.036 A
HETATM    3  C7  UNL     1     -30.518   4.125 -25.812  1.00  0.00     0.040 A
HETATM    4  C8  UNL     1     -31.022   5.410 -25.444  1.00  0.00     0.129 A
HETATM    5  C9  UNL     1     -30.861   6.453 -26.291  1.00  0.00     0.149 A
HETATM    6  C11 UNL     1     -30.196   6.253 -27.525  1.00  0.00     0.119 A
ENDROOT
BRANCH   1   7
HETATM    7  N5  UNL     1     -29.040   4.778 -29.125  1.00  0.00    -0.284 N
ATOM      8  H5  UNL     1     -28.051   4.534 -29.095  1.00  0.00     0.188 HD
BRANCH   7   9
HETATM    9  N4  UNL     1     -29.660   4.847 -30.367  1.00  0.00    -0.243 N
ATOM     10  H4  UNL     1     -30.667   4.725 -30.465  1.00  0.00     0.208 HD
BRANCH   9  11
HETATM   11  N3  UNL     1     -28.854   5.088 -31.464  1.00  0.00    -0.297 N
HETATM   12  C4  UNL     1     -28.780   4.316 -32.479  1.00  0.00     0.127 C
ATOM     13  H3  UNL     1     -28.284   5.934 -31.462  1.00  0.00     0.187 HD
BRANCH  12  14
HETATM   14  C3  UNL     1     -27.902   4.638 -33.612  1.00  0.00     0.065 A
HETATM   15  C2  UNL     1     -28.359   4.545 -34.887  1.00  0.00     0.124 A
HETATM   16  N2  UNL     1     -27.571   4.846 -35.943  1.00  0.00    -0.201 N
HETATM   17  C1  UNL     1     -26.307   5.247 -35.718  1.00  0.00     0.678 A
ATOM     18  H2  UNL     1     -27.930   4.771 -36.895  1.00  0.00     0.183 HD
HETATM   19  N11 UNL     1     -25.850   5.340 -34.462  1.00  0.00    -0.156 N
HETATM   20  C12 UNL     1     -26.613   5.045 -33.384  1.00  0.00     0.272 A
ATOM     21  H11 UNL     1     -24.888   5.645 -34.312  1.00  0.00     0.187 HD
HETATM   22  O6  UNL     1     -26.144   5.146 -32.216  1.00  0.00    -0.267 OA
BRANCH  17  23
HETATM   23  N1  UNL     1     -25.561   5.538 -36.745  1.00  0.00    -0.234 N
ATOM     24  H12 UNL     1     -25.936   6.011 -37.567  1.00  0.00     0.174 HD
ATOM     25  H11 UNL     1     -24.575   5.277 -36.715  1.00  0.00     0.174 HD
ENDBRANCH  17  23
ENDBRANCH  12  14
ENDBRANCH   9  11
ENDBRANCH   7   9
ENDBRANCH   1   7
BRANCH   6  26
HETATM   26  O5  UNL     1     -30.047   7.328 -28.362  1.00  0.00    -0.357 OA
ATOM     27  H5  UNL     1     -30.383   8.178 -28.103  1.00  0.00     0.218 HD
ENDBRANCH   6  26
BRANCH   5  28
HETATM   28  S1  UNL     1     -31.442   8.052 -25.939  1.00  0.00     0.289 S
HETATM   29  O3  UNL     1     -30.342   9.024 -25.734  1.00  0.00    -0.198 OA
HETATM   30  O4  UNL     1     -32.096   8.521 -27.273  1.00  0.00    -0.198 OA
BRANCH  28  31
HETATM   31  N7  UNL     1     -32.657   8.094 -24.732  1.00  0.00    -0.155 N
HETATM   32  C10 UNL     1     -34.005   8.034 -24.966  1.00  0.00     0.239 A
HETATM   33  N8  UNL     1     -34.685   8.092 -23.810  1.00  0.00    -0.278 N
HETATM   34  N9  UNL     1     -33.759   8.188 -22.857  1.00  0.00    -0.226 N
ATOM     35  H8  UNL     1     -35.697   8.068 -23.687  1.00  0.00     0.189 HD
HETATM   36  N10 UNL     1     -32.584   8.187 -23.425  1.00  0.00    -0.211 N
ATOM     37  H9  UNL     1     -33.938   8.252 -21.855  1.00  0.00     0.210 HD
ATOM     38  H10 UNL     1     -31.706   8.252 -22.910  1.00  0.00     0.211 HD
ENDBRANCH  28  31
ENDBRANCH   5  28
BRANCH   4  39
HETATM   39  N6  UNL     1     -31.634   5.493 -24.190  1.00  0.00    -0.114 N
HETATM   40  O1  UNL     1     -32.776   5.213 -23.885  1.00  0.00    -0.532 OA
HETATM   41  O2  UNL     1     -30.825   5.913 -23.120  1.00  0.00    -0.532 OA
ENDBRANCH   4  39
TORSDOF 9
ENDMDL