MODEL 1
REMARK VINA RESULT: -9.046691953      0.000      0.000
REMARK  12 active torsions:
REMARK  status: ('A' for Active; 'I' for Inactive)
REMARK    1  A    between atoms: N1_1  and  C1_4
REMARK    2  A    between atoms: N4_9  and  C2_10
REMARK    3  A    between atoms: C2_10  and  C3_16
REMARK    4  A    between atoms: N5_11  and  N6_13
REMARK    5  A    between atoms: C3_16  and  N7_17
REMARK    6  A    between atoms: C3_16  and  C9_30
REMARK    7  A    between atoms: N7_17  and  N8_19
REMARK    8  A    between atoms: C4_21  and  C5_22
REMARK    9  A    between atoms: C8_25  and  N9_26
REMARK   10  A    between atoms: N10_32  and  O4_33
REMARK   11  A    between atoms: C11_37  and  N12_38
REMARK   12  A    between atoms: C12_41  and  N13_42
ROOT
HETATM    1  C3  UNL     1     -30.551   6.162 -26.697  1.00  0.00     0.209 C
ENDROOT
BRANCH   1   2
HETATM    2  C2  UNL     1     -30.315   7.621 -26.880  1.00  0.00     0.166 C
HETATM    3  N5  UNL     1     -29.242   8.175 -26.428  1.00  0.00    -0.291 N
ATOM      4  H5  UNL     1     -28.554   7.598 -25.943  1.00  0.00     0.188 HD
BRANCH   2   5
HETATM    5  N4  UNL     1     -31.257   8.442 -27.552  1.00  0.00    -0.055 N
HETATM    6  N3  UNL     1     -32.231   8.998 -26.854  1.00  0.00    -0.206 N
HETATM    7  N2  UNL     1     -33.154   9.783 -27.424  1.00  0.00    -0.116 N
ATOM      8  H3  UNL     1     -32.282   8.823 -25.851  1.00  0.00     0.210 HD
HETATM    9  C1  UNL     1     -33.127  10.041 -28.745  1.00  0.00     0.706 A
ATOM     10  H2  UNL     1     -33.889  10.192 -26.848  1.00  0.00     0.207 HD
HETATM   11  N14 UNL     1     -32.150   9.490 -29.471  1.00  0.00    -0.020 N
HETATM   12  C12 UNL     1     -31.219   8.694 -28.878  1.00  0.00     0.714 A
ATOM     13  H14 UNL     1     -32.102   9.667 -30.474  1.00  0.00     0.203 HD
BRANCH   9  14
HETATM   14  N1  UNL     1     -34.045  10.807 -29.238  1.00  0.00    -0.233 N
ATOM     15  H12 UNL     1     -35.043  10.603 -29.183  1.00  0.00     0.174 HD
ATOM     16  H11 UNL     1     -33.757  11.664 -29.711  1.00  0.00     0.174 HD
ENDBRANCH   9  14
BRANCH  12  17
HETATM   17  N13 UNL     1     -30.268   8.149 -29.550  1.00  0.00    -0.232 N
ATOM     18 2H13 UNL     1     -29.336   8.024 -29.157  1.00  0.00     0.174 HD
ATOM     19 1H13 UNL     1     -30.484   7.845 -30.500  1.00  0.00     0.174 HD
ENDBRANCH  12  17
ENDBRANCH   2   5
BRANCH   3  20
HETATM   20  N6  UNL     1     -28.993   9.536 -26.582  1.00  0.00    -0.344 N
ATOM     21  H62 UNL     1     -28.603   9.854 -27.470  1.00  0.00     0.176 HD
ATOM     22  H61 UNL     1     -29.189  10.209 -25.841  1.00  0.00     0.176 HD
ENDBRANCH   3  20
ENDBRANCH   1   2
BRANCH   1  23
HETATM   23  N7  UNL     1     -29.339   5.403 -26.981  1.00  0.00    -0.320 N
ATOM     24  H7  UNL     1     -28.846   4.959 -26.207  1.00  0.00     0.181 HD
BRANCH  23  25
HETATM   25  N8  UNL     1     -28.831   5.264 -28.258  1.00  0.00    -0.312 N
HETATM   26  C4  UNL     1     -29.474   4.925 -29.288  1.00  0.00     0.144 C
ATOM     27  H8  UNL     1     -27.837   5.454 -28.379  1.00  0.00     0.185 HD
BRANCH  26  28
HETATM   28  C5  UNL     1     -28.792   4.820 -30.579  1.00  0.00     0.095 A
HETATM   29  C6  UNL     1     -27.435   5.038 -30.776  1.00  0.00     0.043 A
HETATM   30  C7  UNL     1     -27.200   4.841 -32.111  1.00  0.00     0.065 A
HETATM   31  C8  UNL     1     -28.403   4.512 -32.684  1.00  0.00     0.215 A
HETATM   32  O3  UNL     1     -29.293   4.517 -31.737  1.00  0.00    -0.287 OA
BRANCH  31  33
HETATM   33  N9  UNL     1     -28.627   4.219 -34.076  1.00  0.00    -0.090 N
HETATM   34  O1  UNL     1     -29.465   3.377 -34.383  1.00  0.00    -0.530 OA
HETATM   35  O2  UNL     1     -27.901   4.886 -35.016  1.00  0.00    -0.530 OA
ENDBRANCH  31  33
ENDBRANCH  26  28
ENDBRANCH  23  25
ENDBRANCH   1  23
BRANCH   1  36
HETATM   36  C9  UNL     1     -31.078   5.849 -25.366  1.00  0.00     0.044 A
HETATM   37  C10 UNL     1     -31.317   6.802 -24.368  1.00  0.00     0.157 A
HETATM   38  N10 UNL     1     -31.805   6.180 -23.281  1.00  0.00    -0.173 N
HETATM   39  N11 UNL     1     -31.877   4.900 -23.565  1.00  0.00    -0.254 N
HETATM   40  C11 UNL     1     -31.441   4.657 -24.834  1.00  0.00     0.200 A
ATOM     41  H11 UNL     1     -32.213   4.183 -22.921  1.00  0.00     0.191 HD
BRANCH  38  42
HETATM   42  O4  UNL     1     -32.153   6.814 -22.101  1.00  0.00    -0.268 OA
ATOM     43  H4  UNL     1     -31.579   7.389 -21.607  1.00  0.00     0.247 HD
ENDBRANCH  38  42
BRANCH  40  44
HETATM   44  N12 UNL     1     -31.396   3.363 -25.418  1.00  0.00    -0.096 N
HETATM   45  O5  UNL     1     -32.173   2.457 -24.984  1.00  0.00    -0.530 OA
HETATM   46  O6  UNL     1     -30.578   2.983 -26.430  1.00  0.00    -0.530 OA
ENDBRANCH  40  44
ENDBRANCH   1  36
TORSDOF 12
ENDMDL