MODEL 2
REMARK VINA RESULT: -6.840068348      2.334      4.174
REMARK  8 active torsions:
REMARK  status: ('A' for Active; 'I' for Inactive)
REMARK    1  A    between atoms: C2_2  and  C3_3
REMARK    2  A    between atoms: C3_3  and  N1_4
REMARK    3  A    between atoms: N1_4  and  C4_6
REMARK    4  A    between atoms: C5_9  and  N3_10
REMARK    5  A    between atoms: N3_10  and  N4_12
REMARK    6  A    between atoms: N4_12  and  N5_14
REMARK    7  A    between atoms: N7_26  and  C13_27
REMARK    8  A    between atoms: C13_27  and  O2_28
ROOT
HETATM    1  C4  UNL     1     -31.461   6.222 -27.891  1.00  0.00     0.155 C
HETATM    2  N2  UNL     1     -30.948   5.568 -26.762  1.00  0.00    -0.323 N
ATOM      3  H2  UNL     1     -30.495   4.661 -26.875  1.00  0.00     0.169 HD
HETATM    4  C5  UNL     1     -31.046   6.145 -25.444  1.00  0.00     0.150 C
HETATM    5  C6  UNL     1     -31.055   7.470 -25.147  1.00  0.00     0.081 C
HETATM    6  C7  UNL     1     -30.431   8.469 -26.011  1.00  0.00     0.053 C
HETATM    7  C8  UNL     1     -31.464   8.540 -26.975  1.00  0.00     0.064 C
HETATM    8  C9  UNL     1     -31.654   7.653 -28.023  1.00  0.00     0.229 C
HETATM    9  O1  UNL     1     -32.032   8.236 -29.118  1.00  0.00    -0.283 OA
HETATM   10  C10 UNL     1     -32.705   9.280 -26.851  1.00  0.00     0.121 C
HETATM   11  N6  UNL     1     -33.248   9.811 -27.975  1.00  0.00    -0.339 N
HETATM   12  C11 UNL     1     -32.717  10.967 -28.662  1.00  0.00     0.157 C
HETATM   13  C12 UNL     1     -33.963  11.756 -29.048  1.00  0.00     0.297 C
HETATM   14  N7  UNL     1     -34.724  10.655 -29.564  1.00  0.00     0.130 N
HETATM   15  C14 UNL     1     -34.512   9.586 -28.634  1.00  0.00     0.402 C
HETATM   16  N8  UNL     1     -33.409   9.357 -25.656  1.00  0.00    -0.325 N
ATOM     17  H8  UNL     1     -34.269   9.907 -25.659  1.00  0.00     0.169 HD
HETATM   18  C15 UNL     1     -33.036   8.729 -24.411  1.00  0.00     0.154 C
HETATM   19  C16 UNL     1     -33.864   9.002 -23.280  1.00  0.00     0.176 A
HETATM   20  N9  UNL     1     -33.959   8.359 -22.105  1.00  0.00    -0.267 N
ATOM     21  H9  UNL     1     -33.425   7.534 -21.830  1.00  0.00     0.185 HD
HETATM   22  N10 UNL     1     -34.879   8.987 -21.355  1.00  0.00    -0.007 NA
HETATM   23  N11 UNL     1     -35.360  10.009 -22.038  1.00  0.00    -0.007 NA
HETATM   24  N12 UNL     1     -34.742  10.016 -23.207  1.00  0.00    -0.267 N
ATOM     25  H12 UNL     1     -34.908  10.695 -23.950  1.00  0.00     0.185 HD
HETATM   26  N13 UNL     1     -31.974   7.868 -24.154  1.00  0.00    -0.336 N
ATOM     27  H13 UNL     1     -31.855   7.510 -23.206  1.00  0.00     0.168 HD
ENDROOT
BRANCH   1  28
HETATM   28  N1  UNL     1     -31.898   5.558 -29.003  1.00  0.00    -0.369 N
ATOM     29  H1  UNL     1     -32.877   5.615 -29.281  1.00  0.00     0.161 HD
BRANCH  28  30
HETATM   30  C3  UNL     1     -30.978   4.783 -29.777  1.00  0.00     0.148 C
BRANCH  30  31
HETATM   31  C2  UNL     1     -29.816   5.505 -30.328  1.00  0.00    -0.018 C
HETATM   32  C1  UNL     1     -28.576   5.084 -30.254  1.00  0.00     0.008 C
ENDBRANCH  30  31
ENDBRANCH  28  30
ENDBRANCH   1  28
BRANCH  14  33
HETATM   33  C13 UNL     1     -34.437  10.271 -30.902  1.00  0.00     0.439 C
BRANCH  33  34
HETATM   34  O2  UNL     1     -34.286   8.898 -31.064  1.00  0.00    -0.373 OA
ATOM     35  H2  UNL     1     -33.468   8.654 -31.482  1.00  0.00     0.211 HD
ENDBRANCH  33  34
ENDBRANCH  14  33
BRANCH   4  36
HETATM   36  N3  UNL     1     -31.209   5.411 -24.435  1.00  0.00    -0.269 N
ATOM     37  H3  UNL     1     -30.976   5.816 -23.529  1.00  0.00     0.190 HD
BRANCH  36  38
HETATM   38  N4  UNL     1     -31.668   4.124 -24.435  1.00  0.00    -0.248 N
ATOM     39  H4  UNL     1     -32.304   3.809 -25.168  1.00  0.00     0.207 HD
BRANCH  38  40
HETATM   40  N5  UNL     1     -31.261   3.228 -23.420  1.00  0.00    -0.331 N
ATOM     41  H52 UNL     1     -30.659   2.442 -23.666  1.00  0.00     0.178 HD
ATOM     42  H51 UNL     1     -31.568   3.372 -22.459  1.00  0.00     0.178 HD
ENDBRANCH  38  40
ENDBRANCH  36  38
ENDBRANCH   4  36
TORSDOF 8
ENDMDL