MODEL 3
REMARK VINA RESULT: -7.152122299      5.485      9.195
REMARK  10 active torsions:
REMARK  status: ('A' for Active; 'I' for Inactive)
REMARK    1  A    between atoms: C2_9  and  S1_10
REMARK    2  A    between atoms: S1_10  and  C3_11
REMARK    3  A    between atoms: C7_22  and  N8_23
REMARK    4  A    between atoms: C11_34  and  N10_35
REMARK    5  A    between atoms: N10_35  and  C12_36
REMARK    6  A    between atoms: N10_35  and  C14_40
REMARK    7  A    between atoms: C12_36  and  C13_37
REMARK    8  A    between atoms: C13_37  and  O3_38
REMARK    9  A    between atoms: C14_40  and  C15_41
REMARK   10  A    between atoms: C15_41  and  O4_42
ROOT
HETATM    1  C3  UNL     1     -34.434  10.337 -24.454  1.00  0.00     0.053 C
HETATM    2  C4  UNL     1     -34.034  11.624 -24.655  1.00  0.00     0.069 C
HETATM    3  C5  UNL     1     -34.496  12.698 -23.773  1.00  0.00     0.112 C
HETATM    4  N5  UNL     1     -35.393  12.535 -22.945  1.00  0.00    -0.385 N
ATOM      5  H51 UNL     1     -35.714  13.283 -22.331  1.00  0.00     0.157 HD
ATOM      6  H52 UNL     1     -35.817  11.615 -22.824  1.00  0.00     0.157 HD
HETATM    7  N6  UNL     1     -33.890  14.013 -23.948  1.00  0.00    -0.339 N
ATOM      8  H6  UNL     1     -34.142  14.797 -23.346  1.00  0.00     0.168 HD
HETATM    9  C6  UNL     1     -32.946  14.158 -24.975  1.00  0.00     0.180 C
HETATM   10  N7  UNL     1     -32.634  13.215 -25.790  1.00  0.00    -0.343 N
ATOM     11  H7  UNL     1     -31.916  13.417 -26.485  1.00  0.00     0.163 HD
HETATM   12  C7  UNL     1     -33.204  11.918 -25.804  1.00  0.00     0.294 C
HETATM   13  C8  UNL     1     -32.341  10.840 -26.249  1.00  0.00     0.227 C
HETATM   14  O1  UNL     1     -31.219  11.031 -26.803  1.00  0.00    -0.287 OA
HETATM   15  C9  UNL     1     -32.797   9.453 -26.045  1.00  0.00     0.098 A
HETATM   16  C10 UNL     1     -33.822   9.221 -25.160  1.00  0.00     0.091 A
HETATM   17  N9  UNL     1     -34.000   7.878 -25.144  1.00  0.00    -0.257 N
ATOM     18  H9  UNL     1     -34.688   7.373 -24.584  1.00  0.00     0.195 HD
HETATM   19  O2  UNL     1     -33.161   7.353 -25.946  1.00  0.00    -0.218 OA
HETATM   20  C11 UNL     1     -32.409   8.243 -26.520  1.00  0.00     0.185 A
ENDROOT
BRANCH   1  21
HETATM   21  S1  UNL     1     -35.540  10.011 -23.137  1.00  0.00    -0.048 SA
BRANCH  21  22
HETATM   22  C2  UNL     1     -34.726   9.280 -21.746  1.00  0.00     0.183 A
HETATM   23  N1  UNL     1     -35.043   9.547 -20.435  1.00  0.00    -0.258 N
HETATM   24  C1  UNL     1     -36.016  10.512 -19.998  1.00  0.00     0.181 C
HETATM   25  N2  UNL     1     -34.298   8.782 -19.652  1.00  0.00    -0.224 N
HETATM   26  N3  UNL     1     -33.515   8.034 -20.388  1.00  0.00    -0.226 N
ATOM     27  H2  UNL     1     -34.329   8.778 -18.633  1.00  0.00     0.210 HD
HETATM   28  N4  UNL     1     -33.778   8.340 -21.635  1.00  0.00    -0.263 N
ATOM     29  H3  UNL     1     -32.836   7.349 -20.057  1.00  0.00     0.210 HD
ATOM     30  H4  UNL     1     -33.311   7.910 -22.434  1.00  0.00     0.190 HD
ENDBRANCH  21  22
ENDBRANCH   1  21
BRANCH  12  31
HETATM   31  N8  UNL     1     -34.261  12.079 -26.928  1.00  0.00    -0.040 N
ATOM     32  H83 UNL     1     -34.574  11.208 -27.356  1.00  0.00     0.278 HD
ATOM     33  H82 UNL     1     -35.186  12.369 -26.613  1.00  0.00     0.278 HD
ATOM     34  H81 UNL     1     -33.796  12.729 -27.561  1.00  0.00     0.278 HD
ENDBRANCH  12  31
BRANCH  20  35
HETATM   35  N10 UNL     1     -31.354   8.021 -27.485  1.00  0.00    -0.355 N
BRANCH  35  36
HETATM   36  C12 UNL     1     -30.086   7.506 -27.043  1.00  0.00     0.151 C
BRANCH  36  37
HETATM   37  C13 UNL     1     -29.446   8.194 -25.886  1.00  0.00     0.183 C
BRANCH  37  38
HETATM   38  O3  UNL     1     -28.753   9.320 -26.398  1.00  0.00    -0.399 OA
ATOM     39  H3  UNL     1     -27.824   9.145 -26.304  1.00  0.00     0.209 HD
ENDBRANCH  37  38
ENDBRANCH  36  37
ENDBRANCH  35  36
BRANCH  35  40
HETATM   40  C14 UNL     1     -31.663   8.296 -28.838  1.00  0.00     0.151 C
BRANCH  40  41
HETATM   41  C15 UNL     1     -32.689   7.469 -29.512  1.00  0.00     0.183 C
BRANCH  41  42
HETATM   42  O4  UNL     1     -32.868   6.217 -28.921  1.00  0.00    -0.399 OA
ATOM     43  H4  UNL     1     -32.557   5.498 -29.459  1.00  0.00     0.209 HD
ENDBRANCH  41  42
ENDBRANCH  40  41
ENDBRANCH  35  40
ENDBRANCH  20  35
TORSDOF 10
ENDMDL