MODEL 4
REMARK VINA RESULT: -7.320712933      5.389      8.647
REMARK  10 active torsions:
REMARK  status: ('A' for Active; 'I' for Inactive)
REMARK    1  A    between atoms: N1_1  and  C1_4
REMARK    2  A    between atoms: C2_7  and  N3_8
REMARK    3  A    between atoms: N3_8  and  C3_10
REMARK    4  A    between atoms: C3_10  and  C4_11
REMARK    5  A    between atoms: C4_11  and  S1_12
REMARK    6  A    between atoms: S1_12  and  C5_13
REMARK    7  A    between atoms: C7_25  and  C8_26
REMARK    8  A    between atoms: C11_32  and  C12_33
REMARK    9  A    between atoms: C12_33  and  O2_34
REMARK   10  A    between atoms: C12_33  and  O3_36
ROOT
HETATM    1  C1  UNL     1     -36.153  10.479 -19.904  1.00  0.00     0.679 A
HETATM    2  N2  UNL     1     -36.421  10.785 -21.186  1.00  0.00    -0.175 N
ATOM      3  H2  UNL     1     -37.157  11.458 -21.396  1.00  0.00     0.186 HD
HETATM    4  C2  UNL     1     -35.736  10.216 -22.194  1.00  0.00     0.147 A
HETATM    5  C6  UNL     1     -34.747   9.307 -21.835  1.00  0.00     0.125 A
HETATM    6  N8  UNL     1     -34.029   8.705 -22.831  1.00  0.00    -0.332 N
ATOM      7  H8  UNL     1     -34.220   8.925 -23.808  1.00  0.00     0.168 HD
HETATM    8  C7  UNL     1     -33.070   7.823 -22.512  1.00  0.00     0.173 A
HETATM    9  N10 UNL     1     -32.854   7.566 -21.213  1.00  0.00    -0.280 N
ATOM     10  H10 UNL     1     -32.121   6.894 -20.987  1.00  0.00     0.188 HD
HETATM   11  N11 UNL     1     -33.506   8.106 -20.205  1.00  0.00    -0.281 N
ATOM     12  H11 UNL     1     -33.291   7.863 -19.237  1.00  0.00     0.188 HD
HETATM   13  C13 UNL     1     -34.486   9.007 -20.516  1.00  0.00     0.166 A
HETATM   14  N12 UNL     1     -35.201   9.604 -19.550  1.00  0.00    -0.173 N
ATOM     15  H12 UNL     1     -35.025   9.396 -18.567  1.00  0.00     0.186 HD
ENDROOT
BRANCH   4  16
HETATM   16  N3  UNL     1     -35.947  10.465 -23.438  1.00  0.00    -0.373 N
ATOM     17  H3  UNL     1     -35.199  10.351 -24.122  1.00  0.00     0.161 HD
BRANCH  16  18
HETATM   18  C3  UNL     1     -37.265  10.910 -23.856  1.00  0.00     0.132 C
BRANCH  18  19
HETATM   19  C4  UNL     1     -37.804  10.053 -24.983  1.00  0.00     0.102 C
BRANCH  19  20
HETATM   20  S1  UNL     1     -37.067   8.404 -24.992  1.00  0.00    -0.090 SA
BRANCH  20  21
HETATM   21  C5  UNL     1     -37.875   7.319 -23.839  1.00  0.00     0.176 A
HETATM   22  N4  UNL     1     -38.557   7.676 -22.725  1.00  0.00    -0.263 N
HETATM   23  N5  UNL     1     -39.013   6.592 -22.125  1.00  0.00    -0.226 N
ATOM     24  H4  UNL     1     -38.696   8.632 -22.400  1.00  0.00     0.190 HD
HETATM   25  N6  UNL     1     -38.623   5.560 -22.849  1.00  0.00    -0.226 N
ATOM     26  H5  UNL     1     -39.561   6.559 -21.265  1.00  0.00     0.210 HD
HETATM   27  N7  UNL     1     -37.930   5.980 -23.896  1.00  0.00    -0.263 N
ATOM     28  H6  UNL     1     -38.826   4.584 -22.634  1.00  0.00     0.210 HD
ATOM     29  H7  UNL     1     -37.513   5.392 -24.617  1.00  0.00     0.190 HD
ENDBRANCH  20  21
ENDBRANCH  19  20
ENDBRANCH  18  19
ENDBRANCH  16  18
ENDBRANCH   4  16
BRANCH   1  30
HETATM   30  N1  UNL     1     -36.828  11.043 -18.931  1.00  0.00    -0.234 N
ATOM     31  H12 UNL     1     -37.207  11.972 -19.113  1.00  0.00     0.174 HD
ATOM     32  H11 UNL     1     -36.959  10.557 -18.044  1.00  0.00     0.174 HD
ENDBRANCH   1  30
BRANCH   8  33
HETATM   33  C8  UNL     1     -32.270   7.151 -23.561  1.00  0.00     0.197 A
HETATM   34  N9  UNL     1     -31.728   7.835 -24.576  1.00  0.00    -0.300 N
HETATM   35  C9  UNL     1     -30.992   7.287 -25.561  1.00  0.00     0.249 A
ATOM     36  H9  UNL     1     -31.884   8.843 -24.605  1.00  0.00     0.171 HD
HETATM   37  O1  UNL     1     -30.493   7.928 -26.498  1.00  0.00    -0.268 OA
HETATM   38  C10 UNL     1     -30.790   5.920 -25.506  1.00  0.00     0.112 A
HETATM   39  C11 UNL     1     -31.355   5.238 -24.455  1.00  0.00     0.115 A
HETATM   40  O4  UNL     1     -32.073   5.859 -23.518  1.00  0.00    -0.289 OA
BRANCH  39  41
HETATM   41  C12 UNL     1     -31.142   3.768 -24.390  1.00  0.00     0.312 C
BRANCH  41  42
HETATM   42  O2  UNL     1     -32.352   3.136 -24.706  1.00  0.00    -0.365 OA
ATOM     43  H2  UNL     1     -33.054   3.766 -24.594  1.00  0.00     0.213 HD
ENDBRANCH  41  42
BRANCH  41  44
HETATM   44  O3  UNL     1     -30.824   3.458 -23.074  1.00  0.00    -0.365 OA
ATOM     45  H3  UNL     1     -30.050   2.908 -23.095  1.00  0.00     0.213 HD
ENDBRANCH  41  44
ENDBRANCH  39  41
ENDBRANCH   8  33
TORSDOF 10
ENDMDL