MODEL 1
REMARK VINA RESULT: -8.690787955      0.000      0.000
REMARK  7 active torsions:
REMARK  status: ('A' for Active; 'I' for Inactive)
REMARK    1  A    between atoms: C2_6  and  S1_7
REMARK    2  A    between atoms: S1_7  and  C3_8
REMARK    3  A    between atoms: C3_8  and  C4_9
REMARK    4  A    between atoms: C4_9  and  N4_10
REMARK       I    between atoms: N4_10  and  C5_12
REMARK    5  A    between atoms: C5_12  and  C6_14
REMARK    6  A    between atoms: N10_24  and  C7_25
REMARK    7  A    between atoms: C12_30  and  N11_31
ROOT
HETATM    1  N1  UNL     1     -30.957  10.479 -26.373  1.00  0.00    -0.170 NA
HETATM    2  C1  UNL     1     -30.706   9.432 -26.781  1.00  0.00     0.209 C
HETATM    3  N2  UNL     1     -30.374   8.144 -27.282  1.00  0.00    -0.134 N
HETATM    4  N3  UNL     1     -30.168   7.051 -26.579  1.00  0.00    -0.259 N
ATOM      5  H3  UNL     1     -30.223   6.993 -25.561  1.00  0.00     0.190 HD
HETATM    6  C2  UNL     1     -29.869   5.997 -27.412  1.00  0.00     0.171 A
HETATM    7  N10 UNL     1     -29.903   6.503 -28.641  1.00  0.00    -0.238 N
HETATM    8  C13 UNL     1     -30.215   7.827 -28.577  1.00  0.00     0.364 A
HETATM    9  O4  UNL     1     -30.341   8.628 -29.558  1.00  0.00    -0.243 OA
ENDROOT
BRANCH   6  10
HETATM   10  S1  UNL     1     -29.641   4.360 -26.784  1.00  0.00    -0.090 SA
BRANCH  10  11
HETATM   11  C3  UNL     1     -31.094   3.593 -26.096  1.00  0.00     0.102 C
BRANCH  11  12
HETATM   12  C4  UNL     1     -31.316   3.836 -24.635  1.00  0.00     0.133 C
BRANCH  12  13
HETATM   13  N4  UNL     1     -32.000   5.100 -24.455  1.00  0.00    -0.357 N
HETATM   14  C5  UNL     1     -31.578   6.153 -23.636  1.00  0.00     0.259 C
HETATM   15  O1  UNL     1     -30.550   6.145 -22.949  1.00  0.00    -0.270 OA
ATOM     16  H4  UNL     1     -32.869   5.234 -24.972  1.00  0.00     0.162 HD
BRANCH  14  17
HETATM   17  C6  UNL     1     -32.443   7.393 -23.591  1.00  0.00     0.306 C
HETATM   18  N5  UNL     1     -32.930   7.655 -22.286  1.00  0.00    -0.087 NA
HETATM   19  N6  UNL     1     -33.879   8.635 -22.238  1.00  0.00    -0.228 N
HETATM   20  N7  UNL     1     -34.863   8.604 -23.197  1.00  0.00    -0.217 N
ATOM     21  H6  UNL     1     -33.858   9.360 -21.521  1.00  0.00     0.205 HD
HETATM   22  N8  UNL     1     -34.754   7.631 -24.141  1.00  0.00    -0.230 N
ATOM     23  H7  UNL     1     -35.633   9.274 -23.201  1.00  0.00     0.211 HD
HETATM   24  N9  UNL     1     -33.518   7.206 -24.513  1.00  0.00    -0.290 N
ATOM     25  H8  UNL     1     -35.589   7.225 -24.563  1.00  0.00     0.209 HD
ATOM     26  H9  UNL     1     -33.363   6.769 -25.421  1.00  0.00     0.184 HD
ENDBRANCH  14  17
ENDBRANCH  12  13
ENDBRANCH  11  12
ENDBRANCH  10  11
ENDBRANCH   6  10
BRANCH   7  27
HETATM   27  C7  UNL     1     -29.716   5.808 -29.854  1.00  0.00     0.079 A
HETATM   28  C8  UNL     1     -28.384   5.468 -30.199  1.00  0.00     0.033 A
HETATM   29  C9  UNL     1     -28.145   4.761 -31.354  1.00  0.00     0.002 A
HETATM   30  C10 UNL     1     -29.166   4.372 -32.192  1.00  0.00     0.003 A
HETATM   31  C11 UNL     1     -30.447   4.704 -31.853  1.00  0.00     0.038 A
HETATM   32  C12 UNL     1     -30.730   5.431 -30.673  1.00  0.00     0.130 A
BRANCH  32  33
HETATM   33  N11 UNL     1     -32.089   5.741 -30.431  1.00  0.00    -0.113 N
HETATM   34  O2  UNL     1     -32.659   6.466 -31.313  1.00  0.00    -0.532 OA
HETATM   35  O3  UNL     1     -32.867   5.372 -29.396  1.00  0.00    -0.532 OA
ENDBRANCH  32  33
ENDBRANCH   7  27
TORSDOF 7
ENDMDL