MODEL 1
REMARK VINA RESULT: -7.036870459      0.000      0.000
REMARK  10 active torsions:
REMARK  status: ('A' for Active; 'I' for Inactive)
REMARK    1  A    between atoms: N1_1  and  C1_4
REMARK    2  A    between atoms: N3_10  and  C3_11
REMARK    3  A    between atoms: C3_11  and  N4_12
REMARK    4  A    between atoms: N4_12  and  C4_15
REMARK    5  A    between atoms: N6_17  and  C5_18
REMARK    6  A    between atoms: C5_18  and  C6_19
REMARK    7  A    between atoms: C6_19  and  O3_20
REMARK    8  A    between atoms: N9_27  and  C9_28
REMARK    9  A    between atoms: C12_31  and  O4_32
REMARK   10  A    between atoms: C13_34  and  N10_35
ROOT
HETATM    1  C4  UNL     1     -32.854   8.897 -26.547  1.00  0.00     0.347 C
HETATM    2  N5  UNL     1     -33.259  10.034 -27.382  1.00  0.00    -0.124 NA
HETATM    3  N6  UNL     1     -32.897  11.236 -26.814  1.00  0.00    -0.225 NA
HETATM    4  C7  UNL     1     -31.469  11.450 -26.877  1.00  0.00     0.170 C
HETATM    5  C8  UNL     1     -30.775  10.182 -26.612  1.00  0.00     0.066 A
HETATM    6  N7  UNL     1     -29.434   9.962 -26.479  1.00  0.00    -0.284 N
ATOM      7  H7  UNL     1     -28.700  10.666 -26.543  1.00  0.00     0.184 HD
HETATM    8  N8  UNL     1     -29.261   8.670 -26.251  1.00  0.00    -0.015 NA
HETATM    9  N9  UNL     1     -30.438   8.061 -26.235  1.00  0.00    -0.239 N
HETATM   10  C15 UNL     1     -31.400   8.963 -26.454  1.00  0.00     0.105 A
ENDROOT
BRANCH   1  11
HETATM   11  N4  UNL     1     -33.396   7.700 -27.090  1.00  0.00    -0.033 N
ATOM     12  H42 UNL     1     -34.146   7.323 -26.511  1.00  0.00     0.281 HD
ATOM     13  H41 UNL     1     -32.744   6.919 -27.018  1.00  0.00     0.281 HD
BRANCH  11  14
HETATM   14  C3  UNL     1     -33.823   7.922 -28.450  1.00  0.00     0.388 C
BRANCH  14  15
HETATM   15  N3  UNL     1     -33.065   7.204 -29.421  1.00  0.00    -0.098 N
HETATM   16  C1  UNL     1     -32.019   7.718 -30.092  1.00  0.00     0.704 A
HETATM   17  N2  UNL     1     -31.564   6.763 -30.910  1.00  0.00    -0.086 N
HETATM   18  O1  UNL     1     -32.301   5.708 -30.744  1.00  0.00    -0.165 OA
ATOM     19  H2  UNL     1     -30.775   6.848 -31.551  1.00  0.00     0.214 HD
HETATM   20  C2  UNL     1     -33.213   5.943 -29.855  1.00  0.00     0.405 A
HETATM   21  O2  UNL     1     -34.076   5.108 -29.485  1.00  0.00    -0.235 OA
BRANCH  16  22
HETATM   22  N1  UNL     1     -31.525   8.926 -29.980  1.00  0.00    -0.233 N
ATOM     23  H12 UNL     1     -31.314   9.577 -30.736  1.00  0.00     0.174 HD
ATOM     24  H11 UNL     1     -31.279   9.388 -29.104  1.00  0.00     0.174 HD
ENDBRANCH  16  22
ENDBRANCH  14  15
ENDBRANCH  11  14
ENDBRANCH   1  11
BRANCH   3  25
HETATM   25  C5  UNL     1     -33.486  12.285 -27.652  1.00  0.00     0.136 C
BRANCH  25  26
HETATM   26  C6  UNL     1     -33.993  11.639 -28.924  1.00  0.00     0.180 C
BRANCH  26  27
HETATM   27  O3  UNL     1     -32.988  11.612 -29.881  1.00  0.00    -0.400 OA
ATOM     28  H3  UNL     1     -33.323  11.263 -30.698  1.00  0.00     0.209 HD
ENDBRANCH  26  27
ENDBRANCH  25  26
ENDBRANCH   3  25
BRANCH   9  29
HETATM   29  C9  UNL     1     -30.676   6.680 -26.027  1.00  0.00     0.057 A
HETATM   30  C10 UNL     1     -30.567   5.789 -27.069  1.00  0.00     0.034 A
HETATM   31  C11 UNL     1     -30.789   4.444 -26.915  1.00  0.00     0.041 A
HETATM   32  C12 UNL     1     -31.145   3.890 -25.668  1.00  0.00     0.098 A
HETATM   33  C13 UNL     1     -31.256   4.768 -24.623  1.00  0.00     0.138 A
HETATM   34  C14 UNL     1     -31.023   6.141 -24.813  1.00  0.00     0.070 A
BRANCH  32  35
HETATM   35  O4  UNL     1     -31.355   2.526 -25.593  1.00  0.00    -0.358 OA
ATOM     36  H4  UNL     1     -30.597   1.957 -25.531  1.00  0.00     0.217 HD
ENDBRANCH  32  35
BRANCH  33  37
HETATM   37  N10 UNL     1     -31.612   4.313 -23.336  1.00  0.00    -0.113 N
HETATM   38  O5  UNL     1     -32.334   5.096 -22.643  1.00  0.00    -0.532 OA
HETATM   39  O6  UNL     1     -31.266   3.147 -22.784  1.00  0.00    -0.532 OA
ENDBRANCH  33  37
ENDBRANCH   9  29
TORSDOF 10
ENDMDL