MODEL 4
REMARK VINA RESULT: -8.562315956      2.636     10.656
REMARK  10 active torsions:
REMARK  status: ('A' for Active; 'I' for Inactive)
REMARK    1  A    between atoms: C2_3  and  O1_4
REMARK    2  A    between atoms: C3_6  and  C4_7
REMARK       I    between atoms: C4_7  and  N2_9
REMARK    3  A    between atoms: N2_9  and  N3_10
REMARK    4  A    between atoms: N3_10  and  C5_11
REMARK    5  A    between atoms: C5_11  and  C6_12
REMARK       I    between atoms: C6_12  and  N4_14
REMARK    6  A    between atoms: N4_14  and  N5_16
REMARK    7  A    between atoms: C7_18  and  C8_19
REMARK    8  A    between atoms: C11_24  and  N7_25
REMARK    9  A    between atoms: C13_29  and  N8_30
REMARK   10  A    between atoms: N9_33  and  O7_34
ROOT
HETATM    1  N8  UNL     1     -30.564   7.144 -25.538  1.00  0.00    -0.261 NA
HETATM    2  O6  UNL     1     -29.751   6.756 -26.390  1.00  0.00    -0.217 OA
ATOM      3  H6  UNL     1     -29.077   6.425 -26.971  1.00  0.00     0.261 HD
ENDROOT
BRANCH   1   4
HETATM    4  C13 UNL     1     -31.404   7.557 -24.814  1.00  0.00     0.263 A
HETATM    5  C3  UNL     1     -32.327   8.566 -25.134  1.00  0.00     0.164 A
HETATM    6  C2  UNL     1     -33.255   9.003 -24.230  1.00  0.00     0.168 A
HETATM    7  N1  UNL     1     -33.292   8.461 -23.015  1.00  0.00    -0.281 N
HETATM    8  C1  UNL     1     -34.271   8.902 -22.027  1.00  0.00     0.163 C
HETATM    9  C14 UNL     1     -32.426   7.484 -22.651  1.00  0.00     0.357 A
HETATM   10  N9  UNL     1     -31.534   7.062 -23.515  1.00  0.00    -0.138 N
HETATM   11  O8  UNL     1     -32.527   7.013 -21.467  1.00  0.00    -0.244 OA
BRANCH   5  12
HETATM   12  C4  UNL     1     -32.301   9.165 -26.478  1.00  0.00     0.370 C
HETATM   13  O2  UNL     1     -32.421  10.459 -26.445  1.00  0.00    -0.247 OA
HETATM   14  N2  UNL     1     -32.172   8.487 -27.611  1.00  0.00    -0.204 NA
BRANCH  14  15
HETATM   15  N3  UNL     1     -32.045   7.820 -28.729  1.00  0.00    -0.253 NA
BRANCH  15  16
HETATM   16  C5  UNL     1     -31.841   7.068 -29.610  1.00  0.00     0.300 C
BRANCH  16  17
HETATM   17  C6  UNL     1     -30.758   6.036 -29.622  1.00  0.00     0.291 C
HETATM   18  O3  UNL     1     -31.001   4.824 -29.547  1.00  0.00    -0.264 OA
HETATM   19  N4  UNL     1     -29.415   6.467 -29.723  1.00  0.00    -0.265 N
ATOM     20  H4  UNL     1     -29.215   7.465 -29.789  1.00  0.00     0.190 HD
BRANCH  19  21
HETATM   21  N5  UNL     1     -28.408   5.599 -29.735  1.00  0.00    -0.308 N
HETATM   22  C7  UNL     1     -27.789   4.901 -30.516  1.00  0.00     0.120 C
ATOM     23  H5  UNL     1     -28.038   5.481 -28.792  1.00  0.00     0.186 HD
BRANCH  22  24
HETATM   24  C8  UNL     1     -27.965   4.750 -31.939  1.00  0.00    -0.002 A
HETATM   25  C9  UNL     1     -29.161   4.503 -32.561  1.00  0.00     0.100 A
HETATM   26  N6  UNL     1     -29.274   4.431 -33.920  1.00  0.00    -0.372 N
HETATM   27  C10 UNL     1     -28.220   4.599 -34.705  1.00  0.00     0.123 A
ATOM     28  H6  UNL     1     -30.186   4.246 -34.338  1.00  0.00     0.164 HD
HETATM   29  C11 UNL     1     -27.013   4.843 -34.125  1.00  0.00     0.119 A
HETATM   30  C12 UNL     1     -26.850   4.926 -32.753  1.00  0.00     0.051 A
BRANCH  29  31
HETATM   31  N7  UNL     1     -25.869   5.033 -34.953  1.00  0.00    -0.114 N
HETATM   32  O4  UNL     1     -24.816   4.448 -34.672  1.00  0.00    -0.532 OA
HETATM   33  O5  UNL     1     -25.974   5.858 -36.033  1.00  0.00    -0.532 OA
ENDBRANCH  29  31
ENDBRANCH  22  24
ENDBRANCH  19  21
ENDBRANCH  16  17
ENDBRANCH  15  16
ENDBRANCH  14  15
ENDBRANCH   5  12
BRANCH   6  34
HETATM   34  O1  UNL     1     -34.190  10.008 -24.515  1.00  0.00    -0.345 OA
ATOM     35  H1  UNL     1     -34.559  10.026 -25.390  1.00  0.00     0.219 HD
ENDBRANCH   6  34
BRANCH  10  36
HETATM   36  O7  UNL     1     -30.655   6.074 -23.142  1.00  0.00    -0.276 OA
ATOM     37  H7  UNL     1     -30.654   5.285 -23.671  1.00  0.00     0.245 HD
ENDBRANCH  10  36
ENDBRANCH   1   4
TORSDOF 10
ENDMDL