MODEL 5
REMARK VINA RESULT: -8.179649683      1.798      2.265
REMARK  8 active torsions:
REMARK  status: ('A' for Active; 'I' for Inactive)
REMARK    1  A    between atoms: C2_3  and  O1_4
REMARK    2  A    between atoms: C3_6  and  N2_7
REMARK    3  A    between atoms: C4_10  and  N3_11
REMARK    4  A    between atoms: N3_11  and  N4_13
REMARK    5  A    between atoms: N4_13  and  C5_15
REMARK    6  A    between atoms: C8_18  and  S1_19
REMARK    7  A    between atoms: S1_19  and  N5_22
REMARK       I    between atoms: N5_22  and  C9_24
REMARK    8  A    between atoms: C11_30  and  N8_31
ROOT
HETATM    1  C5  UNL     1     -33.234   8.329 -23.136  1.00  0.00     0.081 A
HETATM    2  C6  UNL     1     -33.789   8.787 -24.323  1.00  0.00     0.035 A
HETATM    3  C7  UNL     1     -34.975   9.525 -24.308  1.00  0.00     0.028 A
HETATM    4  C8  UNL     1     -35.629   9.825 -23.147  1.00  0.00     0.082 A
HETATM    5  C10 UNL     1     -35.072   9.367 -21.973  1.00  0.00     0.063 A
HETATM    6  C11 UNL     1     -33.910   8.643 -21.974  1.00  0.00     0.132 A
ENDROOT
BRANCH   1   7
HETATM    7  N4  UNL     1     -32.028   7.567 -23.106  1.00  0.00    -0.297 N
ATOM      8  H4  UNL     1     -31.167   7.967 -22.734  1.00  0.00     0.187 HD
BRANCH   7   9
HETATM    9  N3  UNL     1     -32.052   6.262 -23.598  1.00  0.00    -0.283 N
ATOM     10  H3  UNL     1     -32.554   5.530 -23.096  1.00  0.00     0.188 HD
BRANCH   9  11
HETATM   11  C4  UNL     1     -31.373   5.969 -24.798  1.00  0.00     0.162 A
HETATM   12  C3  UNL     1     -31.067   4.644 -25.057  1.00  0.00     0.199 A
HETATM   13  C2  UNL     1     -30.406   4.346 -26.228  1.00  0.00     0.183 A
HETATM   14  N1  UNL     1     -30.063   5.305 -27.101  1.00  0.00    -0.282 N
HETATM   15  C1  UNL     1     -29.371   4.912 -28.310  1.00  0.00     0.163 C
HETATM   16  C12 UNL     1     -30.376   6.585 -26.819  1.00  0.00     0.329 A
HETATM   17  N9  UNL     1     -31.019   6.903 -25.683  1.00  0.00    -0.291 N
HETATM   18  O8  UNL     1     -30.058   7.509 -27.634  1.00  0.00    -0.246 OA
ATOM     19  H9  UNL     1     -31.243   7.881 -25.494  1.00  0.00     0.172 HD
BRANCH  12  20
HETATM   20  N2  UNL     1     -31.437   3.649 -24.119  1.00  0.00    -0.107 N
HETATM   21  O2  UNL     1     -30.981   3.734 -22.966  1.00  0.00    -0.531 OA
HETATM   22  O3  UNL     1     -32.268   2.603 -24.414  1.00  0.00    -0.531 OA
ENDBRANCH  12  20
BRANCH  13  23
HETATM   23  O1  UNL     1     -30.107   2.994 -26.469  1.00  0.00    -0.344 OA
ATOM     24  H1  UNL     1     -30.448   2.303 -25.912  1.00  0.00     0.219 HD
ENDBRANCH  13  23
ENDBRANCH   9  11
ENDBRANCH   7   9
ENDBRANCH   1   7
BRANCH   6  25
HETATM   25  N8  UNL     1     -33.377   8.202 -20.738  1.00  0.00    -0.113 N
HETATM   26  O6  UNL     1     -32.703   7.147 -20.736  1.00  0.00    -0.532 OA
HETATM   27  O7  UNL     1     -33.579   8.895 -19.568  1.00  0.00    -0.532 OA
ENDBRANCH   6  25
BRANCH   4  28
HETATM   28  S1  UNL     1     -37.108  10.759 -23.200  1.00  0.00     0.265 S
HETATM   29  O4  UNL     1     -38.242   9.908 -23.669  1.00  0.00    -0.200 OA
HETATM   30  O5  UNL     1     -36.884  11.878 -24.209  1.00  0.00    -0.200 OA
BRANCH  28  31
HETATM   31  N5  UNL     1     -37.494  11.422 -21.658  1.00  0.00    -0.254 N
HETATM   32  C9  UNL     1     -36.829  12.610 -21.253  1.00  0.00     0.195 C
HETATM   33  N6  UNL     1     -37.108  13.760 -21.740  1.00  0.00    -0.373 N
HETATM   34  N7  UNL     1     -35.816  12.499 -20.261  1.00  0.00    -0.063 NA
ATOM     35  H62 UNL     1     -37.836  13.839 -22.451  1.00  0.00     0.158 HD
ATOM     36  H61 UNL     1     -36.631  14.612 -21.449  1.00  0.00     0.158 HD
ATOM     37  H5  UNL     1     -38.181  10.974 -21.052  1.00  0.00     0.181 HD
ENDBRANCH  28  31
ENDBRANCH   4  28
TORSDOF 8
ENDMDL