MODEL 1
REMARK VINA RESULT: -7.197334287      0.000      0.000
REMARK  6 active torsions:
REMARK  status: ('A' for Active; 'I' for Inactive)
REMARK       I    between atoms: N2_4  and  C3_6
REMARK       I    between atoms: C3_6  and  N3_7
REMARK       I    between atoms: C3_6  and  N4_11
REMARK    1  A    between atoms: C7_20  and  N7_21
REMARK    2  A    between atoms: N11_31  and  C12_32
REMARK    3  A    between atoms: C12_32  and  C13_33
REMARK    4  A    between atoms: C13_33  and  S1_34
REMARK    5  A    between atoms: S1_34  and  C14_35
REMARK    6  A    between atoms: C14_35  and  C15_36
ROOT
HETATM    1  C1  UNL     1     -34.798  11.332 -27.816  1.00  0.00     0.179 C
HETATM    2  N1  UNL     1     -33.730  10.442 -27.405  1.00  0.00    -0.277 N
HETATM    3  C2  UNL     1     -32.462  10.809 -27.151  1.00  0.00     0.137 A
HETATM    4  N2  UNL     1     -31.859  11.930 -27.186  1.00  0.00    -0.325 N
ATOM      5  H2  UNL     1     -30.874  11.863 -26.931  1.00  0.00     0.165 HD
HETATM    6  C3  UNL     1     -32.254  13.230 -27.497  1.00  0.00     0.481 C
HETATM    7  N3  UNL     1     -31.168  14.026 -28.100  1.00  0.00    -0.033 N
ATOM      8  H31 UNL     1     -31.457  14.977 -28.328  1.00  0.00     0.278 HD
ATOM      9  H32 UNL     1     -30.779  13.555 -28.918  1.00  0.00     0.278 HD
ATOM     10  H33 UNL     1     -30.340  14.028 -27.504  1.00  0.00     0.278 HD
HETATM   11  N4  UNL     1     -32.654  14.022 -26.330  1.00  0.00    -0.033 N
ATOM     12  H41 UNL     1     -32.943  14.973 -26.558  1.00  0.00     0.278 HD
ATOM     13  H42 UNL     1     -31.912  14.031 -25.630  1.00  0.00     0.278 HD
ATOM     14  H43 UNL     1     -33.382  13.541 -25.802  1.00  0.00     0.278 HD
HETATM   15  C4  UNL     1     -31.755   9.654 -26.788  1.00  0.00     0.081 A
HETATM   16  C5  UNL     1     -30.454   9.426 -26.429  1.00  0.00     0.092 A
HETATM   17  N5  UNL     1     -29.498  10.471 -26.364  1.00  0.00    -0.099 NA
HETATM   18  C6  UNL     1     -30.031   8.133 -26.113  1.00  0.00     0.116 A
HETATM   19  N6  UNL     1     -28.678   7.896 -25.740  1.00  0.00    -0.096 NA
HETATM   20  C7  UNL     1     -30.938   7.122 -26.172  1.00  0.00     0.138 A
HETATM   21  N10 UNL     1     -32.205   7.379 -26.527  1.00  0.00    -0.325 N
ATOM     22  H10 UNL     1     -32.867   6.603 -26.563  1.00  0.00     0.169 HD
HETATM   23  C11 UNL     1     -32.654   8.632 -26.843  1.00  0.00     0.140 A
HETATM   24  N11 UNL     1     -33.847   9.121 -27.218  1.00  0.00    -0.272 N
ENDROOT
BRANCH  24  25
HETATM   25  C12 UNL     1     -35.026   8.332 -27.380  1.00  0.00     0.161 C
BRANCH  25  26
HETATM   26  C13 UNL     1     -36.189   8.763 -26.512  1.00  0.00     0.096 C
BRANCH  26  27
HETATM   27  S1  UNL     1     -35.762   8.245 -24.805  1.00  0.00    -0.160 SA
BRANCH  27  28
HETATM   28  C14 UNL     1     -34.877   9.570 -23.951  1.00  0.00     0.153 C
BRANCH  28  29
HETATM   29  C15 UNL     1     -33.964   8.923 -22.968  1.00  0.00     0.122 A
HETATM   30  N12 UNL     1     -34.170   9.024 -21.633  1.00  0.00    -0.272 N
HETATM   31  N13 UNL     1     -33.211   8.356 -21.013  1.00  0.00    -0.227 N
ATOM     32  H12 UNL     1     -34.933   9.529 -21.183  1.00  0.00     0.190 HD
HETATM   33  N14 UNL     1     -32.440   7.861 -21.949  1.00  0.00    -0.227 N
ATOM     34  H13 UNL     1     -33.094   8.248 -20.005  1.00  0.00     0.210 HD
HETATM   35  N15 UNL     1     -32.872   8.188 -23.158  1.00  0.00    -0.272 N
ATOM     36  H14 UNL     1     -31.610   7.295 -21.769  1.00  0.00     0.210 HD
ATOM     37  H15 UNL     1     -32.453   7.930 -24.051  1.00  0.00     0.190 HD
ENDBRANCH  28  29
ENDBRANCH  27  28
ENDBRANCH  26  27
ENDBRANCH  25  26
ENDBRANCH  24  25
BRANCH  20  38
HETATM   38  N7  UNL     1     -30.580   5.784 -25.865  1.00  0.00    -0.304 N
HETATM   39  C8  UNL     1     -30.035   4.766 -26.739  1.00  0.00     0.153 C
HETATM   40  C9  UNL     1     -30.585   3.500 -26.070  1.00  0.00     0.142 C
HETATM   41  N8  UNL     1     -30.711   3.904 -24.694  1.00  0.00    -0.363 N
HETATM   42  C10 UNL     1     -30.709   5.194 -24.568  1.00  0.00     0.192 C
ATOM     43  H8  UNL     1     -30.792   3.254 -23.913  1.00  0.00     0.162 HD
HETATM   44  N9  UNL     1     -30.816   5.910 -23.352  1.00  0.00    -0.063 NA
ENDBRANCH  20  38
TORSDOF 6
ENDMDL