MODEL 2
REMARK VINA RESULT: -6.903342739      2.434      4.657
REMARK  12 active torsions:
REMARK  status: ('A' for Active; 'I' for Inactive)
REMARK    1  A    between atoms: N1_1  and  C1_4
REMARK    2  A    between atoms: C2_7  and  N3_8
REMARK    3  A    between atoms: N4_10  and  C3_12
REMARK    4  A    between atoms: C3_12  and  O1_13
REMARK    5  A    between atoms: N5_15  and  O2_17
REMARK    6  A    between atoms: N7_25  and  N8_26
REMARK    7  A    between atoms: N9_31  and  C8_32
REMARK    8  A    between atoms: C8_32  and  O5_33
REMARK    9  A    between atoms: O5_33  and  C9_34
REMARK   10  A    between atoms: C9_34  and  C10_35
REMARK   11  A    between atoms: C10_35  and  O6_36
REMARK   12  A    between atoms: O6_36  and  S1_37
ROOT
HETATM    1  C1  UNL     1     -33.994  10.198 -24.654  1.00  0.00     0.134 A
HETATM    2  N2  UNL     1     -33.530   9.980 -25.895  1.00  0.00    -0.174 N
ATOM      3  H2  UNL     1     -33.874  10.562 -26.659  1.00  0.00     0.186 HD
HETATM    4  C2  UNL     1     -32.634   9.029 -26.164  1.00  0.00     0.700 A
HETATM    5  N6  UNL     1     -32.149   8.232 -25.173  1.00  0.00    -0.174 N
ATOM      6  H6  UNL     1     -31.464   7.506 -25.386  1.00  0.00     0.186 HD
HETATM    7  C4  UNL     1     -32.577   8.407 -23.927  1.00  0.00     0.148 A
HETATM    8  C5  UNL     1     -33.509   9.394 -23.643  1.00  0.00     0.123 A
HETATM    9  C6  UNL     1     -33.959   9.585 -22.353  1.00  0.00     0.288 A
HETATM   10  O3  UNL     1     -34.798  10.460 -22.037  1.00  0.00    -0.265 OA
HETATM   11  N7  UNL     1     -33.449   8.775 -21.417  1.00  0.00    -0.174 N
HETATM   12  C7  UNL     1     -32.548   7.825 -21.716  1.00  0.00     0.353 A
HETATM   13  O4  UNL     1     -32.137   7.116 -20.737  1.00  0.00    -0.244 OA
HETATM   14  N9  UNL     1     -32.082   7.606 -22.967  1.00  0.00    -0.260 N
ENDROOT
BRANCH   4  15
HETATM   15  N3  UNL     1     -32.129   8.782 -27.476  1.00  0.00    -0.129 N
HETATM   16  N4  UNL     1     -30.982   9.114 -27.880  1.00  0.00    -0.249 N
ATOM     17  H4  UNL     1     -30.721   8.888 -28.840  1.00  0.00     0.191 HD
ATOM     18  H3  UNL     1     -32.741   8.301 -28.135  1.00  0.00     0.205 HD
BRANCH  16  19
HETATM   19  C3  UNL     1     -30.040   9.784 -27.070  1.00  0.00     0.256 C
HETATM   20  N5  UNL     1     -28.907   9.202 -26.819  1.00  0.00    -0.232 N
ATOM     21  H5  UNL     1     -28.721   8.279 -27.210  1.00  0.00     0.198 HD
BRANCH  19  22
HETATM   22  O1  UNL     1     -30.363  11.039 -26.574  1.00  0.00    -0.330 OA
ATOM     23  H1  UNL     1     -31.115  11.121 -26.000  1.00  0.00     0.221 HD
ENDBRANCH  19  22
BRANCH  20  24
HETATM   24  O2  UNL     1     -27.947   9.809 -26.033  1.00  0.00    -0.287 OA
ATOM     25  H2  UNL     1     -27.663   9.421 -25.213  1.00  0.00     0.244 HD
ENDBRANCH  20  24
ENDBRANCH  16  19
ENDBRANCH   4  15
BRANCH   1  26
HETATM   26  N1  UNL     1     -34.867  11.121 -24.379  1.00  0.00    -0.384 N
ATOM     27  H12 UNL     1     -35.826  10.858 -24.146  1.00  0.00     0.157 HD
ATOM     28  H11 UNL     1     -34.642  12.116 -24.383  1.00  0.00     0.157 HD
ENDBRANCH   1  26
BRANCH  14  29
HETATM   29  C8  UNL     1     -31.129   6.572 -23.170  1.00  0.00     0.305 C
BRANCH  29  30
HETATM   30  O5  UNL     1     -31.691   5.616 -24.033  1.00  0.00    -0.369 OA
BRANCH  30  31
HETATM   31  C9  UNL     1     -31.052   4.390 -23.936  1.00  0.00     0.197 C
BRANCH  31  32
HETATM   32  C10 UNL     1     -30.226   4.220 -25.194  1.00  0.00     0.219 C
BRANCH  32  33
HETATM   33  O6  UNL     1     -31.082   4.305 -26.315  1.00  0.00    -0.255 OA
BRANCH  33  34
HETATM   34  S1  UNL     1     -30.389   5.462 -27.329  1.00  0.00     0.251 S
HETATM   35  O7  UNL     1     -31.461   5.997 -28.239  1.00  0.00    -0.572 OA
HETATM   36  O8  UNL     1     -29.847   6.579 -26.492  1.00  0.00    -0.572 OA
HETATM   37  O9  UNL     1     -29.177   4.690 -28.203  1.00  0.00    -0.572 OA
ENDBRANCH  33  34
ENDBRANCH  32  33
ENDBRANCH  31  32
ENDBRANCH  30  31
ENDBRANCH  29  30
ENDBRANCH  14  29
BRANCH  11  38
HETATM   38  N8  UNL     1     -33.907   8.964 -20.090  1.00  0.00    -0.332 N
ATOM     39  H82 UNL     1     -33.719   8.276 -19.362  1.00  0.00     0.177 HD
ATOM     40  H81 UNL     1     -34.432   9.818 -19.901  1.00  0.00     0.177 HD
ENDBRANCH  11  38
TORSDOF 12
ENDMDL