MODEL 5
REMARK VINA RESULT: -8.433420742      4.603     10.853
REMARK  9 active torsions:
REMARK  status: ('A' for Active; 'I' for Inactive)
REMARK    1  A    between atoms: N1_1  and  C1_4
REMARK    2  A    between atoms: N4_13  and  N5_14
REMARK    3  A    between atoms: N5_14  and  O2_16
REMARK    4  A    between atoms: N6_20  and  C6_21
REMARK    5  A    between atoms: C6_21  and  N7_22
REMARK       I    between atoms: N7_22  and  C7_24
REMARK    6  A    between atoms: C7_24  and  C8_26
REMARK    7  A    between atoms: N8_28  and  C10_29
REMARK    8  A    between atoms: C10_29  and  C11_30
REMARK    9  A    between atoms: C15_36  and  O5_37
ROOT
HETATM    1  C6  UNL     1     -31.046   7.222 -23.167  1.00  0.00     0.197 C
ENDROOT
BRANCH   1   2
HETATM    2  N6  UNL     1     -30.804   6.272 -24.190  1.00  0.00    -0.250 N
HETATM    3  C3  UNL     1     -30.328   6.410 -25.414  1.00  0.00     0.160 A
HETATM    4  C2  UNL     1     -29.817   7.489 -26.120  1.00  0.00     0.291 A
HETATM    5  C4  UNL     1     -30.365   5.162 -26.053  1.00  0.00     0.182 A
HETATM    6  N2  UNL     1     -29.387   7.304 -27.365  1.00  0.00    -0.154 N
HETATM    7  O1  UNL     1     -29.783   8.606 -25.539  1.00  0.00    -0.265 OA
HETATM    8  C1  UNL     1     -29.434   6.101 -27.953  1.00  0.00     0.680 A
ATOM      9  H2  UNL     1     -29.011   8.098 -27.884  1.00  0.00     0.187 HD
HETATM   10  N3  UNL     1     -29.917   5.025 -27.316  1.00  0.00    -0.172 N
ATOM     11  H3  UNL     1     -29.946   4.117 -27.780  1.00  0.00     0.186 HD
HETATM   12  N4  UNL     1     -30.879   4.284 -25.158  1.00  0.00    -0.166 N
HETATM   13  C5  UNL     1     -31.141   4.960 -24.034  1.00  0.00     0.357 A
HETATM   14  O3  UNL     1     -31.627   4.435 -23.003  1.00  0.00    -0.244 OA
BRANCH   8  15
HETATM   15  N1  UNL     1     -28.995   6.014 -29.167  1.00  0.00    -0.234 N
ATOM     16  H12 UNL     1     -29.129   6.779 -29.829  1.00  0.00     0.174 HD
ATOM     17  H11 UNL     1     -28.512   5.156 -29.432  1.00  0.00     0.174 HD
ENDBRANCH   8  15
BRANCH  12  18
HETATM   18  N5  UNL     1     -31.086   2.918 -25.395  1.00  0.00    -0.198 N
ATOM     19  H5  UNL     1     -30.538   2.458 -26.123  1.00  0.00     0.216 HD
BRANCH  18  20
HETATM   20  O2  UNL     1     -31.910   2.245 -24.751  1.00  0.00    -0.274 OA
ATOM     21  H2  UNL     1     -32.193   1.381 -25.028  1.00  0.00     0.246 HD
ENDBRANCH  18  20
ENDBRANCH  12  18
ENDBRANCH   1   2
BRANCH   1  22
HETATM   22  N7  UNL     1     -32.410   7.573 -22.962  1.00  0.00    -0.317 N
HETATM   23  C7  UNL     1     -33.215   8.556 -23.535  1.00  0.00     0.276 C
HETATM   24  O4  UNL     1     -32.872   9.391 -24.409  1.00  0.00    -0.266 OA
ATOM     25  H7  UNL     1     -32.888   6.998 -22.268  1.00  0.00     0.170 HD
BRANCH  23  26
HETATM   26  C8  UNL     1     -34.637   8.699 -23.119  1.00  0.00     0.134 A
HETATM   27  C9  UNL     1     -35.164   9.442 -22.095  1.00  0.00     0.148 A
HETATM   28  N8  UNL     1     -36.518   9.271 -22.087  1.00  0.00    -0.282 N
HETATM   29  N10 UNL     1     -36.802   8.451 -23.073  1.00  0.00    -0.240 N
HETATM   30  N11 UNL     1     -35.680   8.100 -23.703  1.00  0.00    -0.280 N
ATOM     31  H10 UNL     1     -37.739   8.131 -23.320  1.00  0.00     0.208 HD
ATOM     32  H11 UNL     1     -35.626   7.471 -24.504  1.00  0.00     0.189 HD
BRANCH  28  33
HETATM   33  C10 UNL     1     -37.399   9.925 -21.132  1.00  0.00     0.192 C
BRANCH  33  34
HETATM   34  C11 UNL     1     -37.060  11.338 -20.880  1.00  0.00     0.010 A
HETATM   35  C12 UNL     1     -37.100  12.237 -21.953  1.00  0.00     0.099 A
HETATM   36  N9  UNL     1     -36.754  13.510 -21.773  1.00  0.00    -0.374 N
HETATM   37  C13 UNL     1     -36.356  13.975 -20.563  1.00  0.00     0.090 A
ATOM     38  H9  UNL     1     -36.790  14.153 -22.565  1.00  0.00     0.164 HD
HETATM   39  C14 UNL     1     -36.309  13.119 -19.502  1.00  0.00     0.054 A
HETATM   40  C15 UNL     1     -36.667  11.765 -19.643  1.00  0.00     0.076 A
BRANCH  40  41
HETATM   41  O5  UNL     1     -36.605  10.950 -18.524  1.00  0.00    -0.360 OA
ATOM     42  H5  UNL     1     -35.804  10.561 -18.194  1.00  0.00     0.217 HD
ENDBRANCH  40  41
ENDBRANCH  33  34
ENDBRANCH  28  33
ENDBRANCH  23  26
ENDBRANCH   1  22
TORSDOF 9
ENDMDL