MODEL 4
REMARK VINA RESULT: -8.862143256      3.910      6.102
REMARK  9 active torsions:
REMARK  status: ('A' for Active; 'I' for Inactive)
REMARK    1  A    between atoms: N1_1  and  C1_5
REMARK    2  A    between atoms: C1_5  and  C2_6
REMARK    3  A    between atoms: N3_9  and  N4_10
REMARK    4  A    between atoms: C3_12  and  C4_13
REMARK    5  A    between atoms: C4_13  and  C5_14
REMARK    6  A    between atoms: C5_14  and  N5_15
REMARK    7  A    between atoms: C9_25  and  C10_26
REMARK    8  A    between atoms: C12_28  and  O3_29
REMARK    9  A    between atoms: C13_31  and  O4_32
ROOT
HETATM    1  N5  UNL     1     -33.454  11.186 -25.193  1.00  0.00    -0.239 N
HETATM    2  N6  UNL     1     -33.765  10.821 -23.996  1.00  0.00    -0.273 N
ATOM      3  H6  UNL     1     -34.167  11.422 -23.277  1.00  0.00     0.189 HD
HETATM    4  C6  UNL     1     -33.464   9.489 -23.849  1.00  0.00     0.215 A
HETATM    5  C7  UNL     1     -33.640   8.797 -22.632  1.00  0.00     0.295 C
HETATM    6  O1  UNL     1     -34.663   9.011 -22.005  1.00  0.00    -0.264 OA
HETATM    7  N7  UNL     1     -32.709   7.915 -22.134  1.00  0.00    -0.285 N
ATOM      8  H7  UNL     1     -32.653   7.776 -21.125  1.00  0.00     0.172 HD
HETATM    9  C8  UNL     1     -31.867   7.228 -22.932  1.00  0.00     0.279 C
HETATM   10  O2  UNL     1     -30.789   6.773 -22.396  1.00  0.00    -0.265 OA
HETATM   11  C9  UNL     1     -31.980   6.962 -24.271  1.00  0.00     0.151 C
HETATM   12  N8  UNL     1     -32.460   7.783 -25.270  1.00  0.00    -0.281 N
ATOM     13  H8  UNL     1     -32.449   7.449 -26.234  1.00  0.00     0.188 HD
HETATM   14  N9  UNL     1     -32.954   9.039 -25.003  1.00  0.00    -0.180 N
HETATM   15  C14 UNL     1     -32.944  10.086 -25.832  1.00  0.00     0.364 A
HETATM   16  O6  UNL     1     -32.546  10.100 -27.032  1.00  0.00    -0.243 OA
ENDROOT
BRANCH   1  17
HETATM   17  C5  UNL     1     -33.570  12.472 -25.836  1.00  0.00     0.159 C
BRANCH  17  18
HETATM   18  C4  UNL     1     -34.819  13.236 -25.584  1.00  0.00     0.068 C
BRANCH  18  19
HETATM   19  C3  UNL     1     -34.525  14.395 -24.692  1.00  0.00     0.084 C
HETATM   20  N4  UNL     1     -34.675  14.524 -23.508  1.00  0.00    -0.293 N
ATOM     21  H4  UNL     1     -34.385  15.444 -23.177  1.00  0.00     0.187 HD
BRANCH  20  22
HETATM   22  N3  UNL     1     -35.148  13.718 -22.486  1.00  0.00    -0.181 N
HETATM   23  N2  UNL     1     -34.888  13.855 -21.142  1.00  0.00    -0.277 N
HETATM   24  C2  UNL     1     -35.617  12.812 -20.827  1.00  0.00     0.097 A
ATOM     25  H2  UNL     1     -34.337  14.518 -20.596  1.00  0.00     0.189 HD
HETATM   26  C15 UNL     1     -35.878  12.677 -22.206  1.00  0.00     0.181 A
HETATM   27  N10 UNL     1     -36.608  11.590 -22.819  1.00  0.00    -0.077 NA
BRANCH  24  28
HETATM   28  C1  UNL     1     -36.115  12.183 -19.553  1.00  0.00     0.291 C
BRANCH  28  29
HETATM   29  N1  UNL     1     -35.652  10.774 -19.557  1.00  0.00    -0.074 N
ATOM     30  H13 UNL     1     -36.331  10.130 -19.961  1.00  0.00     0.274 HD
ATOM     31  H12 UNL     1     -34.898  10.602 -20.221  1.00  0.00     0.274 HD
ATOM     32  H11 UNL     1     -35.401  10.541 -18.595  1.00  0.00     0.274 HD
ENDBRANCH  28  29
ENDBRANCH  24  28
ENDBRANCH  20  22
ENDBRANCH  18  19
ENDBRANCH  17  18
ENDBRANCH   1  17
BRANCH  11  33
HETATM   33  C10 UNL     1     -31.498   5.612 -24.653  1.00  0.00     0.115 A
HETATM   34  C11 UNL     1     -30.481   5.249 -25.472  1.00  0.00     0.081 A
HETATM   35  C12 UNL     1     -30.401   3.857 -25.535  1.00  0.00     0.127 A
HETATM   36  C13 UNL     1     -31.425   3.456 -24.710  1.00  0.00     0.218 A
HETATM   37  O5  UNL     1     -32.062   4.471 -24.201  1.00  0.00    -0.283 OA
BRANCH  35  38
HETATM   38  O3  UNL     1     -29.493   3.161 -26.295  1.00  0.00    -0.356 OA
ATOM     39  H3  UNL     1     -28.686   2.784 -25.963  1.00  0.00     0.218 HD
ENDBRANCH  35  38
BRANCH  36  40
HETATM   40  O4  UNL     1     -31.830   2.128 -24.433  1.00  0.00    -0.339 OA
ATOM     41  H4  UNL     1     -31.282   1.352 -24.421  1.00  0.00     0.220 HD
ENDBRANCH  36  40
ENDBRANCH  11  33
TORSDOF 9
ENDMDL