MODEL 2
REMARK VINA RESULT: -8.026042234      2.646      9.976
REMARK  8 active torsions:
REMARK  status: ('A' for Active; 'I' for Inactive)
REMARK    1  A    between atoms: N1_1  and  C1_4
REMARK    2  A    between atoms: C3_8  and  C4_9
REMARK       I    between atoms: C4_9  and  N3_11
REMARK    3  A    between atoms: N3_11  and  N4_13
REMARK    4  A    between atoms: N4_13  and  S1_15
REMARK    5  A    between atoms: S1_15  and  C5_18
REMARK    6  A    between atoms: C10_30  and  N9_31
REMARK    7  A    between atoms: C11_38  and  S2_39
REMARK    8  A    between atoms: S2_39  and  N13_40
ROOT
HETATM    1  C1  UNL     1     -29.751   6.723 -27.565  1.00  0.00     0.131 A
HETATM    2  N2  UNL     1     -30.260   6.869 -26.323  1.00  0.00    -0.324 N
ATOM      3  H2  UNL     1     -30.458   7.802 -25.964  1.00  0.00     0.169 HD
HETATM    4  C2  UNL     1     -30.505   5.799 -25.564  1.00  0.00     0.163 A
HETATM    5  C3  UNL     1     -30.998   5.664 -24.294  1.00  0.00     0.165 A
HETATM    6  N6  UNL     1     -30.994   4.295 -24.074  1.00  0.00    -0.277 N
ATOM      7  H6  UNL     1     -31.302   3.842 -23.214  1.00  0.00     0.189 HD
HETATM    8  N7  UNL     1     -30.540   3.669 -25.124  1.00  0.00    -0.234 N
ATOM      9  H7  UNL     1     -30.439   2.658 -25.212  1.00  0.00     0.209 HD
HETATM   10  N8  UNL     1     -30.226   4.568 -26.070  1.00  0.00    -0.232 N
HETATM   11  C9  UNL     1     -29.719   4.390 -27.305  1.00  0.00     0.155 A
HETATM   12  C10 UNL     1     -29.463   5.482 -28.100  1.00  0.00     0.121 A
ENDROOT
BRANCH   5  13
HETATM   13  C4  UNL     1     -31.511   6.627 -23.347  1.00  0.00     0.292 C
HETATM   14  O1  UNL     1     -30.952   6.664 -22.195  1.00  0.00    -0.264 OA
HETATM   15  N3  UNL     1     -32.567   7.505 -23.589  1.00  0.00    -0.255 N
ATOM     16  H3  UNL     1     -33.010   7.447 -24.506  1.00  0.00     0.191 HD
BRANCH  15  17
HETATM   17  N4  UNL     1     -33.078   8.456 -22.702  1.00  0.00    -0.219 N
ATOM     18  H4  UNL     1     -32.621   8.666 -21.815  1.00  0.00     0.200 HD
BRANCH  17  19
HETATM   19  S1  UNL     1     -34.499   9.240 -23.185  1.00  0.00     0.291 S
HETATM   20  O2  UNL     1     -34.255  10.630 -23.708  1.00  0.00    -0.197 OA
HETATM   21  O3  UNL     1     -35.107   8.465 -24.323  1.00  0.00    -0.197 OA
BRANCH  19  22
HETATM   22  C5  UNL     1     -35.658   9.344 -21.889  1.00  0.00     0.150 A
HETATM   23  C6  UNL     1     -35.393  10.076 -20.739  1.00  0.00     0.045 A
HETATM   24  C7  UNL     1     -36.493   9.944 -19.929  1.00  0.00     0.020 A
HETATM   25  C8  UNL     1     -37.411   9.147 -20.571  1.00  0.00     0.089 A
HETATM   26  N5  UNL     1     -36.867   8.814 -21.739  1.00  0.00    -0.355 N
ATOM     27  H5  UNL     1     -37.323   8.223 -22.434  1.00  0.00     0.166 HD
ENDBRANCH  19  22
ENDBRANCH  17  19
ENDBRANCH  15  17
ENDBRANCH   5  13
BRANCH   1  28
HETATM   28  N1  UNL     1     -29.522   7.763 -28.291  1.00  0.00    -0.383 N
ATOM     29  H12 UNL     1     -29.890   8.659 -27.973  1.00  0.00     0.157 HD
ATOM     30  H11 UNL     1     -28.985   7.672 -29.153  1.00  0.00     0.157 HD
ENDBRANCH   1  28
BRANCH  12  31
HETATM   31  N9  UNL     1     -28.944   5.412 -29.417  1.00  0.00    -0.211 N
HETATM   32  N10 UNL     1     -27.669   5.447 -29.812  1.00  0.00    -0.219 N
HETATM   33  N11 UNL     1     -27.603   5.363 -31.126  1.00  0.00    -0.226 N
ATOM     34  H10 UNL     1     -26.865   5.526 -29.189  1.00  0.00     0.210 HD
HETATM   35  N12 UNL     1     -28.846   5.275 -31.566  1.00  0.00    -0.261 N
ATOM     36  H11 UNL     1     -26.755   5.365 -31.694  1.00  0.00     0.210 HD
HETATM   37  C11 UNL     1     -29.700   5.303 -30.525  1.00  0.00     0.203 A
ATOM     38  H12 UNL     1     -29.117   5.198 -32.546  1.00  0.00     0.190 HD
BRANCH  37  39
HETATM   39  S2  UNL     1     -31.482   5.223 -30.530  1.00  0.00     0.019 SA
BRANCH  39  40
HETATM   40  N13 UNL     1     -32.189   6.824 -30.494  1.00  0.00    -0.367 N
ATOM     41 2H13 UNL     1     -31.670   7.664 -30.240  1.00  0.00     0.164 HD
ATOM     42 1H13 UNL     1     -33.174   6.798 -30.757  1.00  0.00     0.164 HD
ENDBRANCH  39  40
ENDBRANCH  37  39
ENDBRANCH  12  31
TORSDOF 8
ENDMDL