MODEL 3
REMARK VINA RESULT: -8.443114527      1.759      3.342
REMARK  10 active torsions:
REMARK  status: ('A' for Active; 'I' for Inactive)
REMARK    1  A    between atoms: C2_3  and  O1_4
REMARK    2  A    between atoms: C5_8  and  O2_9
REMARK    3  A    between atoms: C6_11  and  N2_12
REMARK    4  A    between atoms: N2_12  and  C7_15
REMARK    5  A    between atoms: C7_15  and  C8_16
REMARK    6  A    between atoms: C8_16  and  C9_17
REMARK    7  A    between atoms: C9_17  and  N3_18
REMARK    8  A    between atoms: C10_23  and  N6_24
REMARK    9  A    between atoms: N6_24  and  N7_26
REMARK   10  A    between atoms: C13_36  and  C14_37
ROOT
HETATM    1  C1  UNL     1     -31.016   3.161 -23.912  1.00  0.00     0.160 C
HETATM    2  N1  UNL     1     -30.877   4.358 -24.734  1.00  0.00    -0.312 N
HETATM    3  C2  UNL     1     -31.537   5.536 -24.530  1.00  0.00     0.157 A
HETATM    4  C3  UNL     1     -31.133   6.384 -25.504  1.00  0.00     0.057 A
HETATM    5  C4  UNL     1     -30.223   5.737 -26.305  1.00  0.00     0.042 A
HETATM    6  C5  UNL     1     -30.083   4.461 -25.795  1.00  0.00     0.153 A
HETATM    7  C6  UNL     1     -29.532   6.315 -27.453  1.00  0.00     0.243 A
HETATM    8  C11 UNL     1     -29.891   7.697 -27.773  1.00  0.00     0.187 A
HETATM    9  N9  UNL     1     -30.785   8.329 -26.864  1.00  0.00    -0.288 N
HETATM   10  N10 UNL     1     -31.149   9.611 -26.936  1.00  0.00    -0.308 N
ATOM     11  H10 UNL     1     -30.813  10.274 -27.634  1.00  0.00     0.186 HD
HETATM   12  C12 UNL     1     -31.994   9.896 -25.989  1.00  0.00     0.125 A
HETATM   13  C13 UNL     1     -32.227   8.718 -25.207  1.00  0.00     0.057 A
HETATM   14  C15 UNL     1     -31.444   7.789 -25.803  1.00  0.00     0.081 A
ENDROOT
BRANCH   7  15
HETATM   15  N2  UNL     1     -29.741   5.465 -28.604  1.00  0.00    -0.065 N
ATOM     16  H22 UNL     1     -29.351   4.533 -28.465  1.00  0.00     0.278 HD
ATOM     17  H21 UNL     1     -30.722   5.203 -28.711  1.00  0.00     0.278 HD
BRANCH  15  18
HETATM   18  C7  UNL     1     -29.223   6.091 -29.784  1.00  0.00     0.235 C
BRANCH  18  19
HETATM   19  C8  UNL     1     -27.970   5.422 -30.283  1.00  0.00     0.051 C
BRANCH  19  20
HETATM   20  C9  UNL     1     -28.273   4.732 -31.583  1.00  0.00     0.173 C
BRANCH  20  21
HETATM   21  N3  UNL     1     -27.239   4.809 -32.569  1.00  0.00    -0.205 N
HETATM   22  N4  UNL     1     -25.970   5.088 -32.357  1.00  0.00    -0.211 N
HETATM   23  N5  UNL     1     -25.280   5.074 -33.478  1.00  0.00    -0.114 N
ATOM     24  H4  UNL     1     -25.572   5.289 -31.439  1.00  0.00     0.210 HD
HETATM   25  C10 UNL     1     -26.164   4.770 -34.448  1.00  0.00     0.728 A
ATOM     26  H5  UNL     1     -24.283   5.255 -33.588  1.00  0.00     0.207 HD
HETATM   27  N8  UNL     1     -27.374   4.607 -33.879  1.00  0.00    -0.112 N
ATOM     28  H8  UNL     1     -28.240   4.371 -34.365  1.00  0.00     0.207 HD
BRANCH  25  29
HETATM   29  N6  UNL     1     -25.924   4.646 -35.701  1.00  0.00    -0.136 N
ATOM     30  H6  UNL     1     -26.467   3.999 -36.271  1.00  0.00     0.205 HD
BRANCH  29  31
HETATM   31  N7  UNL     1     -24.905   5.413 -36.273  1.00  0.00    -0.331 N
ATOM     32  H72 UNL     1     -25.093   6.380 -36.541  1.00  0.00     0.177 HD
ATOM     33  H71 UNL     1     -23.988   4.990 -36.414  1.00  0.00     0.177 HD
ENDBRANCH  29  31
ENDBRANCH  25  29
ENDBRANCH  20  21
ENDBRANCH  19  20
ENDBRANCH  18  19
ENDBRANCH  15  18
ENDBRANCH   7  15
BRANCH   6  34
HETATM   34  O2  UNL     1     -29.261   3.444 -26.291  1.00  0.00    -0.345 OA
ATOM     35  H2  UNL     1     -29.498   2.832 -26.978  1.00  0.00     0.219 HD
ENDBRANCH   6  34
BRANCH   3  36
HETATM   36  O1  UNL     1     -32.394   5.673 -23.509  1.00  0.00    -0.345 OA
ATOM     37  H1  UNL     1     -32.088   5.650 -22.609  1.00  0.00     0.219 HD
ENDBRANCH   3  36
BRANCH  13  38
HETATM   38  C14 UNL     1     -33.122   8.726 -24.080  1.00  0.00     0.151 A
HETATM   39  N11 UNL     1     -34.381   8.930 -23.787  1.00  0.00    -0.268 N
HETATM   40  N12 UNL     1     -34.634   8.747 -22.524  1.00  0.00    -0.227 N
ATOM     41  H11 UNL     1     -35.085   9.202 -24.472  1.00  0.00     0.190 HD
HETATM   42  N13 UNL     1     -33.527   8.406 -21.910  1.00  0.00    -0.227 N
ATOM     43  H12 UNL     1     -35.547   8.852 -22.083  1.00  0.00     0.210 HD
HETATM   44  N14 UNL     1     -32.593   8.384 -22.823  1.00  0.00    -0.268 N
ATOM     45  H13 UNL     1     -33.418   8.201 -20.917  1.00  0.00     0.210 HD
ATOM     46  H14 UNL     1     -31.615   8.150 -22.649  1.00  0.00     0.190 HD
ENDBRANCH  13  38
TORSDOF 10
ENDMDL