MODEL 1
REMARK VINA RESULT: -8.314470387      0.000      0.000
REMARK  11 active torsions:
REMARK  status: ('A' for Active; 'I' for Inactive)
REMARK    1  A    between atoms: N1_1  and  N2_4
REMARK    2  A    between atoms: N2_4  and  C1_6
REMARK    3  A    between atoms: C1_6  and  C3_13
REMARK    4  A    between atoms: N3_7  and  O1_9
REMARK    5  A    between atoms: O1_9  and  C2_10
REMARK       I    between atoms: C3_13  and  N5_15
REMARK    6  A    between atoms: N5_15  and  N6_17
REMARK    7  A    between atoms: N6_17  and  C4_19
REMARK    8  A    between atoms: C5_20  and  N7_21
REMARK    9  A    between atoms: N7_21  and  C6_23
REMARK   10  A    between atoms: C9_26  and  N8_27
REMARK   11  A    between atoms: C11_31  and  N9_32
ROOT
HETATM    1  C4  UNL     1     -30.218   6.797 -28.106  1.00  0.00     0.133 A
HETATM    2  C5  UNL     1     -30.473   6.557 -29.434  1.00  0.00     0.120 A
HETATM    3  C12 UNL     1     -30.645   7.900 -29.664  1.00  0.00     0.253 A
HETATM    4  O8  UNL     1     -30.917   8.638 -30.647  1.00  0.00    -0.281 OA
HETATM    5  C13 UNL     1     -30.389   8.144 -28.332  1.00  0.00     0.254 A
HETATM    6  O9  UNL     1     -30.324   9.171 -27.567  1.00  0.00    -0.281 OA
ENDROOT
BRANCH   1   7
HETATM    7  N6  UNL     1     -29.880   5.988 -26.960  1.00  0.00    -0.292 N
ATOM      8  H6  UNL     1     -28.968   5.534 -26.918  1.00  0.00     0.187 HD
BRANCH   7   9
HETATM    9  N5  UNL     1     -30.786   5.815 -25.900  1.00  0.00    -0.263 N
HETATM   10  C3  UNL     1     -30.814   6.748 -24.822  1.00  0.00     0.307 C
HETATM   11  O3  UNL     1     -30.020   7.719 -24.825  1.00  0.00    -0.262 OA
ATOM     12  H5  UNL     1     -31.425   5.020 -25.902  1.00  0.00     0.190 HD
BRANCH  10  13
HETATM   13  C1  UNL     1     -31.740   6.586 -23.732  1.00  0.00     0.210 C
HETATM   14  N3  UNL     1     -31.690   5.503 -23.019  1.00  0.00    -0.234 N
ATOM     15  H3  UNL     1     -32.342   5.381 -22.244  1.00  0.00     0.197 HD
BRANCH  13  16
HETATM   16  N2  UNL     1     -32.683   7.593 -23.449  1.00  0.00    -0.286 N
ATOM     17  H2  UNL     1     -33.294   7.963 -24.178  1.00  0.00     0.188 HD
BRANCH  16  18
HETATM   18  N1  UNL     1     -32.755   8.068 -22.140  1.00  0.00    -0.343 N
ATOM     19  H12 UNL     1     -32.250   8.913 -21.872  1.00  0.00     0.176 HD
ATOM     20  H11 UNL     1     -33.323   7.544 -21.474  1.00  0.00     0.176 HD
ENDBRANCH  16  18
ENDBRANCH  13  16
BRANCH  14  21
HETATM   21  O1  UNL     1     -30.770   4.517 -23.293  1.00  0.00    -0.182 OA
BRANCH  21  22
HETATM   22  C2  UNL     1     -31.226   3.235 -23.564  1.00  0.00     0.394 C
HETATM   23  N4  UNL     1     -31.776   2.872 -24.809  1.00  0.00    -0.031 NA
HETATM   24  O2  UNL     1     -31.133   2.382 -22.649  1.00  0.00    -0.240 OA
ENDBRANCH  21  22
ENDBRANCH  14  21
ENDBRANCH  10  13
ENDBRANCH   7   9
ENDBRANCH   1   7
BRANCH   2  25
HETATM   25  N7  UNL     1     -30.554   5.364 -30.263  1.00  0.00    -0.349 N
ATOM     26  H7  UNL     1     -31.294   4.681 -30.104  1.00  0.00     0.166 HD
BRANCH  25  27
HETATM   27  C6  UNL     1     -29.610   5.156 -31.283  1.00  0.00     0.066 A
HETATM   28  C7  UNL     1     -28.344   4.720 -30.915  1.00  0.00     0.034 A
HETATM   29  C8  UNL     1     -27.351   4.520 -31.818  1.00  0.00     0.038 A
HETATM   30  C9  UNL     1     -27.650   4.770 -33.166  1.00  0.00     0.105 A
HETATM   31  C10 UNL     1     -28.892   5.198 -33.532  1.00  0.00     0.074 A
HETATM   32  C11 UNL     1     -29.916   5.404 -32.591  1.00  0.00     0.131 A
BRANCH  30  33
HETATM   33  N8  UNL     1     -26.655   4.573 -34.150  1.00  0.00    -0.116 N
HETATM   34  O4  UNL     1     -25.467   4.527 -33.809  1.00  0.00    -0.532 OA
HETATM   35  O5  UNL     1     -26.998   4.432 -35.465  1.00  0.00    -0.532 OA
ENDBRANCH  30  33
BRANCH  32  36
HETATM   36  N9  UNL     1     -31.176   5.845 -33.071  1.00  0.00    -0.113 N
HETATM   37  O6  UNL     1     -31.239   6.257 -34.282  1.00  0.00    -0.532 OA
HETATM   38  O7  UNL     1     -32.353   5.887 -32.400  1.00  0.00    -0.532 OA
ENDBRANCH  32  36
ENDBRANCH  25  27
ENDBRANCH   2  25
TORSDOF 11
ENDMDL