MODEL 5
REMARK VINA RESULT: -8.168203977      1.624      2.593
REMARK  11 active torsions:
REMARK  status: ('A' for Active; 'I' for Inactive)
REMARK    1  A    between atoms: N1_1  and  C1_4
REMARK    2  A    between atoms: C2_7  and  N3_8
REMARK    3  A    between atoms: C3_11  and  N4_12
REMARK    4  A    between atoms: N5_14  and  N6_16
REMARK       I    between atoms: N6_16  and  C4_18
REMARK    5  A    between atoms: C4_18  and  O4_20
REMARK    6  A    between atoms: O4_20  and  C5_21
REMARK    7  A    between atoms: C5_21  and  C6_22
REMARK    8  A    between atoms: C9_26  and  O6_27
REMARK    9  A    between atoms: O6_27  and  S1_28
REMARK   10  A    between atoms: S1_28  and  N7_29
REMARK   11  A    between atoms: C10_37  and  N9_38
ROOT
HETATM    1  N4  UNL     1     -30.588   6.756 -27.010  1.00  0.00    -0.279 N
ATOM      2  H4  UNL     1     -31.231   6.312 -27.665  1.00  0.00     0.189 HD
HETATM    3  N5  UNL     1     -29.478   7.153 -27.447  1.00  0.00    -0.238 N
ATOM      4  H5  UNL     1     -28.809   7.602 -26.821  1.00  0.00     0.208 HD
ENDROOT
BRANCH   3   5
HETATM    5  N6  UNL     1     -29.172   6.974 -28.786  1.00  0.00    -0.231 N
HETATM    6  C4  UNL     1     -29.003   5.678 -29.314  1.00  0.00     0.380 C
HETATM    7  O3  UNL     1     -29.136   4.686 -28.535  1.00  0.00    -0.237 OA
ATOM      8  H6  UNL     1     -29.069   7.786 -29.395  1.00  0.00     0.194 HD
BRANCH   6   9
HETATM    9  O4  UNL     1     -28.693   5.462 -30.671  1.00  0.00    -0.296 OA
BRANCH   9  10
HETATM   10  C5  UNL     1     -27.591   4.614 -30.931  1.00  0.00     0.247 C
BRANCH  10  11
HETATM   11  C6  UNL     1     -27.074   4.809 -32.305  1.00  0.00     0.104 A
HETATM   12  C7  UNL     1     -27.819   4.504 -33.428  1.00  0.00     0.096 A
HETATM   13  C8  UNL     1     -27.242   4.723 -34.658  1.00  0.00     0.228 A
HETATM   14  O5  UNL     1     -27.879   4.462 -35.699  1.00  0.00    -0.284 OA
HETATM   15  C9  UNL     1     -25.954   5.233 -34.751  1.00  0.00     0.232 A
HETATM   16  N8  UNL     1     -25.328   5.491 -33.598  1.00  0.00    -0.235 N
HETATM   17  O9  UNL     1     -25.864   5.288 -32.432  1.00  0.00    -0.238 OA
ATOM     18  H8  UNL     1     -24.380   5.867 -33.636  1.00  0.00     0.197 HD
BRANCH  15  19
HETATM   19  O6  UNL     1     -25.392   5.447 -35.995  1.00  0.00    -0.192 OA
BRANCH  19  20
HETATM   20  S1  UNL     1     -23.961   6.345 -36.130  1.00  0.00     0.362 S
HETATM   21  O7  UNL     1     -24.224   7.723 -35.597  1.00  0.00    -0.176 OA
HETATM   22  O8  UNL     1     -22.870   5.745 -35.268  1.00  0.00    -0.176 OA
BRANCH  20  23
HETATM   23  N7  UNL     1     -23.372   6.429 -37.729  1.00  0.00    -0.305 N
ATOM     24  H72 UNL     1     -23.753   5.860 -38.486  1.00  0.00     0.171 HD
ATOM     25  H71 UNL     1     -22.611   7.099 -37.840  1.00  0.00     0.171 HD
ENDBRANCH  20  23
ENDBRANCH  19  20
ENDBRANCH  15  19
ENDBRANCH  10  11
ENDBRANCH   9  10
ENDBRANCH   6   9
ENDBRANCH   3   5
BRANCH   1  26
HETATM   26  C3  UNL     1     -30.997   6.891 -25.657  1.00  0.00     0.144 A
HETATM   27  C2  UNL     1     -31.415   8.121 -25.200  1.00  0.00     0.220 A
HETATM   28  N2  UNL     1     -31.796   8.210 -23.903  1.00  0.00    -0.168 N
HETATM   29  C1  UNL     1     -31.781   7.161 -23.067  1.00  0.00     0.679 A
ATOM     30  H2  UNL     1     -32.108   9.113 -23.546  1.00  0.00     0.186 HD
HETATM   31  N10 UNL     1     -31.380   5.973 -23.499  1.00  0.00    -0.175 N
HETATM   32  C10 UNL     1     -30.990   5.831 -24.775  1.00  0.00     0.147 A
ATOM     33  H10 UNL     1     -31.367   5.173 -22.865  1.00  0.00     0.186 HD
BRANCH  27  34
HETATM   34  N3  UNL     1     -31.438   9.232 -26.062  1.00  0.00    -0.095 N
HETATM   35  O1  UNL     1     -32.502   9.565 -26.616  1.00  0.00    -0.530 OA
HETATM   36  O2  UNL     1     -30.333   9.994 -26.341  1.00  0.00    -0.530 OA
ENDBRANCH  27  34
BRANCH  29  37
HETATM   37  N1  UNL     1     -32.155   7.299 -21.838  1.00  0.00    -0.234 N
ATOM     38  H12 UNL     1     -33.143   7.212 -21.600  1.00  0.00     0.174 HD
ATOM     39  H11 UNL     1     -31.469   7.492 -21.108  1.00  0.00     0.174 HD
ENDBRANCH  29  37
BRANCH  32  40
HETATM   40  N9  UNL     1     -30.597   4.657 -25.193  1.00  0.00    -0.383 N
ATOM     41  H92 UNL     1     -31.169   3.839 -24.985  1.00  0.00     0.157 HD
ATOM     42  H91 UNL     1     -29.727   4.583 -25.720  1.00  0.00     0.157 HD
ENDBRANCH  32  40
ENDBRANCH   1  26
TORSDOF 11
ENDMDL