MODEL 1
REMARK VINA RESULT: -6.860118607      0.000      0.000
REMARK  9 active torsions:
REMARK  status: ('A' for Active; 'I' for Inactive)
REMARK    1  A    between atoms: C4_7  and  N3_8
REMARK    2  A    between atoms: C5_10  and  C6_11
REMARK    3  A    between atoms: C6_11  and  C7_12
REMARK    4  A    between atoms: C7_12  and  N4_13
REMARK    5  A    between atoms: C8_16  and  N5_17
REMARK    6  A    between atoms: C10_25  and  C11_26
REMARK    7  A    between atoms: C12_29  and  S1_30
REMARK    8  A    between atoms: S1_30  and  C13_31
REMARK    9  A    between atoms: C14_35  and  N9_36
ROOT
HETATM    1  N1  UNL     1     -31.767   6.888 -21.807  1.00  0.00    -0.190 NA
HETATM    2  C1  UNL     1     -31.888   7.422 -22.823  1.00  0.00     0.119 C
HETATM    3  C2  UNL     1     -32.046   8.117 -24.097  1.00  0.00     0.135 A
HETATM    4  N2  UNL     1     -31.254   7.744 -25.115  1.00  0.00    -0.330 N
ATOM      5  H2  UNL     1     -30.581   6.990 -24.976  1.00  0.00     0.168 HD
HETATM    6  C3  UNL     1     -31.333   8.347 -26.313  1.00  0.00     0.148 A
HETATM    7  C4  UNL     1     -30.490   7.930 -27.338  1.00  0.00     0.121 A
HETATM    8  C8  UNL     1     -30.523   8.508 -28.577  1.00  0.00     0.134 A
HETATM    9  N6  UNL     1     -31.408   9.493 -28.744  1.00  0.00    -0.292 N
ATOM     10  H6  UNL     1     -31.465   9.952 -29.652  1.00  0.00     0.172 HD
HETATM   11  C9  UNL     1     -32.242   9.910 -27.740  1.00  0.00     0.334 A
HETATM   12  O3  UNL     1     -33.009  10.824 -28.020  1.00  0.00    -0.246 OA
HETATM   13  N7  UNL     1     -32.222   9.354 -26.524  1.00  0.00    -0.239 N
HETATM   14  C10 UNL     1     -33.040   9.758 -25.516  1.00  0.00     0.142 A
HETATM   15  C12 UNL     1     -32.956   9.125 -24.262  1.00  0.00     0.076 A
ENDROOT
BRANCH  15  16
HETATM   16  S1  UNL     1     -34.015   9.602 -22.930  1.00  0.00    -0.063 SA
BRANCH  16  17
HETATM   17  C13 UNL     1     -35.636   8.843 -22.943  1.00  0.00     0.458 C
HETATM   18  N8  UNL     1     -36.618   9.898 -23.289  1.00  0.00     0.017 N
HETATM   19  C14 UNL     1     -36.629  10.177 -21.841  1.00  0.00     0.583 C
ATOM     20  H82 UNL     1     -36.419  10.621 -23.981  1.00  0.00     0.285 HD
ATOM     21  H81 UNL     1     -37.470   9.699 -23.812  1.00  0.00     0.285 HD
HETATM   22  N10 UNL     1     -36.345   8.764 -21.688  1.00  0.00     0.017 N
ATOM     23 2H10 UNL     1     -37.094   8.086 -21.547  1.00  0.00     0.285 HD
ATOM     24 1H10 UNL     1     -35.894   8.403 -20.849  1.00  0.00     0.285 HD
BRANCH  19  25
HETATM   25  N9  UNL     1     -37.929  10.585 -21.352  1.00  0.00    -0.025 N
ATOM     26  H93 UNL     1     -38.297  11.362 -21.901  1.00  0.00     0.278 HD
ATOM     27  H92 UNL     1     -38.635   9.881 -21.564  1.00  0.00     0.278 HD
ATOM     28  H91 UNL     1     -37.930  10.811 -20.357  1.00  0.00     0.278 HD
ENDBRANCH  19  25
ENDBRANCH  16  17
ENDBRANCH  15  16
BRANCH  14  29
HETATM   29  C11 UNL     1     -34.005  10.792 -25.615  1.00  0.00     0.229 C
HETATM   30  O4  UNL     1     -35.189  10.735 -25.941  1.00  0.00    -0.643 OA
HETATM   31  O5  UNL     1     -33.636  12.143 -25.313  1.00  0.00    -0.643 OA
ENDBRANCH  14  29
BRANCH   7  32
HETATM   32  N3  UNL     1     -29.587   6.878 -27.060  1.00  0.00    -0.363 N
HETATM   33  C5  UNL     1     -29.946   5.671 -27.320  1.00  0.00     0.063 C
ATOM     34  H3  UNL     1     -28.669   7.073 -26.661  1.00  0.00     0.165 HD
BRANCH  33  35
HETATM   35  C6  UNL     1     -29.057   4.501 -27.058  1.00  0.00     0.070 C
BRANCH  35  36
HETATM   36  C7  UNL     1     -29.875   3.319 -26.548  1.00  0.00     0.206 C
BRANCH  36  37
HETATM   37  N4  UNL     1     -30.688   3.703 -25.425  1.00  0.00    -0.155 N
HETATM   38  O1  UNL     1     -31.766   3.130 -25.181  1.00  0.00    -0.537 OA
HETATM   39  O2  UNL     1     -30.274   4.715 -24.604  1.00  0.00    -0.537 OA
ENDBRANCH  36  37
ENDBRANCH  35  36
ENDBRANCH  33  35
ENDBRANCH   7  32
BRANCH   8  40
HETATM   40  N5  UNL     1     -29.727   8.094 -29.498  1.00  0.00    -0.383 N
ATOM     41  H52 UNL     1     -28.943   8.636 -29.860  1.00  0.00     0.157 HD
ATOM     42  H51 UNL     1     -29.863   7.170 -29.908  1.00  0.00     0.157 HD
ENDBRANCH   8  40
TORSDOF 9
ENDMDL