MODEL 4
REMARK VINA RESULT: -7.880710604      5.257     10.752
REMARK  12 active torsions:
REMARK  status: ('A' for Active; 'I' for Inactive)
REMARK    1  A    between atoms: N1_2  and  C2_3
REMARK    2  A    between atoms: N1_2  and  C12_27
REMARK    3  A    between atoms: C2_3  and  C3_4
REMARK    4  A    between atoms: C3_4  and  C4_6
REMARK    5  A    between atoms: C7_10  and  N2_11
REMARK    6  A    between atoms: C8_16  and  N4_17
REMARK    7  A    between atoms: C11_24  and  O4_25
REMARK    8  A    between atoms: C12_27  and  C13_28
REMARK    9  A    between atoms: C14_30  and  N6_31
REMARK   10  A    between atoms: N6_31  and  O6_32
REMARK   11  A    between atoms: N6_31  and  O7_34
REMARK   12  A    between atoms: C15_38  and  C16_39
ROOT
HETATM    1  C4  UNL     1     -29.092   5.087 -31.741  1.00  0.00     0.162 A
HETATM    2  O2  UNL     1     -29.325   4.823 -33.016  1.00  0.00    -0.285 OA
HETATM    3  C5  UNL     1     -28.369   4.668 -33.904  1.00  0.00     0.183 A
HETATM    4  C6  UNL     1     -27.018   4.775 -33.556  1.00  0.00     0.113 A
HETATM    5  C7  UNL     1     -25.996   4.616 -34.474  1.00  0.00     0.133 A
HETATM    6  N3  UNL     1     -26.397   4.345 -35.760  1.00  0.00    -0.176 N
ATOM      7  H3  UNL     1     -25.687   4.219 -36.481  1.00  0.00     0.186 HD
HETATM    8  C8  UNL     1     -27.679   4.242 -36.097  1.00  0.00     0.681 A
HETATM    9  N5  UNL     1     -28.661   4.400 -35.189  1.00  0.00    -0.165 N
HETATM   10  C9  UNL     1     -30.027   4.272 -35.643  1.00  0.00     0.177 C
HETATM   11  C10 UNL     1     -26.715   5.049 -32.241  1.00  0.00     0.226 A
HETATM   12  O3  UNL     1     -25.548   5.169 -31.799  1.00  0.00    -0.284 OA
HETATM   13  C11 UNL     1     -27.779   5.202 -31.347  1.00  0.00     0.155 A
ENDROOT
BRANCH   1  14
HETATM   14  C3  UNL     1     -30.193   5.248 -30.805  1.00  0.00     0.214 C
HETATM   15  O1  UNL     1     -30.415   4.248 -30.044  1.00  0.00    -0.288 OA
BRANCH  14  16
HETATM   16  C2  UNL     1     -31.024   6.444 -30.693  1.00  0.00     0.358 C
BRANCH  16  17
HETATM   17  N1  UNL     1     -30.938   7.161 -29.465  1.00  0.00     0.097 N
HETATM   18  C1  UNL     1     -32.152   6.901 -28.670  1.00  0.00     0.310 C
BRANCH  17  19
HETATM   19  C12 UNL     1     -29.841   6.865 -28.605  1.00  0.00     0.339 C
BRANCH  19  20
HETATM   20  C13 UNL     1     -30.206   6.515 -27.212  1.00  0.00     0.118 A
HETATM   21  O5  UNL     1     -30.589   5.370 -26.714  1.00  0.00    -0.281 OA
HETATM   22  C14 UNL     1     -30.832   5.419 -25.444  1.00  0.00     0.255 A
HETATM   23  N7  UNL     1     -30.586   6.711 -25.087  1.00  0.00    -0.315 N
HETATM   24  C15 UNL     1     -30.197   7.404 -26.170  1.00  0.00     0.144 A
ATOM     25  H7  UNL     1     -30.682   7.092 -24.145  1.00  0.00     0.169 HD
BRANCH  22  26
HETATM   26  N6  UNL     1     -31.258   4.351 -24.635  1.00  0.00     0.007 NA
BRANCH  26  27
HETATM   27  O6  UNL     1     -32.196   4.717 -23.725  1.00  0.00    -0.281 OA
ATOM     28  H6  UNL     1     -32.436   4.011 -23.136  1.00  0.00     0.240 HD
ENDBRANCH  26  27
BRANCH  26  29
HETATM   29  O7  UNL     1     -31.781   3.330 -25.353  1.00  0.00    -0.281 OA
ATOM     30  H7  UNL     1     -31.154   2.633 -25.508  1.00  0.00     0.240 HD
ENDBRANCH  26  29
ENDBRANCH  22  26
BRANCH  24  31
HETATM   31  C16 UNL     1     -29.845   8.826 -26.183  1.00  0.00     0.229 C
HETATM   32  O8  UNL     1     -30.682   9.726 -26.371  1.00  0.00    -0.643 OA
HETATM   33  O9  UNL     1     -28.525   9.224 -25.979  1.00  0.00    -0.643 OA
ENDBRANCH  24  31
ENDBRANCH  19  20
ENDBRANCH  17  19
ENDBRANCH  16  17
ENDBRANCH  14  16
ENDBRANCH   1  14
BRANCH  13  34
HETATM   34  O4  UNL     1     -27.427   5.476 -30.031  1.00  0.00    -0.355 OA
ATOM     35  H4  UNL     1     -26.970   4.843 -29.491  1.00  0.00     0.218 HD
ENDBRANCH  13  34
BRANCH   5  36
HETATM   36  N2  UNL     1     -24.796   4.707 -34.182  1.00  0.00    -0.384 N
ATOM     37  H22 UNL     1     -24.483   4.662 -33.212  1.00  0.00     0.157 HD
ATOM     38  H21 UNL     1     -24.057   4.831 -34.874  1.00  0.00     0.157 HD
ENDBRANCH   5  36
BRANCH   8  39
HETATM   39  N4  UNL     1     -28.009   3.981 -37.342  1.00  0.00    -0.234 N
ATOM     40  H42 UNL     1     -28.235   4.760 -37.961  1.00  0.00     0.174 HD
ATOM     41  H41 UNL     1     -28.036   3.015 -37.668  1.00  0.00     0.174 HD
ENDBRANCH   8  39
TORSDOF 12
ENDMDL