MODEL 3
REMARK VINA RESULT: -7.385354124      3.276      5.331
REMARK  6 active torsions:
REMARK  status: ('A' for Active; 'I' for Inactive)
REMARK    1  A    between atoms: C5_5  and  N1_6
REMARK    2  A    between atoms: N1_6  and  C6_8
REMARK    3  A    between atoms: C6_8  and  N2_10
REMARK    4  A    between atoms: N2_10  and  C7_12
REMARK    5  A    between atoms: C10_15  and  O1_16
REMARK    6  A    between atoms: O1_16  and  C11_17
ROOT
HETATM    1  C6  UNL     1      -6.175   6.508  19.264  1.00  0.00     0.176 C
HETATM    2  S1  UNL     1      -4.669   6.778  19.786  1.00  0.00    -0.041 SA
ENDROOT
BRANCH   1   3
HETATM    3  N1  UNL     1      -7.216   7.370  19.767  1.00  0.00    -0.337 N
ATOM      4  H1  UNL     1      -7.809   7.045  20.531  1.00  0.00     0.168 HD
BRANCH   3   5
HETATM    5  C5  UNL     1      -7.432   8.664  19.219  1.00  0.00     0.013 C
HETATM    6  C4  UNL     1      -7.637   8.876  17.922  1.00  0.00     0.035 C
HETATM    7  C2  UNL     1      -7.860  10.200  17.350  1.00  0.00     0.074 C
HETATM    8  C1  UNL     1      -7.302  10.202  15.942  1.00  0.00     0.050 C
HETATM    9  C3  UNL     1      -9.365  10.403  17.222  1.00  0.00     0.050 C
HETATM   10  O2  UNL     1      -7.350  11.251  18.041  1.00  0.00    -0.366 OA
HETATM   11  C15 UNL     1      -6.833  11.032  19.271  1.00  0.00     0.060 C
HETATM   12  C14 UNL     1      -7.447   9.903  20.048  1.00  0.00     0.094 C
HETATM   13  C16 UNL     1      -5.328  10.763  19.211  1.00  0.00     0.046 C
HETATM   14  C17 UNL     1      -7.009  12.288  20.103  1.00  0.00     0.046 C
ENDBRANCH   3   5
ENDBRANCH   1   3
BRANCH   1  15
HETATM   15  N2  UNL     1      -6.466   5.449  18.386  1.00  0.00    -0.333 N
ATOM     16  H2  UNL     1      -6.395   4.494  18.735  1.00  0.00     0.168 HD
BRANCH  15  17
HETATM   17  C7  UNL     1      -6.852   5.649  17.048  1.00  0.00     0.034 A
HETATM   18  C8  UNL     1      -8.097   5.500  16.510  1.00  0.00     0.032 A
HETATM   19  C9  UNL     1      -8.394   5.758  15.167  1.00  0.00     0.039 A
HETATM   20  C10 UNL     1      -7.430   6.183  14.290  1.00  0.00     0.075 A
HETATM   21  C12 UNL     1      -6.138   6.341  14.827  1.00  0.00     0.039 A
HETATM   22  C13 UNL     1      -5.868   6.085  16.141  1.00  0.00     0.032 A
BRANCH  20  23
HETATM   23  O1  UNL     1      -7.636   6.460  12.953  1.00  0.00    -0.290 OA
BRANCH  23  24
HETATM   24  C11 UNL     1      -8.284   7.575  12.459  1.00  0.00     0.505 C
HETATM   25  F1  UNL     1      -7.606   8.023  11.317  1.00  0.00    -0.184 F
HETATM   26  F2  UNL     1      -8.332   8.617  13.395  1.00  0.00    -0.184 F
ENDBRANCH  23  24
ENDBRANCH  20  23
ENDBRANCH  15  17
ENDBRANCH   1  15
TORSDOF 6
ENDMDL