MODEL 2
REMARK VINA RESULT: -6.877653225      3.026      4.264
REMARK  7 active torsions:
REMARK  status: ('A' for Active; 'I' for Inactive)
REMARK    1  A    between atoms: O1_2  and  C2_3
REMARK    2  A    between atoms: C8_9  and  C9_10
REMARK    3  A    between atoms: C9_10  and  O2_11
REMARK    4  A    between atoms: C9_10  and  C10_13
REMARK    5  A    between atoms: C9_10  and  C14_17
REMARK    6  A    between atoms: C14_17  and  N1_19
REMARK    7  A    between atoms: C14_17  and  C16_23
ROOT
HETATM    1  C9  UNL     1      -6.020   5.804  17.287  1.00  0.00     0.136 C
ENDROOT
BRANCH   1   2
HETATM    2  C8  UNL     1      -6.805   7.088  17.085  1.00  0.00     0.022 A
HETATM    3  C7  UNL     1      -7.437   7.606  16.001  1.00  0.00     0.030 A
HETATM    4  C6  UNL     1      -8.061   8.800  16.133  1.00  0.00    -0.015 A
HETATM    5  C5  UNL     1      -8.763   9.523  15.128  1.00  0.00     0.013 A
HETATM    6  C17 UNL     1      -8.008   9.399  17.353  1.00  0.00     0.049 A
HETATM    7  C4  UNL     1      -9.328  10.734  15.407  1.00  0.00     0.004 A
HETATM    8  C3  UNL     1      -9.262  11.316  16.637  1.00  0.00     0.038 A
HETATM    9  C2  UNL     1      -8.600  10.657  17.634  1.00  0.00     0.086 A
HETATM   10  S1  UNL     1      -7.103   8.300  18.283  1.00  0.00    -0.088 SA
BRANCH   9  11
HETATM   11  O1  UNL     1      -8.432  11.084  18.921  1.00  0.00    -0.355 OA
HETATM   12  C1  UNL     1      -7.337  11.891  19.293  1.00  0.00     0.210 C
ENDBRANCH   9  11
ENDBRANCH   1   2
BRANCH   1  13
HETATM   13  O2  UNL     1      -6.542   5.449  18.607  1.00  0.00    -0.381 OA
ATOM     14  H2  UNL     1      -7.093   4.722  18.341  1.00  0.00     0.211 HD
ENDBRANCH   1  13
BRANCH   1  15
HETATM   15  C10 UNL     1      -4.616   6.087  17.469  1.00  0.00    -0.013 C
HETATM   16  C11 UNL     1      -3.685   4.886  17.466  1.00  0.00     0.018 C
HETATM   17  C12 UNL     1      -3.932   7.186  16.719  1.00  0.00     0.018 C
HETATM   18  C13 UNL     1      -4.378   6.533  18.987  1.00  0.00     0.018 C
ENDBRANCH   1  15
BRANCH   1  19
HETATM   19  C14 UNL     1      -6.533   4.676  16.515  1.00  0.00     0.214 C
HETATM   20  C15 UNL     1      -8.030   4.705  16.531  1.00  0.00     0.056 C
BRANCH  19  21
HETATM   21  N1  UNL     1      -6.181   3.433  17.290  1.00  0.00    -0.062 N
ATOM     22  H13 UNL     1      -6.179   2.588  16.719  1.00  0.00     0.275 HD
ATOM     23  H12 UNL     1      -5.202   3.398  17.573  1.00  0.00     0.275 HD
ATOM     24  H11 UNL     1      -6.831   3.388  18.075  1.00  0.00     0.275 HD
ENDBRANCH  19  21
BRANCH  19  25
HETATM   25  C16 UNL     1      -6.057   4.327  15.165  1.00  0.00     0.392 C
HETATM   26  F1  UNL     1      -5.601   5.568  14.629  1.00  0.00    -0.212 F
HETATM   27  F2  UNL     1      -5.045   3.489  14.952  1.00  0.00    -0.212 F
ENDBRANCH  19  25
ENDBRANCH   1  19
TORSDOF 7
ENDMDL