MODEL 1
REMARK VINA RESULT: -8.943755173      0.000      0.000
REMARK  4 active torsions:
REMARK  status: ('A' for Active; 'I' for Inactive)
REMARK    1  A    between atoms: C7_8  and  C8_9
REMARK    2  A    between atoms: C14_16  and  C15_17
REMARK    3  A    between atoms: C15_17  and  O1_18
REMARK    4  A    between atoms: C15_17  and  C16_20
ROOT
HETATM    1  C1  UNL     1      -9.174  11.206  16.924  1.00  0.00     0.049 C
HETATM    2  C2  UNL     1      -8.286  10.039  16.545  1.00  0.00    -0.048 A
HETATM    3  C3  UNL     1      -8.212   9.681  15.230  1.00  0.00     0.009 A
HETATM    4  C4  UNL     1      -7.449   8.613  14.820  1.00  0.00     0.024 A
HETATM    5  C5  UNL     1      -6.753   7.904  15.768  1.00  0.00     0.056 A
HETATM    6  C6  UNL     1      -5.956   6.792  15.340  1.00  0.00     0.100 C
HETATM    7  N1  UNL     1      -5.296   5.897  14.982  1.00  0.00    -0.191 NA
HETATM    8  C7  UNL     1      -6.835   8.283  17.132  1.00  0.00     0.008 A
HETATM    9  C14 UNL     1      -7.584   9.333  17.532  1.00  0.00     0.017 A
ENDROOT
BRANCH   8  10
HETATM   10  C8  UNL     1      -6.070   7.400  17.995  1.00  0.00    -0.023 A
HETATM   11  C9  UNL     1      -6.560   6.255  18.587  1.00  0.00     0.015 A
HETATM   12  C10 UNL     1      -5.768   5.424  19.347  1.00  0.00     0.043 A
HETATM   13  C11 UNL     1      -4.443   5.726  19.533  1.00  0.00     0.116 A
HETATM   14  F1  UNL     1      -3.627   4.925  20.280  1.00  0.00    -0.206 F
HETATM   15  C12 UNL     1      -3.933   6.864  18.949  1.00  0.00     0.043 A
HETATM   16  C13 UNL     1      -4.736   7.682  18.196  1.00  0.00     0.015 A
ENDBRANCH   8  10
BRANCH   9  17
HETATM   17  C15 UNL     1      -7.710   9.766  18.914  1.00  0.00     0.090 C
BRANCH  17  18
HETATM   18  O1  UNL     1      -7.968   8.655  19.744  1.00  0.00    -0.359 OA
ATOM     19  H1  UNL     1      -7.673   8.837  20.629  1.00  0.00     0.217 HD
ENDBRANCH  17  18
BRANCH  17  20
HETATM   20  C16 UNL     1      -6.805  10.754  19.465  1.00  0.00     0.037 A
HETATM   21  C17 UNL     1      -5.447  10.560  19.511  1.00  0.00     0.019 A
HETATM   22  C18 UNL     1      -4.594  11.501  20.108  1.00  0.00     0.027 A
HETATM   23  C19 UNL     1      -5.089  12.652  20.667  1.00  0.00     0.049 A
HETATM   24  N2  UNL     1      -4.246  13.630  21.283  1.00  0.00    -0.102 NA
HETATM   25  C20 UNL     1      -6.447  12.855  20.626  1.00  0.00     0.069 A
HETATM   26  C21 UNL     1      -7.277  11.907  20.029  1.00  0.00     0.131 A
HETATM   27  F2  UNL     1      -8.575  12.191  20.029  1.00  0.00    -0.205 F
ENDBRANCH  17  20
ENDBRANCH   9  17
TORSDOF 4
ENDMDL