MODEL 3
REMARK VINA RESULT: -7.085940495      3.148      5.003
REMARK  4 active torsions:
REMARK  status: ('A' for Active; 'I' for Inactive)
REMARK    1  A    between atoms: C4_5  and  O2_6
REMARK    2  A    between atoms: C5_8  and  C6_9
REMARK    3  A    between atoms: C6_9  and  C7_10
REMARK    4  A    between atoms: C9_13  and  C10_14
ROOT
HETATM    1  C1  UNL     1      -9.541   8.214  11.690  1.00  0.00     0.078 C
HETATM    2  C2  UNL     1      -9.101   8.689  13.043  1.00  0.00     0.072 A
HETATM    3  O1  UNL     1      -9.493   9.691  13.734  1.00  0.00    -0.310 OA
HETATM    4  C3  UNL     1      -8.859   9.772  14.883  1.00  0.00     0.122 A
HETATM    5  C4  UNL     1      -8.972  10.686  15.902  1.00  0.00     0.106 A
HETATM    6  C5  UNL     1      -8.167  10.525  17.000  1.00  0.00    -0.020 A
HETATM    7  C8  UNL     1      -7.279   9.492  17.085  1.00  0.00     0.029 A
HETATM    8  C9  UNL     1      -7.152   8.548  16.049  1.00  0.00     0.056 A
HETATM    9  C11 UNL     1      -7.956   8.706  14.947  1.00  0.00     0.042 A
HETATM   10  C12 UNL     1      -8.112   8.011  13.761  1.00  0.00     0.077 A
HETATM   11 CL1  UNL     1      -7.257   6.602  13.209  1.00  0.00    -0.081 Cl
ENDROOT
BRANCH   6  12
HETATM   12  C6  UNL     1      -8.249  11.455  18.138  1.00  0.00     0.052 C
BRANCH  12  13
HETATM   13  C7  UNL     1      -7.009  11.474  18.988  1.00  0.00     0.089 C
HETATM   14 BR1  UNL     1      -7.259  12.604  20.557  1.00  0.00    -0.096 Br
ENDBRANCH  12  13
ENDBRANCH   6  12
BRANCH   5  15
HETATM   15  O2  UNL     1      -9.899  11.747  15.791  1.00  0.00    -0.357 OA
ATOM     16  H2  UNL     1      -9.934  12.414  16.467  1.00  0.00     0.217 HD
ENDBRANCH   5  15
BRANCH   8  17
HETATM   17  C10 UNL     1      -6.246   7.447  16.214  1.00  0.00     0.210 C
HETATM   18  O3  UNL     1      -6.442   6.348  16.699  1.00  0.00    -0.644 OA
HETATM   19  O4  UNL     1      -4.920   7.665  15.740  1.00  0.00    -0.644 OA
ENDBRANCH   8  17
TORSDOF 4
ENDMDL