MODEL 1
REMARK VINA RESULT: -9.344334259      0.000      0.000
REMARK  4 active torsions:
REMARK  status: ('A' for Active; 'I' for Inactive)
REMARK    1  A    between atoms: C2_2  and  C4_4
REMARK    2  A    between atoms: C13_16  and  C14_17
REMARK    3  A    between atoms: C14_17  and  C15_18
REMARK    4  A    between atoms: C16_21  and  O3_22
ROOT
HETATM    1  C4  UNL     1      -7.957   8.613  15.390  1.00  0.00    -0.039 A
HETATM    2  C5  UNL     1      -8.967   9.066  14.582  1.00  0.00     0.054 A
HETATM    3  C6  UNL     1      -9.608  10.232  15.003  1.00  0.00     0.156 A
HETATM    4  F1  UNL     1     -10.681  10.703  14.229  1.00  0.00    -0.203 F
HETATM    5  C7  UNL     1      -9.244  10.888  16.132  1.00  0.00     0.166 A
HETATM    6  F2  UNL     1      -9.870  12.024  16.532  1.00  0.00    -0.202 F
HETATM    7  C8  UNL     1      -8.217  10.404  16.909  1.00  0.00     0.029 A
HETATM    8  C9  UNL     1      -7.539   9.233  16.560  1.00  0.00     0.007 A
HETATM    9  C10 UNL     1      -6.445   9.021  17.492  1.00  0.00     0.054 A
HETATM   10  S1  UNL     1      -5.367   7.768  17.486  1.00  0.00    -0.078 SA
HETATM   11  C11 UNL     1      -6.463  10.136  18.447  1.00  0.00    -0.002 A
HETATM   12  C12 UNL     1      -5.616  10.422  19.453  1.00  0.00     0.024 A
HETATM   13  C13 UNL     1      -5.759  11.607  20.219  1.00  0.00    -0.014 A
HETATM   14  C16 UNL     1      -6.786  12.443  19.907  1.00  0.00     0.073 A
HETATM   15  C17 UNL     1      -7.639  12.109  18.861  1.00  0.00     0.050 A
HETATM   16  C18 UNL     1      -7.488  10.955  18.117  1.00  0.00    -0.007 A
ENDROOT
BRANCH  13  17
HETATM   17  C14 UNL     1      -4.747  11.801  21.262  1.00  0.00     0.154 C
BRANCH  17  18
HETATM   18  C15 UNL     1      -3.753  12.873  21.040  1.00  0.00     0.177 C
HETATM   19  O1  UNL     1      -2.799  12.797  20.282  1.00  0.00    -0.648 OA
HETATM   20  O2  UNL     1      -3.932  14.078  21.782  1.00  0.00    -0.648 OA
ENDBRANCH  17  18
ENDBRANCH  13  17
BRANCH  14  21
HETATM   21  O3  UNL     1      -6.935  13.605  20.659  1.00  0.00    -0.360 OA
ATOM     22  H3  UNL     1      -7.216  13.520  21.563  1.00  0.00     0.217 HD
ENDBRANCH  14  21
BRANCH   1  23
HETATM   23  C2  UNL     1      -7.285   7.293  15.137  1.00  0.00     0.011 C
HETATM   24  C1  UNL     1      -7.434   6.953  13.635  1.00  0.00     0.015 C
HETATM   25  C3  UNL     1      -8.261   6.153  15.717  1.00  0.00     0.015 C
ENDBRANCH   1  23
TORSDOF 4
ENDMDL