MODEL 1
REMARK VINA RESULT: -8.895577729      0.000      0.000
REMARK  3 active torsions:
REMARK  status: ('A' for Active; 'I' for Inactive)
REMARK    1  A    between atoms: C7_7  and  C8_8
REMARK    2  A    between atoms: C11_12  and  C12_13
REMARK    3  A    between atoms: C15_17  and  O1_18
ROOT
HETATM    1  C1  UNL     1      -9.392   7.169  10.057  1.00  0.00     0.068 C
HETATM    2  C2  UNL     1      -8.802   7.323  11.431  1.00  0.00     0.007 A
HETATM    3  C3  UNL     1      -9.154   8.469  12.130  1.00  0.00     0.032 A
HETATM    4  C4  UNL     1      -8.653   8.683  13.403  1.00  0.00    -0.045 A
HETATM    5  C5  UNL     1      -9.103   9.778  14.273  1.00  0.00     0.049 C
HETATM    6  C6  UNL     1      -7.804   7.710  13.905  1.00  0.00     0.028 A
HETATM    7  C7  UNL     1      -7.202   7.640  15.190  1.00  0.00     0.021 A
HETATM    8  C11 UNL     1      -6.564   6.439  15.167  1.00  0.00     0.057 A
HETATM    9  N2  UNL     1      -6.746   5.820  13.940  1.00  0.00    -0.340 N
ATOM     10  H2  UNL     1      -6.370   4.910  13.671  1.00  0.00     0.167 HD
HETATM   11  C18 UNL     1      -7.484   6.599  13.179  1.00  0.00     0.117 A
HETATM   12  N3  UNL     1      -7.985   6.400  11.935  1.00  0.00    -0.346 N
ATOM     13  H3  UNL     1      -7.742   5.567  11.400  1.00  0.00     0.167 HD
ENDROOT
BRANCH   8  14
HETATM   14  C12 UNL     1      -5.660   5.763  16.096  1.00  0.00    -0.002 A
HETATM   15  C13 UNL     1      -4.546   6.391  16.586  1.00  0.00     0.059 A
HETATM   16  C14 UNL     1      -3.539   5.708  17.218  1.00  0.00     0.153 A
HETATM   17  F1  UNL     1      -2.436   6.283  17.668  1.00  0.00    -0.203 F
HETATM   18  C15 UNL     1      -3.640   4.312  17.363  1.00  0.00     0.143 A
HETATM   19  C16 UNL     1      -4.731   3.663  16.883  1.00  0.00     0.153 A
HETATM   20  F2  UNL     1      -4.833   2.301  16.912  1.00  0.00    -0.203 F
HETATM   21  C17 UNL     1      -5.769   4.401  16.246  1.00  0.00     0.059 A
BRANCH  18  22
HETATM   22  O1  UNL     1      -2.551   3.710  18.012  1.00  0.00    -0.355 OA
ATOM     23  H1  UNL     1      -2.735   2.858  18.387  1.00  0.00     0.218 HD
ENDBRANCH  18  22
ENDBRANCH   8  14
BRANCH   7  24
HETATM   24  C8  UNL     1      -7.092   8.846  15.979  1.00  0.00     0.099 C
HETATM   25  N1  UNL     1      -7.394   9.020  17.298  1.00  0.00    -0.398 N
HETATM   26  C9  UNL     1      -7.260   8.108  18.313  1.00  0.00     0.148 C
HETATM   27  C10 UNL     1      -7.163  10.377  17.719  1.00  0.00     0.148 C
ENDBRANCH   7  24
TORSDOF 3
ENDMDL