MODEL 1
REMARK VINA RESULT: -8.522401883      0.000      0.000
REMARK  3 active torsions:
REMARK  status: ('A' for Active; 'I' for Inactive)
REMARK    1  A    between atoms: O1_1  and  C1_3
REMARK    2  A    between atoms: C1_3  and  C2_4
REMARK    3  A    between atoms: C1_3  and  N2_16
ROOT
HETATM    1  C1  UNL     1      -5.396   4.101  16.420  1.00  0.00     0.408 C
ENDROOT
BRANCH   1   2
HETATM    2  O1  UNL     1      -6.398   3.628  17.253  1.00  0.00    -0.363 OA
ATOM      3  H1  UNL     1      -6.291   4.021  18.112  1.00  0.00     0.212 HD
ENDBRANCH   1   2
BRANCH   1   4
HETATM    4  C2  UNL     1      -4.703   2.956  15.819  1.00  0.00     0.070 A
HETATM    5  C3  UNL     1      -3.826   2.155  16.548  1.00  0.00     0.043 A
HETATM    6  C4  UNL     1      -3.333   1.173  15.730  1.00  0.00    -0.004 A
HETATM    7  C5  UNL     1      -2.436   0.128  15.955  1.00  0.00     0.017 A
HETATM    8  C9  UNL     1      -3.913   1.379  14.496  1.00  0.00     0.085 A
HETATM    9  C6  UNL     1      -2.128  -0.716  14.908  1.00  0.00     0.046 A
HETATM   10  C7  UNL     1      -2.703  -0.521  13.668  1.00  0.00     0.157 A
HETATM   11  F1  UNL     1      -2.401  -1.356  12.626  1.00  0.00    -0.203 F
HETATM   12  C8  UNL     1      -3.582   0.518  13.482  1.00  0.00     0.182 A
HETATM   13  F2  UNL     1      -4.144   0.701  12.249  1.00  0.00    -0.200 F
HETATM   14  N1  UNL     1      -4.730   2.458  14.585  1.00  0.00    -0.353 N
ATOM     15  H1  UNL     1      -5.286   2.834  13.816  1.00  0.00     0.166 HD
ENDBRANCH   1   4
BRANCH   1  16
HETATM   16  N2  UNL     1      -5.938   5.015  15.434  1.00  0.00     0.126 N
HETATM   17  C10 UNL     1      -4.875   5.939  15.097  1.00  0.00     0.279 C
HETATM   18  C11 UNL     1      -5.219   7.232  15.808  1.00  0.00     0.073 C
HETATM   19  C12 UNL     1      -6.728   7.234  15.667  1.00  0.00     0.124 C
HETATM   20  C13 UNL     1      -7.393   8.165  16.613  1.00  0.00     0.043 C
HETATM   21  O3  UNL     1      -7.015   7.465  14.332  1.00  0.00    -0.228 OA
HETATM   22  C17 UNL     1      -7.037   5.776  15.944  1.00  0.00     0.317 C
HETATM   23  C14 UNL     1      -8.523   8.948  16.065  1.00  0.00     0.005 C
HETATM   24  C15 UNL     1      -8.418   9.321  14.632  1.00  0.00     0.029 C
HETATM   25  C16 UNL     1      -9.019   8.168  13.818  1.00  0.00     0.210 C
HETATM   26  O2  UNL     1      -8.207   7.039  13.978  1.00  0.00    -0.240 OA
ENDBRANCH   1  16
TORSDOF 3
ENDMDL