MODEL 3
REMARK VINA RESULT: -6.648145250      5.216      7.434
REMARK  5 active torsions:
REMARK  status: ('A' for Active; 'I' for Inactive)
REMARK    1  A    between atoms: C2_2  and  C4_5
REMARK    2  A    between atoms: C4_5  and  N1_8
REMARK    3  A    between atoms: N1_8  and  N2_10
REMARK    4  A    between atoms: C7_12  and  C8_13
REMARK    5  A    between atoms: C11_16  and  O1_17
ROOT
HETATM    1  N2  UNL     1      -5.651   8.502  17.516  1.00  0.00    -0.315 N
ATOM      2  H2  UNL     1      -6.046   7.973  16.738  1.00  0.00     0.185 HD
HETATM    3  C7  UNL     1      -6.224   9.600  17.860  1.00  0.00     0.118 C
ENDROOT
BRANCH   1   4
HETATM    4  N1  UNL     1      -4.524   8.000  18.146  1.00  0.00    -0.326 N
ATOM      5  H1  UNL     1      -3.694   8.582  18.259  1.00  0.00     0.181 HD
BRANCH   4   6
HETATM    6  C4  UNL     1      -4.536   6.650  18.641  1.00  0.00     0.059 C
HETATM    7  C5  UNL     1      -3.324   5.946  18.069  1.00  0.00     0.041 C
HETATM    8  C6  UNL     1      -5.762   5.904  18.179  1.00  0.00     0.041 C
BRANCH   6   9
HETATM    9  C2  UNL     1      -4.455   6.642  20.152  1.00  0.00     0.056 C
HETATM   10  C1  UNL     1      -4.263   5.256  20.699  1.00  0.00     0.035 C
HETATM   11  C3  UNL     1      -3.311   7.495  20.655  1.00  0.00     0.035 C
HETATM   12 CL1  UNL     1      -5.949   7.300  20.843  1.00  0.00    -0.117 Cl
ENDBRANCH   6   9
ENDBRANCH   4   6
ENDBRANCH   1   4
BRANCH   3  13
HETATM   13  C8  UNL     1      -7.408  10.050  17.138  1.00  0.00    -0.018 A
HETATM   14  C9  UNL     1      -8.290  10.947  17.701  1.00  0.00     0.015 A
HETATM   15  C10 UNL     1      -9.404  11.361  17.003  1.00  0.00     0.039 A
HETATM   16  C11 UNL     1      -9.634  10.872  15.732  1.00  0.00     0.083 A
HETATM   17  C12 UNL     1      -8.766   9.968  15.133  1.00  0.00     0.044 A
HETATM   18 BR1  UNL     1      -9.053   9.278  13.386  1.00  0.00    -0.048 Br
HETATM   19  C13 UNL     1      -7.670   9.583  15.863  1.00  0.00     0.034 A
BRANCH  16  20
HETATM   20  O1  UNL     1     -10.738  11.269  15.011  1.00  0.00    -0.359 OA
ATOM     21  H1  UNL     1     -11.467  10.676  14.869  1.00  0.00     0.217 HD
ENDBRANCH  16  20
ENDBRANCH   3  13
TORSDOF 5
ENDMDL