MODEL 3
REMARK VINA RESULT: -7.689914302      1.818      2.074
REMARK  4 active torsions:
REMARK  status: ('A' for Active; 'I' for Inactive)
REMARK    1  A    between atoms: C2_2  and  C3_3
REMARK    2  A    between atoms: C3_3  and  C4_4
REMARK    3  A    between atoms: C5_5  and  C6_6
REMARK    4  A    between atoms: C14_20  and  C15_21
ROOT
HETATM    1  C4  UNL     1      -6.188   8.431  16.456  1.00  0.00     0.005 C
HETATM    2  C5  UNL     1      -6.209   7.038  16.045  1.00  0.00     0.000 C
HETATM    3  C10 UNL     1      -5.798   6.312  17.320  1.00  0.00     0.039 C
HETATM    4  C11 UNL     1      -5.805   7.356  18.441  1.00  0.00     0.064 C
HETATM    5  C12 UNL     1      -6.212   6.766  19.735  1.00  0.00     0.210 C
HETATM    6  O1  UNL     1      -4.971   6.582  20.432  1.00  0.00    -0.320 OA
HETATM    7  C13 UNL     1      -4.045   7.480  19.955  1.00  0.00     0.213 C
HETATM    8  N1  UNL     1      -3.026   7.982  20.561  1.00  0.00    -0.365 N
ATOM      9  H11 UNL     1      -2.340   8.648  20.208  1.00  0.00     0.159 HD
ATOM     10  H12 UNL     1      -2.744   7.783  21.521  1.00  0.00     0.159 HD
HETATM   11  N2  UNL     1      -4.446   7.762  18.594  1.00  0.00    -0.344 N
ATOM     12  H2  UNL     1      -3.859   8.178  17.871  1.00  0.00     0.164 HD
HETATM   13  C14 UNL     1      -6.742   8.413  17.859  1.00  0.00     0.057 C
ENDROOT
BRANCH  13  14
HETATM   14  C15 UNL     1      -6.601   9.691  18.594  1.00  0.00    -0.009 A
HETATM   15  C16 UNL     1      -5.380  10.202  18.964  1.00  0.00     0.011 A
HETATM   16  C17 UNL     1      -5.272  11.359  19.738  1.00  0.00     0.004 A
HETATM   17  C18 UNL     1      -6.414  12.010  20.145  1.00  0.00     0.045 A
HETATM   18  C19 UNL     1      -7.666  11.529  19.794  1.00  0.00     0.155 A
HETATM   19  F1  UNL     1      -8.776  12.184  20.210  1.00  0.00    -0.203 F
HETATM   20  C20 UNL     1      -7.739  10.378  19.022  1.00  0.00     0.161 A
HETATM   21  F2  UNL     1      -8.984   9.987  18.656  1.00  0.00    -0.202 F
ENDBRANCH  13  14
BRANCH   2  22
HETATM   22  C6  UNL     1      -7.356   6.338  15.490  1.00  0.00    -0.047 C
HETATM   23  C7  UNL     1      -7.047   4.825  15.714  1.00  0.00     0.015 C
HETATM   24  C8  UNL     1      -8.707   6.527  16.056  1.00  0.00     0.015 C
HETATM   25  C9  UNL     1      -7.381   6.406  13.950  1.00  0.00     0.015 C
ENDBRANCH   2  22
BRANCH   1  26
HETATM   26  C3  UNL     1      -6.551   9.542  15.585  1.00  0.00     0.032 C
BRANCH  26  27
HETATM   27  C2  UNL     1      -8.005   9.856  15.545  1.00  0.00    -0.037 C
HETATM   28  C1  UNL     1      -8.631   9.771  14.368  1.00  0.00     0.007 C
ENDBRANCH  26  27
ENDBRANCH   1  26
TORSDOF 4
ENDMDL