MODEL 5
REMARK VINA RESULT: -8.362935276      3.323      5.475
REMARK  6 active torsions:
REMARK  status: ('A' for Active; 'I' for Inactive)
REMARK    1  A    between atoms: C2_2  and  C5_5
REMARK    2  A    between atoms: C8_9  and  N1_10
REMARK    3  A    between atoms: N1_10  and  C9_12
REMARK    4  A    between atoms: C11_14  and  C12_15
REMARK    5  A    between atoms: C12_15  and  O1_16
REMARK    6  A    between atoms: N3_20  and  C13_21
ROOT
HETATM    1  C9  UNL     1      -7.857   6.689  15.677  1.00  0.00     0.130 A
HETATM    2  C10 UNL     1      -7.945   6.126  14.425  1.00  0.00     0.079 A
HETATM    3  C11 UNL     1      -7.826   7.167  13.539  1.00  0.00     0.053 A
HETATM    4  N2  UNL     1      -7.676   8.278  14.269  1.00  0.00    -0.294 N
ATOM      5  H2  UNL     1      -7.564   9.213  13.876  1.00  0.00     0.187 HD
HETATM    6  N3  UNL     1      -7.692   8.009  15.564  1.00  0.00    -0.240 N
ENDROOT
BRANCH   1   7
HETATM    7  N1  UNL     1      -7.920   6.070  16.803  1.00  0.00    -0.336 N
ATOM      8  H1  UNL     1      -8.835   5.791  17.157  1.00  0.00     0.168 HD
BRANCH   7   9
HETATM    9  C8  UNL     1      -6.762   5.756  17.579  1.00  0.00     0.111 A
HETATM   10  C7  UNL     1      -5.783   4.915  17.101  1.00  0.00     0.146 A
HETATM   11  C6  UNL     1      -4.663   4.619  17.867  1.00  0.00     0.052 A
HETATM   12  F1  UNL     1      -5.877   4.349  15.872  1.00  0.00    -0.204 F
HETATM   13  C5  UNL     1      -4.486   5.151  19.128  1.00  0.00    -0.045 A
HETATM   14  C20 UNL     1      -5.470   5.994  19.603  1.00  0.00     0.052 A
HETATM   15  C19 UNL     1      -6.570   6.283  18.847  1.00  0.00     0.146 A
HETATM   16  F2  UNL     1      -7.532   7.107  19.312  1.00  0.00    -0.204 F
BRANCH  13  17
HETATM   17  C2  UNL     1      -3.281   4.816  19.918  1.00  0.00    -0.024 C
HETATM   18  C1  UNL     1      -2.440   6.070  20.102  1.00  0.00     0.019 C
HETATM   19  C3  UNL     1      -2.433   3.794  19.213  1.00  0.00     0.019 C
HETATM   20  C4  UNL     1      -3.696   4.346  21.281  1.00  0.00     0.019 C
ENDBRANCH  13  17
ENDBRANCH   7   9
ENDBRANCH   1   7
BRANCH   6  21
HETATM   21  C13 UNL     1      -7.560   8.942  16.603  1.00  0.00     0.058 A
HETATM   22  C14 UNL     1      -8.637   9.592  17.173  1.00  0.00     0.031 A
HETATM   23  C15 UNL     1      -8.518  10.509  18.192  1.00  0.00     0.002 A
HETATM   24  C16 UNL     1      -7.273  10.807  18.682  1.00  0.00     0.000 A
HETATM   25  C17 UNL     1      -6.179  10.169  18.128  1.00  0.00     0.002 A
HETATM   26  C18 UNL     1      -6.303   9.251  17.107  1.00  0.00     0.031 A
ENDBRANCH   6  21
BRANCH   3  27
HETATM   27  C12 UNL     1      -7.867   7.000  12.064  1.00  0.00     0.222 C
BRANCH  27  28
HETATM   28  O1  UNL     1      -8.177   5.682  11.719  1.00  0.00    -0.395 OA
ATOM     29  H1  UNL     1      -7.505   5.084  12.023  1.00  0.00     0.209 HD
ENDBRANCH  27  28
ENDBRANCH   3  27
TORSDOF 6
ENDMDL