MODEL 3
REMARK VINA RESULT: -7.187839666      1.381      1.446
REMARK  3 active torsions:
REMARK  status: ('A' for Active; 'I' for Inactive)
REMARK    1  A    between atoms: C2_2  and  N1_4
REMARK       I    between atoms: N1_4  and  C4_6
REMARK       I    between atoms: C4_6  and  N2_8
REMARK       I    between atoms: N2_8  and  C5_10
REMARK    2  A    between atoms: C5_10  and  C6_12
REMARK    3  A    between atoms: C10_16  and  N3_17
ROOT
HETATM    1  N1  UNL     1     -22.777 -26.594 -14.342  1.00  0.00    -0.339 N
ATOM      2  H1  UNL     1     -23.232 -26.120 -15.122  1.00  0.00     0.164 HD
HETATM    3  C4  UNL     1     -21.395 -26.446 -14.160  1.00  0.00     0.323 C
HETATM    4  O1  UNL     1     -20.871 -27.071 -13.154  1.00  0.00    -0.247 OA
HETATM    5  N2  UNL     1     -20.526 -25.699 -14.942  1.00  0.00    -0.275 N
ATOM      6  H2  UNL     1     -19.542 -25.695 -14.671  1.00  0.00     0.173 HD
HETATM    7  C5  UNL     1     -20.879 -24.950 -16.068  1.00  0.00     0.259 C
HETATM    8  O2  UNL     1     -22.045 -24.887 -16.488  1.00  0.00    -0.267 OA
ENDROOT
BRANCH   7   9
HETATM    9  C6  UNL     1     -19.881 -24.187 -16.831  1.00  0.00     0.034 A
HETATM   10  C7  UNL     1     -20.122 -23.702 -18.089  1.00  0.00     0.017 A
HETATM   11  C8  UNL     1     -19.154 -22.978 -18.784  1.00  0.00     0.003 A
HETATM   12  C9  UNL     1     -17.926 -22.730 -18.225  1.00  0.00     0.036 A
HETATM   13  C10 UNL     1     -17.639 -23.209 -16.939  1.00  0.00     0.103 A
HETATM   14  C11 UNL     1     -18.630 -23.916 -16.301  1.00  0.00     0.053 A
BRANCH  13  15
HETATM   15  N3  UNL     1     -16.371 -22.959 -16.348  1.00  0.00    -0.116 N
HETATM   16  O3  UNL     1     -16.138 -23.354 -15.197  1.00  0.00    -0.532 OA
HETATM   17  O4  UNL     1     -15.392 -22.287 -17.023  1.00  0.00    -0.532 OA
ENDBRANCH  13  15
ENDBRANCH   7   9
BRANCH   1  18
HETATM   18  C2  UNL     1     -23.583 -27.424 -13.428  1.00  0.00     0.078 C
HETATM   19  C1  UNL     1     -24.195 -28.572 -14.164  1.00  0.00     0.032 C
HETATM   20  C3  UNL     1     -24.660 -26.545 -12.860  1.00  0.00     0.032 C
ENDBRANCH   1  18
TORSDOF 3
ENDMDL