MODEL 3
REMARK VINA RESULT: -7.304690282      0.113      1.114
REMARK  5 active torsions:
REMARK  status: ('A' for Active; 'I' for Inactive)
REMARK    1  A    between atoms: C1_4  and  N2_5
REMARK    2  A    between atoms: C1_4  and  C9_16
REMARK    3  A    between atoms: N2_5  and  O1_7
REMARK    4  A    between atoms: O1_7  and  C2_8
REMARK    5  A    between atoms: C2_8  and  C3_10
ROOT
HETATM    1  N1  UNL     1     -17.409 -23.825 -19.083  1.00  0.00    -0.383 N
ATOM      2  H11 UNL     1     -17.890 -24.586 -19.562  1.00  0.00     0.157 HD
ATOM      3  H12 UNL     1     -16.509 -23.471 -19.407  1.00  0.00     0.157 HD
HETATM    4  C1  UNL     1     -18.029 -23.358 -18.050  1.00  0.00     0.130 C
ENDROOT
BRANCH   4   5
HETATM    5  N2  UNL     1     -17.354 -22.290 -17.379  1.00  0.00    -0.241 N
ATOM      6  H2  UNL     1     -17.232 -21.384 -17.829  1.00  0.00     0.196 HD
BRANCH   5   7
HETATM    7  O1  UNL     1     -16.877 -22.517 -16.113  1.00  0.00    -0.193 OA
BRANCH   7   8
HETATM    8  C2  UNL     1     -15.711 -23.208 -15.854  1.00  0.00     0.315 C
HETATM    9  O2  UNL     1     -14.646 -22.862 -16.409  1.00  0.00    -0.257 OA
BRANCH   8  10
HETATM   10  C3  UNL     1     -15.693 -24.336 -14.942  1.00  0.00     0.041 A
HETATM   11  C4  UNL     1     -14.876 -24.291 -13.819  1.00  0.00     0.017 A
HETATM   12  C5  UNL     1     -14.832 -25.343 -12.930  1.00  0.00     0.001 A
HETATM   13  C6  UNL     1     -15.609 -26.463 -13.151  1.00  0.00     0.000 A
HETATM   14  C7  UNL     1     -16.441 -26.543 -14.268  1.00  0.00     0.001 A
HETATM   15  C8  UNL     1     -16.451 -25.468 -15.125  1.00  0.00     0.017 A
ENDBRANCH   8  10
ENDBRANCH   7   8
ENDBRANCH   5   7
ENDBRANCH   4   5
BRANCH   4  16
HETATM   16  C9  UNL     1     -19.312 -23.862 -17.588  1.00  0.00     0.012 A
HETATM   17  C10 UNL     1     -20.457 -23.903 -18.341  1.00  0.00     0.032 A
HETATM   18  C11 UNL     1     -21.650 -24.393 -17.850  1.00  0.00     0.088 A
HETATM   19  N3  UNL     1     -21.693 -24.855 -16.566  1.00  0.00    -0.375 N
HETATM   20  C12 UNL     1     -20.591 -24.836 -15.783  1.00  0.00     0.088 A
ATOM     21  H3  UNL     1     -22.569 -25.219 -16.192  1.00  0.00     0.164 HD
HETATM   22  C13 UNL     1     -19.394 -24.337 -16.299  1.00  0.00     0.032 A
ENDBRANCH   4  16
TORSDOF 5
ENDMDL