MODEL 4
REMARK VINA RESULT: -6.734623885      2.404      3.120
REMARK  3 active torsions:
REMARK  status: ('A' for Active; 'I' for Inactive)
REMARK       I    between atoms: C1_2  and  N1_3
REMARK    1  A    between atoms: C1_2  and  C7_14
REMARK    2  A    between atoms: N1_3  and  N2_5
REMARK       I    between atoms: N2_5  and  C2_7
REMARK    3  A    between atoms: C2_7  and  C3_9
ROOT
HETATM    1  O1  UNL     1     -21.623 -24.731 -16.169  1.00  0.00    -0.266 OA
HETATM    2  C1  UNL     1     -20.953 -25.084 -17.179  1.00  0.00     0.271 C
HETATM    3  N1  UNL     1     -21.369 -26.198 -17.970  1.00  0.00    -0.263 N
ATOM      4  H1  UNL     1     -20.831 -26.492 -18.786  1.00  0.00     0.190 HD
ENDROOT
BRANCH   3   5
HETATM    5  N2  UNL     1     -22.543 -26.882 -17.594  1.00  0.00    -0.263 N
HETATM    6  C2  UNL     1     -22.683 -28.281 -17.770  1.00  0.00     0.277 C
HETATM    7  O2  UNL     1     -21.759 -28.962 -18.270  1.00  0.00    -0.265 OA
ATOM      8  H2  UNL     1     -23.314 -26.355 -17.183  1.00  0.00     0.190 HD
BRANCH   6   9
HETATM    9  C3  UNL     1     -23.937 -28.921 -17.355  1.00  0.00     0.074 A
HETATM   10  C4  UNL     1     -24.261 -30.249 -17.325  1.00  0.00     0.025 A
HETATM   11  C5  UNL     1     -25.484 -30.578 -16.898  1.00  0.00     0.009 A
HETATM   12  C6  UNL     1     -26.316 -29.555 -16.525  1.00  0.00     0.050 A
HETATM   13  S1  UNL     1     -25.357 -28.170 -16.785  1.00  0.00    -0.097 SA
ENDBRANCH   6   9
ENDBRANCH   3   5
BRANCH   2  14
HETATM   14  C7  UNL     1     -19.756 -24.334 -17.515  1.00  0.00     0.049 A
HETATM   15  C8  UNL     1     -19.744 -23.371 -18.490  1.00  0.00     0.020 A
HETATM   16  C9  UNL     1     -18.560 -22.692 -18.763  1.00  0.00     0.018 A
HETATM   17  C10 UNL     1     -17.413 -22.980 -18.064  1.00  0.00     0.087 A
HETATM   18  N3  UNL     1     -17.442 -23.930 -17.108  1.00  0.00    -0.374 N
HETATM   19  C11 UNL     1     -18.574 -24.575 -16.852  1.00  0.00     0.104 A
ATOM     20  H3  UNL     1     -16.596 -24.153 -16.583  1.00  0.00     0.164 HD
ENDBRANCH   2  14
TORSDOF 3
ENDMDL