MODEL 1
REMARK VINA RESULT: -6.366178084      0.000      0.000
REMARK  3 active torsions:
REMARK  status: ('A' for Active; 'I' for Inactive)
REMARK    1  A    between atoms: O1_2  and  C2_3
REMARK    2  A    between atoms: C5_6  and  C6_7
REMARK       I    between atoms: C6_7  and  N1_9
REMARK       I    between atoms: N1_9  and  C7_11
REMARK       I    between atoms: C7_11  and  N2_13
REMARK    3  A    between atoms: N2_13  and  C8_15
ROOT
HETATM    1  C6  UNL     1     -20.522 -25.402 -17.477  1.00  0.00     0.283 C
HETATM    2  O2  UNL     1     -20.957 -26.288 -18.026  1.00  0.00    -0.265 OA
HETATM    3  N1  UNL     1     -21.074 -25.157 -15.836  1.00  0.00    -0.273 N
ATOM      4  H1  UNL     1     -20.797 -24.479 -15.125  1.00  0.00     0.173 HD
HETATM    5  C7  UNL     1     -21.991 -26.160 -15.816  1.00  0.00     0.323 C
HETATM    6  O3  UNL     1     -22.392 -26.930 -16.688  1.00  0.00    -0.247 OA
HETATM    7  N2  UNL     1     -22.618 -26.344 -14.466  1.00  0.00    -0.335 N
ATOM      8  H2  UNL     1     -22.324 -25.753 -13.689  1.00  0.00     0.165 HD
ENDROOT
BRANCH   1   9
HETATM    9  C5  UNL     1     -19.593 -24.374 -17.782  1.00  0.00     0.146 A
HETATM   10  C4  UNL     1     -19.544 -23.671 -19.001  1.00  0.00     0.048 A
HETATM   11  C3  UNL     1     -18.522 -22.773 -18.890  1.00  0.00     0.067 A
HETATM   12  C2  UNL     1     -17.958 -22.924 -17.621  1.00  0.00     0.185 A
HETATM   13  O4  UNL     1     -18.629 -23.862 -17.056  1.00  0.00    -0.282 OA
BRANCH  12  14
HETATM   14  O1  UNL     1     -16.906 -22.232 -17.064  1.00  0.00    -0.335 OA
HETATM   15  C1  UNL     1     -15.742 -22.838 -16.564  1.00  0.00     0.212 C
ENDBRANCH  12  14
ENDBRANCH   1   9
BRANCH   7  16
HETATM   16  C8  UNL     1     -23.621 -27.336 -14.257  1.00  0.00     0.023 C
HETATM   17  C9  UNL     1     -24.296 -27.085 -12.934  1.00  0.00     0.037 C
HETATM   18  C10 UNL     1     -22.977 -28.709 -14.271  1.00  0.00     0.037 C
HETATM   19  C11 UNL     1     -24.663 -27.275 -15.364  1.00  0.00     0.037 C
ENDBRANCH   7  16
TORSDOF 3
ENDMDL