MODEL 1
REMARK VINA RESULT: -6.355003245      0.000      0.000
REMARK  5 active torsions:
REMARK  status: ('A' for Active; 'I' for Inactive)
REMARK    1  A    between atoms: C2_2  and  C3_3
REMARK    2  A    between atoms: C5_7  and  C6_8
REMARK    3  A    between atoms: C6_8  and  O3_10
REMARK    4  A    between atoms: C10_14  and  C11_15
REMARK    5  A    between atoms: C11_15  and  O4_18
ROOT
HETATM    1  C3  UNL     1     -22.239 -26.556 -16.447  1.00  0.00     0.114 C
HETATM    2  C4  UNL     1     -21.637 -27.099 -17.714  1.00  0.00     0.267 C
HETATM    3  O1  UNL     1     -21.765 -28.277 -18.057  1.00  0.00    -0.265 OA
HETATM    4  O2  UNL     1     -20.936 -26.200 -18.467  1.00  0.00    -0.312 OA
HETATM    5  C5  UNL     1     -20.529 -24.995 -17.793  1.00  0.00     0.164 C
HETATM    6  C8  UNL     1     -20.158 -25.260 -16.367  1.00  0.00     0.022 C
HETATM    7  C9  UNL     1     -19.875 -23.906 -15.734  1.00  0.00     0.013 C
HETATM    8  C10 UNL     1     -21.204 -25.997 -15.561  1.00  0.00     0.043 C
ENDROOT
BRANCH   8   9
HETATM    9  C11 UNL     1     -20.622 -26.868 -14.506  1.00  0.00     0.056 C
HETATM   10  C12 UNL     1     -21.287 -26.732 -13.159  1.00  0.00     0.045 C
HETATM   11  C13 UNL     1     -19.145 -26.558 -14.247  1.00  0.00     0.045 C
BRANCH   9  12
HETATM   12  O4  UNL     1     -20.618 -28.225 -14.857  1.00  0.00    -0.390 OA
ATOM     13  H4  UNL     1     -20.683 -28.803 -14.106  1.00  0.00     0.210 HD
ENDBRANCH   9  12
ENDBRANCH   8   9
BRANCH   1  14
HETATM   14  C2  UNL     1     -23.156 -27.565 -15.963  1.00  0.00    -0.022 C
HETATM   15  C1  UNL     1     -24.296 -27.224 -15.385  1.00  0.00     0.008 C
ENDBRANCH   1  14
BRANCH   5  16
HETATM   16  C6  UNL     1     -19.250 -24.614 -18.552  1.00  0.00     0.144 C
HETATM   17  C7  UNL     1     -19.288 -23.158 -18.948  1.00  0.00     0.042 C
BRANCH  16  18
HETATM   18  O3  UNL     1     -18.944 -25.470 -19.563  1.00  0.00    -0.393 OA
ATOM     19  H3  UNL     1     -19.440 -25.310 -20.357  1.00  0.00     0.210 HD
ENDBRANCH  16  18
ENDBRANCH   5  16
TORSDOF 5
ENDMDL