MODEL 4
REMARK VINA RESULT: -5.444225575      2.942      5.210
REMARK  4 active torsions:
REMARK  status: ('A' for Active; 'I' for Inactive)
REMARK    1  A    between atoms: C2_2  and  C4_4
REMARK    2  A    between atoms: C5_7  and  N2_8
REMARK    3  A    between atoms: N2_8  and  C6_10
REMARK    4  A    between atoms: C7_14  and  N4_15
ROOT
HETATM    1  C4  UNL     1     -19.097 -24.113 -17.352  1.00  0.00     0.055 A
HETATM    2  N1  UNL     1     -18.000 -23.660 -16.806  1.00  0.00    -0.337 N
ATOM      3  H1  UNL     1     -17.425 -22.973 -17.291  1.00  0.00     0.168 HD
HETATM    4  C5  UNL     1     -17.644 -24.113 -15.600  1.00  0.00     0.153 A
HETATM    5  S2  UNL     1     -18.884 -25.209 -15.214  1.00  0.00    -0.028 SA
HETATM    6  C7  UNL     1     -19.833 -25.035 -16.655  1.00  0.00     0.170 A
ENDROOT
BRANCH   4   7
HETATM    7  N2  UNL     1     -16.561 -23.755 -14.933  1.00  0.00    -0.316 N
ATOM      8  H2  UNL     1     -16.646 -23.444 -13.966  1.00  0.00     0.170 HD
BRANCH   7   9
HETATM    9  C6  UNL     1     -15.304 -23.797 -15.533  1.00  0.00     0.187 C
HETATM   10  N3  UNL     1     -14.965 -22.710 -16.396  1.00  0.00    -0.070 NA
HETATM   11  S1  UNL     1     -14.252 -25.016 -15.290  1.00  0.00    -0.044 SA
ENDBRANCH   7   9
ENDBRANCH   4   7
BRANCH   1  12
HETATM   12  C2  UNL     1     -19.615 -23.647 -18.713  1.00  0.00     0.030 C
HETATM   13  C1  UNL     1     -19.013 -24.580 -19.791  1.00  0.00     0.016 C
HETATM   14  C3  UNL     1     -19.113 -22.279 -19.067  1.00  0.00     0.016 C
ENDBRANCH   1  12
BRANCH   6  15
HETATM   15  N4  UNL     1     -21.039 -25.729 -16.980  1.00  0.00    -0.106 N
HETATM   16  O1  UNL     1     -21.120 -26.614 -17.819  1.00  0.00    -0.531 OA
HETATM   17  O2  UNL     1     -22.164 -25.360 -16.279  1.00  0.00    -0.531 OA
ENDBRANCH   6  15
TORSDOF 4
ENDMDL