MODEL 3
REMARK VINA RESULT: -6.234196891      6.575      8.295
REMARK  6 active torsions:
REMARK  status: ('A' for Active; 'I' for Inactive)
REMARK    1  A    between atoms: C2_2  and  C4_4
REMARK    2  A    between atoms: C4_4  and  O2_6
REMARK    3  A    between atoms: O2_6  and  C5_7
REMARK    4  A    between atoms: C7_9  and  C8_10
REMARK    5  A    between atoms: C8_10  and  O3_11
REMARK    6  A    between atoms: C8_10  and  O4_13
ROOT
HETATM    1  C5  UNL     1     -18.259 -23.724 -17.098  1.00  0.00     0.141 C
HETATM    2  C6  UNL     1     -18.900 -24.911 -16.461  1.00  0.00     0.048 C
HETATM    3  C7  UNL     1     -20.314 -24.933 -16.928  1.00  0.00     0.016 A
HETATM    4  C9  UNL     1     -21.117 -23.715 -17.099  1.00  0.00     0.021 A
HETATM    5  C10 UNL     1     -20.291 -24.268 -18.241  1.00  0.00     0.010 A
HETATM    6  C11 UNL     1     -18.969 -23.587 -18.424  1.00  0.00    -0.016 C
HETATM    7  C12 UNL     1     -18.159 -24.172 -19.544  1.00  0.00     0.018 C
HETATM    8  C13 UNL     1     -19.198 -22.103 -18.664  1.00  0.00     0.018 C
ENDROOT
BRANCH   1   9
HETATM    9  O2  UNL     1     -16.883 -23.993 -17.260  1.00  0.00    -0.311 OA
BRANCH   9  10
HETATM   10  C4  UNL     1     -15.900 -23.395 -16.471  1.00  0.00     0.288 C
HETATM   11  O1  UNL     1     -15.410 -22.327 -16.905  1.00  0.00    -0.260 OA
BRANCH  10  12
HETATM   12  C2  UNL     1     -15.480 -23.996 -15.216  1.00  0.00     0.004 C
HETATM   13  C1  UNL     1     -15.064 -23.222 -14.232  1.00  0.00     0.024 C
HETATM   14  C3  UNL     1     -15.541 -25.476 -15.098  1.00  0.00     0.054 C
ENDBRANCH  10  12
ENDBRANCH   9  10
ENDBRANCH   1   9
BRANCH   3  15
HETATM   15  C8  UNL     1     -21.057 -26.222 -16.703  1.00  0.00     0.262 C
BRANCH  15  16
HETATM   16  O3  UNL     1     -22.241 -26.039 -15.999  1.00  0.00    -0.371 OA
ATOM     17  H3  UNL     1     -22.972 -25.823 -16.566  1.00  0.00     0.212 HD
ENDBRANCH  15  16
BRANCH  15  18
HETATM   18  O4  UNL     1     -21.302 -26.851 -17.907  1.00  0.00    -0.371 OA
ATOM     19  H4  UNL     1     -21.108 -27.778 -17.841  1.00  0.00     0.212 HD
ENDBRANCH  15  18
ENDBRANCH   3  15
TORSDOF 6
ENDMDL