MODEL 4
REMARK VINA RESULT: -5.767332226      1.691      2.245
REMARK  5 active torsions:
REMARK  status: ('A' for Active; 'I' for Inactive)
REMARK    1  A    between atoms: O1_2  and  C2_3
REMARK       I    between atoms: C2_3  and  N1_5
REMARK    2  A    between atoms: N1_5  and  C3_7
REMARK    3  A    between atoms: C3_7  and  N2_9
REMARK    4  A    between atoms: N2_9  and  C4_11
REMARK    5  A    between atoms: C9_16  and  N3_17
ROOT
HETATM    1  N2  UNL     1     -23.674 -28.538 -14.347  1.00  0.00    -0.331 N
ATOM      2  H2  UNL     1     -24.397 -29.257 -14.321  1.00  0.00     0.168 HD
ENDROOT
BRANCH   1   3
HETATM    3  C3  UNL     1     -23.333 -28.029 -13.087  1.00  0.00     0.180 C
HETATM    4  S1  UNL     1     -22.403 -28.786 -11.995  1.00  0.00    -0.040 SA
BRANCH   3   5
HETATM    5  N1  UNL     1     -23.851 -26.737 -12.692  1.00  0.00    -0.279 N
HETATM    6  C2  UNL     1     -25.204 -26.433 -12.860  1.00  0.00     0.366 C
HETATM    7  O2  UNL     1     -26.052 -27.208 -13.341  1.00  0.00    -0.238 OA
ATOM      8  H1  UNL     1     -23.223 -26.042 -12.287  1.00  0.00     0.173 HD
BRANCH   6   9
HETATM    9  O1  UNL     1     -25.669 -25.163 -12.461  1.00  0.00    -0.309 OA
HETATM   10  C1  UNL     1     -26.985 -24.735 -12.788  1.00  0.00     0.215 C
ENDBRANCH   6   9
ENDBRANCH   3   5
ENDBRANCH   1   3
BRANCH   1  11
HETATM   11  C4  UNL     1     -23.210 -28.248 -15.629  1.00  0.00     0.061 A
HETATM   12  C5  UNL     1     -22.118 -27.465 -15.938  1.00  0.00     0.032 A
HETATM   13  C6  UNL     1     -21.707 -27.153 -17.227  1.00  0.00     0.002 A
HETATM   14  C7  UNL     1     -22.434 -27.656 -18.273  1.00  0.00     0.002 A
HETATM   15  C8  UNL     1     -23.534 -28.444 -18.016  1.00  0.00     0.031 A
HETATM   16  C9  UNL     1     -23.929 -28.745 -16.733  1.00  0.00     0.056 A
BRANCH  16  17
HETATM   17  N3  UNL     1     -25.045 -29.591 -16.512  1.00  0.00    -0.388 N
HETATM   18  C10 UNL     1     -24.814 -31.041 -16.458  1.00  0.00     0.149 C
HETATM   19  C11 UNL     1     -26.379 -29.042 -16.342  1.00  0.00     0.149 C
ENDBRANCH  16  17
ENDBRANCH   1  11
TORSDOF 5
ENDMDL