MODEL 4
REMARK VINA RESULT: -6.860285830      1.529      2.560
REMARK  3 active torsions:
REMARK  status: ('A' for Active; 'I' for Inactive)
REMARK    1  A    between atoms: O1_1  and  N1_3
REMARK    2  A    between atoms: C1_4  and  O2_5
REMARK    3  A    between atoms: C2_7  and  C3_8
ROOT
HETATM    1  N1  UNL     1      -5.007  -2.317  20.697  1.00  0.00    -0.202 N
HETATM    2  C1  UNL     1      -4.533  -1.433  19.669  1.00  0.00     0.200 C
HETATM    3  C2  UNL     1      -3.464  -1.679  18.931  1.00  0.00     0.135 C
HETATM    4  O3  UNL     1      -2.598  -2.788  18.979  1.00  0.00    -0.311 OA
HETATM    5  C9  UNL     1      -2.930  -4.035  19.548  1.00  0.00     0.293 C
HETATM    6  C10 UNL     1      -2.551  -4.163  20.987  1.00  0.00     0.034 C
HETATM    7  C11 UNL     1      -3.644  -4.007  21.725  1.00  0.00     0.029 C
HETATM    8  C12 UNL     1      -4.768  -3.768  20.786  1.00  0.00     0.279 C
HETATM    9  O4  UNL     1      -4.309  -4.261  19.584  1.00  0.00    -0.328 OA
ENDROOT
BRANCH   3  10
HETATM   10  C3  UNL     1      -3.171  -0.638  17.944  1.00  0.00     0.002 A
HETATM   11  C4  UNL     1      -3.299  -0.912  16.583  1.00  0.00     0.014 A
HETATM   12  C5  UNL     1      -3.027   0.023  15.613  1.00  0.00     0.001 A
HETATM   13  C6  UNL     1      -2.608   1.290  15.960  1.00  0.00     0.000 A
HETATM   14  C7  UNL     1      -2.474   1.581  17.300  1.00  0.00     0.001 A
HETATM   15  C8  UNL     1      -2.754   0.626  18.280  1.00  0.00     0.014 A
ENDBRANCH   3  10
BRANCH   2  16
HETATM   16  O2  UNL     1      -5.272  -0.295  19.495  1.00  0.00    -0.343 OA
ATOM     17  H2  UNL     1      -4.777   0.515  19.519  1.00  0.00     0.219 HD
ENDBRANCH   2  16
BRANCH   1  18
HETATM   18  O1  UNL     1      -5.693  -1.849  21.621  1.00  0.00    -0.283 OA
ATOM     19  H1  UNL     1      -5.404  -1.976  22.517  1.00  0.00     0.245 HD
ENDBRANCH   1  18
TORSDOF 3
ENDMDL