MODEL 1
REMARK VINA RESULT: -6.032531737      0.000      0.000
REMARK  1 active torsions:
REMARK  status: ('A' for Active; 'I' for Inactive)
REMARK    1  A    between atoms: C2_2  and  C3_4
ROOT
HETATM    1  C3  UNL     1      -5.801   4.599  14.815  1.00  0.00     0.085 C
HETATM    2  C4  UNL     1      -6.821   4.650  15.623  1.00  0.00     0.094 C
HETATM    3  O2  UNL     1      -7.816   5.592  15.398  1.00  0.00    -0.278 OA
HETATM    4  C5  UNL     1      -8.938   5.480  16.207  1.00  0.00     0.298 C
HETATM    5  O3  UNL     1     -10.100   5.809  15.822  1.00  0.00    -0.261 OA
HETATM    6  C6  UNL     1      -8.780   4.963  17.558  1.00  0.00     0.143 C
HETATM    7  C7  UNL     1     -10.057   4.183  17.900  1.00  0.00     0.057 C
HETATM    8  C8  UNL     1      -8.733   6.147  18.507  1.00  0.00     0.057 C
HETATM    9  O4  UNL     1      -7.694   4.198  17.807  1.00  0.00    -0.354 OA
HETATM   10  C9  UNL     1      -6.951   3.743  16.765  1.00  0.00     0.104 C
HETATM   11  C10 UNL     1      -5.549   3.485  17.306  1.00  0.00     0.053 C
HETATM   12  C11 UNL     1      -7.500   2.382  16.368  1.00  0.00     0.053 C
ENDROOT
BRANCH   1  13
HETATM   13  C2  UNL     1      -5.625   5.477  13.666  1.00  0.00     0.147 C
HETATM   14  C1  UNL     1      -5.118   6.845  13.742  1.00  0.00     0.096 C
HETATM   15  O1  UNL     1      -5.930   5.040  12.503  1.00  0.00    -0.294 OA
ENDBRANCH   1  13
TORSDOF 1
ENDMDL