MODEL 3
REMARK VINA RESULT: -5.822321274      3.711      5.250
REMARK  1 active torsions:
REMARK  status: ('A' for Active; 'I' for Inactive)
REMARK    1  A    between atoms: C5_5  and  N1_6
ROOT
HETATM    1  C1  UNL     1      -6.273   2.285  17.621  1.00  0.00     0.013 C
HETATM    2  C2  UNL     1      -6.766   2.934  16.376  1.00  0.00     0.019 C
HETATM    3  C3  UNL     1      -8.176   2.358  16.144  1.00  0.00     0.015 C
HETATM    4  C4  UNL     1      -9.094   3.214  16.991  1.00  0.00     0.101 C
HETATM    5  C5  UNL     1      -8.787   4.658  16.659  1.00  0.00     0.309 C
HETATM    6  O3  UNL     1      -8.136   5.217  17.743  1.00  0.00    -0.320 OA
HETATM    7  C6  UNL     1      -6.776   5.286  17.367  1.00  0.00     0.090 C
HETATM    8  C7  UNL     1      -6.624   6.714  16.804  1.00  0.00     0.049 C
HETATM    9  C8  UNL     1      -5.910   5.126  18.528  1.00  0.00     0.049 C
HETATM   10  C9  UNL     1      -6.704   4.370  16.236  1.00  0.00     0.097 C
HETATM   11  C10 UNL     1      -5.592   4.794  15.263  1.00  0.00     0.050 C
HETATM   12  O4  UNL     1      -7.904   4.754  15.559  1.00  0.00    -0.320 OA
ENDROOT
BRANCH   5  13
HETATM   13  N1  UNL     1     -10.023   5.332  16.423  1.00  0.00    -0.087 N
HETATM   14  O1  UNL     1     -11.141   4.960  16.824  1.00  0.00    -0.532 OA
HETATM   15  O2  UNL     1      -9.986   6.496  15.689  1.00  0.00    -0.532 OA
ENDBRANCH   5  13
TORSDOF 1
ENDMDL