MODEL 1
REMARK VINA RESULT: -7.222832066      0.000      0.000
REMARK  2 active torsions:
REMARK  status: ('A' for Active; 'I' for Inactive)
REMARK    1  A    between atoms: C2_3  and  C3_4
REMARK    2  A    between atoms: N3_12  and  O2_13
ROOT
HETATM    1  O1  UNL     1      -5.128  -0.011  20.666  1.00  0.00    -0.285 OA
HETATM    2  C1  UNL     1      -4.823  -1.169  20.293  1.00  0.00     0.217 A
HETATM    3  C2  UNL     1      -4.062  -1.570  19.097  1.00  0.00     0.157 A
HETATM    4  N3  UNL     1      -3.979  -2.872  19.103  1.00  0.00    -0.216 N
HETATM    5  C7  UNL     1      -4.636  -3.416  20.227  1.00  0.00     0.077 A
HETATM    6  C8  UNL     1      -4.814  -4.721  20.656  1.00  0.00     0.033 A
HETATM    7  C9  UNL     1      -5.512  -5.011  21.821  1.00  0.00     0.002 A
HETATM    8  C10 UNL     1      -6.044  -3.993  22.578  1.00  0.00     0.001 A
HETATM    9  C11 UNL     1      -5.866  -2.705  22.151  1.00  0.00     0.018 A
HETATM   10  C12 UNL     1      -5.176  -2.397  20.996  1.00  0.00     0.046 A
ENDROOT
BRANCH   3  11
HETATM   11  C3  UNL     1      -3.504  -0.683  18.098  1.00  0.00     0.139 A
HETATM   12  N1  UNL     1      -3.386  -1.083  16.827  1.00  0.00    -0.350 N
HETATM   13  C4  UNL     1      -2.874  -0.298  15.855  1.00  0.00     0.091 A
ATOM     14  H1  UNL     1      -3.696  -2.022  16.582  1.00  0.00     0.166 HD
HETATM   15  C5  UNL     1      -2.458   0.963  16.195  1.00  0.00     0.034 A
HETATM   16  C6  UNL     1      -2.569   1.403  17.505  1.00  0.00     0.091 A
HETATM   17  N2  UNL     1      -3.099   0.546  18.429  1.00  0.00    -0.350 N
ATOM     18  H2  UNL     1      -3.187   0.853  19.398  1.00  0.00     0.166 HD
ENDBRANCH   3  11
BRANCH   4  19
HETATM   19  O2  UNL     1      -3.327  -3.574  18.117  1.00  0.00    -0.282 OA
ATOM     20  H2  UNL     1      -2.820  -4.357  18.299  1.00  0.00     0.245 HD
ENDBRANCH   4  19
TORSDOF 2
ENDMDL