MODEL 4
REMARK VINA RESULT: -6.332803637      1.859      4.506
REMARK  4 active torsions:
REMARK  status: ('A' for Active; 'I' for Inactive)
REMARK    1  A    between atoms: O1_2  and  C2_3
REMARK       I    between atoms: C2_3  and  N1_5
REMARK       I    between atoms: N1_5  and  C3_6
REMARK    2  A    between atoms: N1_5  and  C5_9
REMARK    3  A    between atoms: C5_9  and  O4_10
REMARK    4  A    between atoms: C5_9  and  C6_12
ROOT
HETATM    1  C5  UNL     1      -2.721  -1.934  18.829  1.00  0.00     0.164 C
ENDROOT
BRANCH   1   2
HETATM    2  N1  UNL     1      -3.838  -2.481  19.512  1.00  0.00    -0.206 N
HETATM    3  C2  UNL     1      -4.956  -1.753  19.942  1.00  0.00     0.375 C
HETATM    4  O2  UNL     1      -5.855  -2.321  20.657  1.00  0.00    -0.237 OA
HETATM    5  C3  UNL     1      -3.903  -3.899  19.575  1.00  0.00     0.230 C
HETATM    6  C4  UNL     1      -4.979  -4.627  20.236  1.00  0.00     0.118 C
HETATM    7  O3  UNL     1      -2.995  -4.585  19.041  1.00  0.00    -0.273 OA
BRANCH   3   8
HETATM    8  O1  UNL     1      -5.266  -0.424  19.688  1.00  0.00    -0.308 OA
HETATM    9  C1  UNL     1      -5.222   0.605  20.643  1.00  0.00     0.215 C
ENDBRANCH   3   8
ENDBRANCH   1   2
BRANCH   1  10
HETATM   10  O4  UNL     1      -1.558  -1.990  19.468  1.00  0.00    -0.345 OA
ATOM     11  H4  UNL     1      -1.358  -2.810  19.905  1.00  0.00     0.219 HD
ENDBRANCH   1  10
BRANCH   1  12
HETATM   12  C6  UNL     1      -2.594  -1.313  17.555  1.00  0.00     0.015 A
HETATM   13  C7  UNL     1      -2.680   0.022  17.325  1.00  0.00     0.016 A
HETATM   14  C8  UNL     1      -2.628   0.588  16.039  1.00  0.00     0.001 A
HETATM   15  C9  UNL     1      -2.483  -0.223  14.948  1.00  0.00     0.000 A
HETATM   16  C10 UNL     1      -2.391  -1.568  15.146  1.00  0.00     0.001 A
HETATM   17  C11 UNL     1      -2.443  -2.120  16.408  1.00  0.00     0.016 A
ENDBRANCH   1  12
TORSDOF 4
ENDMDL