MODEL 5
REMARK VINA RESULT: -5.672524128      4.332      5.981
REMARK  2 active torsions:
REMARK  status: ('A' for Active; 'I' for Inactive)
REMARK    1  A    between atoms: C2_2  and  O2_4
REMARK    2  A    between atoms: O2_4  and  C3_5
ROOT
HETATM    1  C3  UNL     1      -2.092  -1.441  18.606  1.00  0.00     0.229 C
HETATM    2  C4  UNL     1      -2.104  -0.098  19.173  1.00  0.00     0.048 C
HETATM    3  C5  UNL     1      -3.331   0.206  19.535  1.00  0.00     0.054 C
HETATM    4  C6  UNL     1      -4.238  -0.895  19.246  1.00  0.00     0.183 C
HETATM    5  O3  UNL     1      -5.352  -1.086  19.778  1.00  0.00    -0.290 OA
HETATM    6  C7  UNL     1      -3.526  -1.688  18.204  1.00  0.00     0.265 C
HETATM    7  O4  UNL     1      -3.580  -1.055  16.963  1.00  0.00    -0.337 OA
HETATM    8  C8  UNL     1      -2.338  -1.255  16.385  1.00  0.00     0.162 C
HETATM    9  C9  UNL     1      -2.424  -2.471  15.479  1.00  0.00     0.078 C
HETATM   10  C10 UNL     1      -1.853  -0.043  15.634  1.00  0.00     0.078 C
HETATM   11  O5  UNL     1      -1.436  -1.534  17.386  1.00  0.00    -0.313 OA
ENDROOT
BRANCH   1  12
HETATM   12  O2  UNL     1      -1.655  -2.416  19.531  1.00  0.00    -0.276 OA
BRANCH  12  13
HETATM   13  C2  UNL     1      -2.109  -3.704  19.574  1.00  0.00     0.257 C
HETATM   14  C1  UNL     1      -3.079  -4.230  20.571  1.00  0.00     0.126 C
HETATM   15  O1  UNL     1      -1.675  -4.510  18.704  1.00  0.00    -0.266 OA
ENDBRANCH  12  13
ENDBRANCH   1  12
TORSDOF 2
ENDMDL