MODEL 2
REMARK VINA RESULT: -6.051261475      1.474      1.724
REMARK  2 active torsions:
REMARK  status: ('A' for Active; 'I' for Inactive)
REMARK    1  A    between atoms: C2_2  and  O1_3
REMARK    2  A    between atoms: O1_3  and  C3_4
REMARK       I    between atoms: C3_4  and  N1_6
ROOT
HETATM    1  C3  UNL     1      -2.217  -2.579  17.553  1.00  0.00     0.364 C
HETATM    2  O2  UNL     1      -1.586  -2.804  16.466  1.00  0.00    -0.238 OA
HETATM    3  N1  UNL     1      -2.142  -1.290  18.122  1.00  0.00    -0.305 N
ATOM      4  H1  UNL     1      -1.646  -1.181  19.008  1.00  0.00     0.171 HD
HETATM    5  C4  UNL     1      -2.659  -0.257  17.590  1.00  0.00     0.044 C
HETATM    6  C5  UNL     1      -2.557   1.075  18.220  1.00  0.00     0.226 C
HETATM    7  O3  UNL     1      -3.220   1.977  17.392  1.00  0.00    -0.350 OA
HETATM    8  C6  UNL     1      -4.469   1.558  17.021  1.00  0.00     0.158 C
HETATM    9  C7  UNL     1      -5.122   2.691  16.240  1.00  0.00     0.078 C
HETATM   10  C8  UNL     1      -5.302   1.413  18.302  1.00  0.00     0.078 C
HETATM   11  O4  UNL     1      -4.516   0.426  16.256  1.00  0.00    -0.345 OA
HETATM   12  C9  UNL     1      -3.387  -0.365  16.309  1.00  0.00     0.168 C
HETATM   13  C10 UNL     1      -2.444  -0.121  15.160  1.00  0.00     0.046 C
ENDROOT
BRANCH   1  14
HETATM   14  O1  UNL     1      -2.924  -3.632  18.079  1.00  0.00    -0.304 OA
BRANCH  14  15
HETATM   15  C2  UNL     1      -2.684  -4.116  19.407  1.00  0.00     0.176 C
HETATM   16  C1  UNL     1      -3.992  -4.568  20.012  1.00  0.00     0.034 C
ENDBRANCH  14  15
ENDBRANCH   1  14
TORSDOF 2
ENDMDL