MODEL 1
REMARK VINA RESULT: -7.183431907      0.000      0.000
REMARK  3 active torsions:
REMARK  status: ('A' for Active; 'I' for Inactive)
REMARK    1  A    between atoms: O1_2  and  C2_3
REMARK    2  A    between atoms: C2_3  and  O2_4
REMARK    3  A    between atoms: C2_3  and  C3_6
ROOT
HETATM    1  C3  UNL     1      -3.327   0.288  17.026  1.00  0.00     0.037 A
HETATM    2  C4  UNL     1      -2.508   0.412  15.872  1.00  0.00     0.017 A
HETATM    3  C5  UNL     1      -1.609  -0.544  15.500  1.00  0.00     0.002 A
HETATM    4  C6  UNL     1      -1.478  -1.674  16.259  1.00  0.00     0.016 A
HETATM    5  C7  UNL     1      -2.243  -1.864  17.400  1.00  0.00     0.029 A
HETATM    6  C8  UNL     1      -3.157  -0.861  17.756  1.00  0.00     0.043 A
HETATM    7  C9  UNL     1      -3.902  -1.123  18.990  1.00  0.00     0.184 A
HETATM    8  O3  UNL     1      -4.729  -0.267  19.372  1.00  0.00    -0.288 OA
HETATM    9  C10 UNL     1      -3.715  -2.341  19.795  1.00  0.00     0.059 A
HETATM   10  C11 UNL     1      -2.846  -3.240  19.405  1.00  0.00     0.059 A
HETATM   11  C12 UNL     1      -2.053  -3.079  18.198  1.00  0.00     0.183 A
HETATM   12  O4  UNL     1      -1.222  -3.924  17.814  1.00  0.00    -0.288 OA
ENDROOT
BRANCH   1  13
HETATM   13  C2  UNL     1      -4.296   1.312  17.249  1.00  0.00     0.189 C
BRANCH  13  14
HETATM   14  O1  UNL     1      -5.557   1.543  16.819  1.00  0.00    -0.335 OA
HETATM   15  C1  UNL     1      -5.970   2.683  16.079  1.00  0.00     0.212 C
ENDBRANCH  13  14
BRANCH  13  16
HETATM   16  O2  UNL     1      -3.862   2.259  18.052  1.00  0.00    -0.340 OA
ATOM     17  H2  UNL     1      -2.927   2.405  17.963  1.00  0.00     0.220 HD
ENDBRANCH  13  16
ENDBRANCH   1  13
TORSDOF 3
ENDMDL