MODEL 4
REMARK VINA RESULT: -5.758845336      4.906      7.353
REMARK  1 active torsions:
REMARK  status: ('A' for Active; 'I' for Inactive)
REMARK    1  A    between atoms: C4_6  and  C6_8
ROOT
HETATM    1  C1  UNL     1      -5.020   0.897  19.678  1.00  0.00     0.046 C
HETATM    2  C2  UNL     1      -5.029   1.377  18.243  1.00  0.00     0.192 A
HETATM    3  O1  UNL     1      -3.922   2.096  17.774  1.00  0.00    -0.336 OA
HETATM    4  C3  UNL     1      -5.265   2.737  17.856  1.00  0.00     0.256 A
HETATM    5  O2  UNL     1      -5.170   3.836  18.665  1.00  0.00    -0.329 OA
HETATM    6  C4  UNL     1      -6.166   4.762  18.517  1.00  0.00     0.115 C
HETATM    7  C5  UNL     1      -7.488   4.068  18.820  1.00  0.00     0.054 C
HETATM    8  C7  UNL     1      -6.213   5.396  17.152  1.00  0.00     0.061 C
HETATM    9  C8  UNL     1      -6.036   4.419  16.031  1.00  0.00     0.022 C
HETATM   10  C9  UNL     1      -4.768   4.746  15.238  1.00  0.00     0.023 C
HETATM   11  C10 UNL     1      -7.201   4.460  15.044  1.00  0.00     0.023 C
HETATM   12  C11 UNL     1      -5.859   3.032  16.542  1.00  0.00     0.199 C
HETATM   13  O4  UNL     1      -6.230   2.120  15.822  1.00  0.00    -0.291 OA
ENDROOT
BRANCH   6  14
HETATM   14  C6  UNL     1      -5.950   5.849  19.509  1.00  0.00     0.269 C
HETATM   15  O3  UNL     1      -5.992   5.620  20.701  1.00  0.00    -0.304 OA
ENDBRANCH   6  14
TORSDOF 1
ENDMDL