MODEL 2
REMARK VINA RESULT: -7.155002999      0.052      1.203
REMARK  1 active torsions:
REMARK  status: ('A' for Active; 'I' for Inactive)
REMARK    1  A    between atoms: N1_8  and  C6_10
ROOT
HETATM    1  C1  UNL     1      -2.155   0.123  15.576  1.00  0.00     0.027 C
HETATM    2  C2  UNL     1      -2.247  -0.540  16.917  1.00  0.00     0.136 C
HETATM    3  C3  UNL     1      -3.554  -0.303  17.579  1.00  0.00     0.212 C
HETATM    4  O1  UNL     1      -4.315   0.669  17.355  1.00  0.00    -0.288 OA
HETATM    5  C4  UNL     1      -3.740  -1.421  18.517  1.00  0.00     0.248 C
HETATM    6  O2  UNL     1      -4.490  -1.393  19.528  1.00  0.00    -0.282 OA
HETATM    7  C5  UNL     1      -2.896  -2.502  18.024  1.00  0.00     0.134 C
HETATM    8  N1  UNL     1      -2.761  -3.668  18.554  1.00  0.00    -0.350 N
ATOM      9  H1  UNL     1      -2.132  -4.328  18.098  1.00  0.00     0.166 HD
HETATM   10  C12 UNL     1      -2.233  -2.023  16.822  1.00  0.00     0.191 C
HETATM   11  O3  UNL     1      -1.737  -2.730  15.876  1.00  0.00    -0.290 OA
ENDROOT
BRANCH   8  12
HETATM   12  C6  UNL     1      -3.421  -4.090  19.715  1.00  0.00     0.032 A
HETATM   13  C7  UNL     1      -4.653  -4.709  19.664  1.00  0.00     0.029 A
HETATM   14  C8  UNL     1      -5.280  -5.114  20.834  1.00  0.00     0.002 A
HETATM   15  C9  UNL     1      -4.641  -4.885  22.061  1.00  0.00     0.000 A
HETATM   16  C10 UNL     1      -3.414  -4.269  22.110  1.00  0.00     0.002 A
HETATM   17  C11 UNL     1      -2.808  -3.875  20.952  1.00  0.00     0.029 A
ENDBRANCH   8  12
TORSDOF 1
ENDMDL