MODEL 1
REMARK VINA RESULT: -5.699947416      0.000      0.000
REMARK  3 active torsions:
REMARK  status: ('A' for Active; 'I' for Inactive)
REMARK    1  A    between atoms: C2_2  and  O1_3
REMARK    2  A    between atoms: C2_2  and  C3_5
REMARK    3  A    between atoms: C3_5  and  N1_6
ROOT
HETATM    1  N1  UNL     1      39.255  25.844  55.527  1.00  0.00     0.096 N
HETATM    2  C4  UNL     1      38.160  26.440  56.173  1.00  0.00     0.282 C
HETATM    3  C5  UNL     1      36.931  25.547  55.867  1.00  0.00     0.074 C
HETATM    4  C6  UNL     1      35.722  26.384  55.624  1.00  0.00     0.017 C
HETATM    5  C7  UNL     1      37.444  24.830  54.633  1.00  0.00     0.195 C
HETATM    6  C8  UNL     1      38.867  24.524  55.136  1.00  0.00     0.341 C
HETATM    7  O2  UNL     1      37.476  25.704  53.577  1.00  0.00    -0.351 OA
HETATM    8  C9  UNL     1      36.952  25.006  52.466  1.00  0.00     0.198 C
HETATM    9  C10 UNL     1      37.122  23.570  52.933  1.00  0.00     0.198 C
HETATM   10  O3  UNL     1      36.743  23.708  54.289  1.00  0.00    -0.351 OA
ENDROOT
BRANCH   1  11
HETATM   11  C3  UNL     1      40.542  25.871  56.085  1.00  0.00     0.303 C
BRANCH  11  12
HETATM   12  C2  UNL     1      41.539  26.755  55.395  1.00  0.00     0.142 C
HETATM   13  C1  UNL     1      42.939  26.302  55.616  1.00  0.00     0.041 C
BRANCH  12  14
HETATM   14  O1  UNL     1      41.338  28.111  55.744  1.00  0.00    -0.394 OA
ATOM     15  H1  UNL     1      40.421  28.332  55.855  1.00  0.00     0.210 HD
ENDBRANCH  12  14
ENDBRANCH  11  12
ENDBRANCH   1  11
TORSDOF 3
ENDMDL