MODEL 2
REMARK VINA RESULT: -6.260943481      1.332      1.591
REMARK  2 active torsions:
REMARK  status: ('A' for Active; 'I' for Inactive)
REMARK    1  A    between atoms: C2_2  and  C3_3
REMARK    2  A    between atoms: C10_13  and  O4_14
ROOT
HETATM    1  C3  UNL     1      41.445  24.934  55.589  1.00  0.00     0.131 C
HETATM    2  O1  UNL     1      40.929  24.071  54.624  1.00  0.00    -0.377 OA
HETATM    3  C4  UNL     1      39.815  24.869  54.544  1.00  0.00     0.162 C
HETATM    4  C5  UNL     1      38.712  24.496  55.498  1.00  0.00     0.186 C
HETATM    5  O2  UNL     1      37.570  24.088  54.818  1.00  0.00    -0.345 OA
HETATM    6  C6  UNL     1      36.872  25.215  54.449  1.00  0.00     0.158 C
HETATM    7  C7  UNL     1      35.494  25.266  55.121  1.00  0.00     0.078 C
HETATM    8  C8  UNL     1      36.601  25.196  52.963  1.00  0.00     0.078 C
HETATM    9  O3  UNL     1      37.585  26.324  54.854  1.00  0.00    -0.345 OA
HETATM   10  C9  UNL     1      38.265  25.878  55.993  1.00  0.00     0.186 C
HETATM   11  C10 UNL     1      39.583  26.568  56.183  1.00  0.00     0.159 C
HETATM   12  C11 UNL     1      40.536  26.043  55.163  1.00  0.00     0.077 C
ENDROOT
BRANCH   1  13
HETATM   13  C2  UNL     1      42.933  25.194  55.323  1.00  0.00     0.028 C
HETATM   14  C1  UNL     1      43.366  26.251  56.314  1.00  0.00     0.007 C
ENDBRANCH   1  13
BRANCH  11  15
HETATM   15  O4  UNL     1      39.438  27.951  56.139  1.00  0.00    -0.392 OA
ATOM     16  H4  UNL     1      40.280  28.381  56.046  1.00  0.00     0.210 HD
ENDBRANCH  11  15
TORSDOF 2
ENDMDL