MODEL 3
REMARK VINA RESULT: -5.797649967      2.194      5.722
REMARK  2 active torsions:
REMARK  status: ('A' for Active; 'I' for Inactive)
REMARK    1  A    between atoms: C3_3  and  N1_4
REMARK    2  A    between atoms: N1_4  and  C4_6
ROOT
HETATM    1  C1  UNL     1      44.887  26.467  55.650  1.00  0.00     0.014 C
HETATM    2  C2  UNL     1      43.719  26.588  55.966  1.00  0.00    -0.098 C
HETATM    3  C3  UNL     1      42.338  26.709  56.374  1.00  0.00     0.210 C
ENDROOT
BRANCH   3   4
HETATM    4  N1  UNL     1      41.486  27.054  55.300  1.00  0.00    -0.385 N
ATOM      5  H1  UNL     1      41.483  28.004  54.927  1.00  0.00     0.156 HD
BRANCH   4   6
HETATM    6  C4  UNL     1      40.639  26.067  54.749  1.00  0.00     0.244 C
HETATM    7  C5  UNL     1      40.365  24.853  55.570  1.00  0.00     0.225 C
HETATM    8  O1  UNL     1      39.134  24.398  55.064  1.00  0.00    -0.351 OA
HETATM    9  C6  UNL     1      38.455  25.559  54.798  1.00  0.00     0.170 C
HETATM   10  C7  UNL     1      37.616  25.448  53.521  1.00  0.00     0.095 C
HETATM   11  C10 UNL     1      37.495  25.840  55.921  1.00  0.00     0.095 C
HETATM   12  O3  UNL     1      39.356  26.591  54.591  1.00  0.00    -0.329 OA
HETATM   13  C8  UNL     1      36.149  25.259  53.859  1.00  0.00     0.173 C
HETATM   14  O2  UNL     1      35.955  24.305  54.855  1.00  0.00    -0.391 OA
HETATM   15  C9  UNL     1      36.567  24.649  56.045  1.00  0.00     0.173 C
ENDBRANCH   4   6
ENDBRANCH   3   4
TORSDOF 2
ENDMDL