MODEL 1
REMARK VINA RESULT: -6.430492512      0.000      0.000
REMARK  4 active torsions:
REMARK  status: ('A' for Active; 'I' for Inactive)
REMARK    1  A    between atoms: C2_2  and  C5_6
REMARK    2  A    between atoms: C5_6  and  O1_7
REMARK    3  A    between atoms: C5_6  and  C6_9
REMARK    4  A    between atoms: C6_9  and  N2_10
ROOT
HETATM    1  C1  UNL     1      42.184  24.665  55.469  1.00  0.00     0.033 C
HETATM    2  C2  UNL     1      42.290  25.978  56.219  1.00  0.00     0.069 C
HETATM    3  C3  UNL     1      43.517  26.681  55.722  1.00  0.00     0.033 C
HETATM    4  C4  UNL     1      42.401  25.636  57.645  1.00  0.00     0.071 C
HETATM    5  N1  UNL     1      42.493  25.386  58.755  1.00  0.00    -0.196 NA
ENDROOT
BRANCH   2   6
HETATM    6  C5  UNL     1      41.020  26.728  56.022  1.00  0.00     0.158 C
BRANCH   6   7
HETATM    7  O1  UNL     1      41.344  28.055  55.749  1.00  0.00    -0.392 OA
ATOM      8  H1  UNL     1      41.138  28.570  56.519  1.00  0.00     0.210 HD
ENDBRANCH   6   7
BRANCH   6   9
HETATM    9  C6  UNL     1      40.197  26.229  54.855  1.00  0.00     0.160 C
BRANCH   9  10
HETATM   10  N2  UNL     1      38.955  25.616  55.271  1.00  0.00    -0.367 N
HETATM   11  C7  UNL     1      38.051  26.435  55.965  1.00  0.00     0.089 C
HETATM   12  C8  UNL     1      36.595  26.108  55.755  1.00  0.00     0.212 C
HETATM   13  O2  UNL     1      36.383  25.741  54.413  1.00  0.00    -0.381 OA
HETATM   14  C9  UNL     1      36.985  24.494  54.273  1.00  0.00     0.212 C
HETATM   15  C10 UNL     1      38.454  24.644  54.393  1.00  0.00     0.089 C
ENDBRANCH   9  10
ENDBRANCH   6   9
ENDBRANCH   2   6
TORSDOF 4
ENDMDL