MODEL 3
REMARK VINA RESULT: -5.098890519      3.828      6.439
REMARK  3 active torsions:
REMARK  status: ('A' for Active; 'I' for Inactive)
REMARK    1  A    between atoms: N3_6  and  C4_7
REMARK    2  A    between atoms: C4_7  and  C5_8
REMARK    3  A    between atoms: C5_8  and  O1_9
ROOT
HETATM    1  N1  UNL     1      43.460  21.864  53.708  1.00  0.00    -0.172 NA
HETATM    2  C1  UNL     1      42.760  22.702  54.132  1.00  0.00     0.180 C
HETATM    3  N2  UNL     1      41.915  23.702  54.619  1.00  0.00    -0.312 N
HETATM    4  C2  UNL     1      40.491  23.618  54.395  1.00  0.00     0.165 C
HETATM    5  C3  UNL     1      39.667  24.354  55.372  1.00  0.00     0.293 C
HETATM    6  N3  UNL     1      40.243  25.544  55.920  1.00  0.00     0.098 N
HETATM    7  C6  UNL     1      41.419  25.955  55.229  1.00  0.00     0.246 C
HETATM    8  C7  UNL     1      42.215  27.038  55.890  1.00  0.00     0.038 C
HETATM    9  C8  UNL     1      43.684  26.727  55.579  1.00  0.00     0.004 C
HETATM   10  C9  UNL     1      43.593  25.525  54.646  1.00  0.00     0.028 C
HETATM   11  C10 UNL     1      42.435  24.803  55.335  1.00  0.00     0.128 C
ENDROOT
BRANCH   6  12
HETATM   12  C4  UNL     1      39.319  26.671  55.905  1.00  0.00     0.299 C
BRANCH  12  13
HETATM   13  C5  UNL     1      37.876  26.244  55.901  1.00  0.00     0.194 C
BRANCH  13  14
HETATM   14  O1  UNL     1      37.147  27.168  56.628  1.00  0.00    -0.399 OA
ATOM     15  H1  UNL     1      36.229  27.060  56.412  1.00  0.00     0.209 HD
ENDBRANCH  13  14
ENDBRANCH  12  13
ENDBRANCH   6  12
TORSDOF 3
ENDMDL