MODEL 4
REMARK VINA RESULT: -5.593667930      1.967      3.737
REMARK  2 active torsions:
REMARK  status: ('A' for Active; 'I' for Inactive)
REMARK    1  A    between atoms: C2_3  and  C3_4
REMARK    2  A    between atoms: C3_4  and  N2_5
ROOT
HETATM    1  N1  UNL     1      38.747  28.057  56.378  1.00  0.00    -0.192 NA
HETATM    2  C1  UNL     1      39.296  27.107  55.954  1.00  0.00     0.135 C
HETATM    3  C2  UNL     1      40.004  25.949  55.437  1.00  0.00     0.348 C
HETATM    4  N3  UNL     1      41.116  26.518  54.645  1.00  0.00    -0.022 N
ATOM      5  H31 UNL     1      40.875  27.241  53.968  1.00  0.00     0.282 HD
ATOM      6  H32 UNL     1      41.538  25.911  53.942  1.00  0.00     0.282 HD
HETATM    7  C9  UNL     1      41.972  26.922  55.776  1.00  0.00     0.264 C
HETATM    8  C10 UNL     1      41.904  25.659  56.607  1.00  0.00     0.200 C
HETATM    9  O1  UNL     1      40.617  25.230  56.446  1.00  0.00    -0.338 OA
ENDROOT
BRANCH   3  10
HETATM   10  C3  UNL     1      39.175  25.051  54.563  1.00  0.00     0.147 C
BRANCH  10  11
HETATM   11  N2  UNL     1      39.542  23.708  54.715  1.00  0.00    -0.368 N
HETATM   12  C4  UNL     1      40.598  23.165  53.970  1.00  0.00     0.063 C
HETATM   13  C5  UNL     1      41.374  22.081  54.706  1.00  0.00     0.044 C
HETATM   14  C6  UNL     1      40.804  21.903  56.113  1.00  0.00     0.007 C
HETATM   15  C7  UNL     1      39.329  21.609  55.922  1.00  0.00     0.021 C
HETATM   16  C8  UNL     1      38.648  22.812  55.338  1.00  0.00     0.127 C
ENDBRANCH  10  11
ENDBRANCH   3  10
TORSDOF 2
ENDMDL