MODEL 5
REMARK VINA RESULT: -4.818043234      2.344      6.083
REMARK  4 active torsions:
REMARK  status: ('A' for Active; 'I' for Inactive)
REMARK    1  A    between atoms: C2_2  and  C4_4
REMARK    2  A    between atoms: C4_4  and  O1_5
REMARK    3  A    between atoms: C4_4  and  C5_7
REMARK    4  A    between atoms: C8_11  and  N1_12
ROOT
HETATM    1  C5  UNL     1      36.890  24.856  55.457  1.00  0.00     0.078 C
HETATM    2  C6  UNL     1      36.060  23.848  56.178  1.00  0.00     0.043 C
HETATM    3  C7  UNL     1      37.683  24.108  54.400  1.00  0.00     0.212 C
HETATM    4  O2  UNL     1      38.777  25.030  54.256  1.00  0.00    -0.320 OA
HETATM    5  C8  UNL     1      39.000  25.528  55.557  1.00  0.00     0.218 C
HETATM    6  N2  UNL     1      37.931  25.434  56.254  1.00  0.00    -0.343 N
ATOM      7  H2  UNL     1      37.835  25.725  57.227  1.00  0.00     0.164 HD
ENDROOT
BRANCH   1   8
HETATM    8  C4  UNL     1      36.088  25.900  54.717  1.00  0.00     0.151 C
BRANCH   8   9
HETATM    9  C2  UNL     1      34.756  26.193  55.291  1.00  0.00     0.009 C
HETATM   10  C1  UNL     1      33.618  26.278  54.360  1.00  0.00     0.012 C
HETATM   11  C3  UNL     1      34.870  27.496  56.086  1.00  0.00     0.012 C
ENDBRANCH   8   9
BRANCH   8  12
HETATM   12  O1  UNL     1      36.119  25.634  53.374  1.00  0.00    -0.393 OA
ATOM     13  H1  UNL     1      36.370  26.358  52.811  1.00  0.00     0.210 HD
ENDBRANCH   8  12
ENDBRANCH   1   8
BRANCH   5  14
HETATM   14  N1  UNL     1      40.240  26.054  56.015  1.00  0.00    -0.344 N
HETATM   15  C9  UNL     1      41.400  26.960  55.662  1.00  0.00     0.146 A
HETATM   16  C10 UNL     1      41.343  26.252  56.931  1.00  0.00     0.146 A
ENDBRANCH   5  14
TORSDOF 4
ENDMDL