MODEL 3
REMARK VINA RESULT: -5.917605849      1.903      5.394
REMARK  2 active torsions:
REMARK  status: ('A' for Active; 'I' for Inactive)
REMARK    1  A    between atoms: C2_3  and  N2_4
REMARK       I    between atoms: N2_4  and  C3_6
REMARK    2  A    between atoms: C3_6  and  C4_8
ROOT
HETATM    1  N1  UNL     1      36.450  27.702  56.857  1.00  0.00    -0.195 NA
HETATM    2  C1  UNL     1      36.824  26.736  56.346  1.00  0.00     0.091 C
HETATM    3  C2  UNL     1      37.280  25.522  55.693  1.00  0.00     0.122 C
HETATM    4  C7  UNL     1      36.940  25.538  54.239  1.00  0.00     0.047 C
HETATM    5  C8  UNL     1      35.837  24.560  54.495  1.00  0.00     0.007 C
HETATM    6  C9  UNL     1      36.315  24.402  55.908  1.00  0.00     0.047 C
ENDROOT
BRANCH   3   7
HETATM    7  N2  UNL     1      38.666  25.234  56.007  1.00  0.00    -0.335 N
HETATM    8  C3  UNL     1      39.715  26.143  55.787  1.00  0.00     0.274 C
HETATM    9  O1  UNL     1      39.463  27.258  55.297  1.00  0.00    -0.268 OA
ATOM     10  H2  UNL     1      38.892  24.325  56.410  1.00  0.00     0.164 HD
BRANCH   8  11
HETATM   11  C4  UNL     1      41.099  25.794  56.125  1.00  0.00     0.353 C
HETATM   12  O2  UNL     1      41.607  26.547  57.182  1.00  0.00    -0.351 OA
HETATM   13  C5  UNL     1      42.957  26.125  57.143  1.00  0.00     0.197 C
HETATM   14  C6  UNL     1      43.232  26.242  55.658  1.00  0.00     0.197 C
HETATM   15  O3  UNL     1      41.974  26.181  55.089  1.00  0.00    -0.351 OA
ENDBRANCH   8  11
ENDBRANCH   3   7
TORSDOF 2
ENDMDL