MODEL 4
REMARK VINA RESULT: -8.296288408      1.267      1.718
REMARK  8 active torsions:
REMARK  status: ('A' for Active; 'I' for Inactive)
REMARK    1  A    between atoms: C2_2  and  C5_5
REMARK    2  A    between atoms: C6_6  and  C7_7
REMARK    3  A    between atoms: C9_9  and  C10_10
REMARK       I    between atoms: C10_10  and  N1_12
REMARK    4  A    between atoms: C11_14  and  C12_15
REMARK    5  A    between atoms: C11_14  and  C13_18
REMARK       I    between atoms: C13_18  and  N3_20
REMARK    6  A    between atoms: N3_20  and  C14_21
REMARK    7  A    between atoms: C14_21  and  C15_22
REMARK    8  A    between atoms: C15_22  and  C18_25
ROOT
HETATM    1  C10 UNL     1     -11.112  80.668  13.989  1.00  0.00     0.258 C
HETATM    2  O1  UNL     1     -12.178  80.818  13.264  1.00  0.00    -0.267 OA
HETATM    3  N1  UNL     1     -10.558  79.469  14.120  1.00  0.00    -0.313 N
ATOM      4  H1  UNL     1     -10.550  79.093  13.172  1.00  0.00     0.169 HD
HETATM    5  C11 UNL     1     -10.050  78.582  14.800  1.00  0.00     0.184 C
ENDROOT
BRANCH   1   6
HETATM    6  C9  UNL     1     -10.642  81.918  14.597  1.00  0.00     0.055 A
HETATM    7  C8  UNL     1     -11.224  82.248  15.821  1.00  0.00     0.041 A
HETATM    8  C7  UNL     1     -10.803  83.422  16.420  1.00  0.00     0.040 A
HETATM    9  C21 UNL     1      -9.853  84.210  15.814  1.00  0.00     0.054 A
HETATM   10  C20 UNL     1      -9.271  83.877  14.585  1.00  0.00     0.050 A
HETATM   11 CL2  UNL     1      -9.378  85.689  16.635  1.00  0.00    -0.083 Cl
HETATM   12  C19 UNL     1      -9.699  82.698  13.994  1.00  0.00     0.051 A
HETATM   13 CL1  UNL     1      -9.021  82.216  12.460  1.00  0.00    -0.083 Cl
BRANCH   8  14
HETATM   14  C6  UNL     1     -11.405  83.729  17.684  1.00  0.00    -0.064 C
HETATM   15  C5  UNL     1     -11.943  83.985  18.748  1.00  0.00    -0.092 C
BRANCH  15  16
HETATM   16  C2  UNL     1     -12.624  84.294  20.012  1.00  0.00     0.013 C
HETATM   17  C1  UNL     1     -11.811  85.197  20.898  1.00  0.00     0.028 C
HETATM   18  C3  UNL     1     -13.899  85.050  19.630  1.00  0.00     0.028 C
HETATM   19  C4  UNL     1     -12.963  83.010  20.732  1.00  0.00     0.028 C
ENDBRANCH  15  16
ENDBRANCH   8  14
ENDBRANCH   1   6
BRANCH   5  20
HETATM   20  C12 UNL     1      -9.821  78.625  16.238  1.00  0.00     0.288 C
HETATM   21  N2  UNL     1      -8.546  78.880  16.817  1.00  0.00    -0.056 NA
HETATM   22  O2  UNL     1     -10.761  78.435  17.046  1.00  0.00    -0.269 OA
ENDBRANCH   5  20
BRANCH   5  23
HETATM   23  C13 UNL     1      -9.703  77.293  14.111  1.00  0.00     0.347 C
HETATM   24  O3  UNL     1      -9.191  76.464  14.960  1.00  0.00    -0.249 OA
HETATM   25  N3  UNL     1      -9.888  77.008  12.786  1.00  0.00    -0.381 NA
BRANCH  25  26
HETATM   26  C14 UNL     1     -10.072  76.727  11.478  1.00  0.00     0.179 C
BRANCH  26  27
HETATM   27  C15 UNL     1      -9.551  77.697  10.420  1.00  0.00     0.086 C
HETATM   28  C16 UNL     1     -10.159  79.082  10.676  1.00  0.00     0.033 C
HETATM   29  C17 UNL     1     -10.066  77.214   9.083  1.00  0.00     0.033 C
BRANCH  27  30
HETATM   30  C18 UNL     1      -8.095  77.773  10.366  1.00  0.00     0.187 C
HETATM   31  O4  UNL     1      -7.408  76.740  10.255  1.00  0.00    -0.647 OA
HETATM   32  O5  UNL     1      -7.467  79.004  10.442  1.00  0.00    -0.647 OA
ENDBRANCH  27  30
ENDBRANCH  26  27
ENDBRANCH  25  26
ENDBRANCH   5  23
TORSDOF 8
ENDMDL