MODEL 1
REMARK VINA RESULT: -8.033429551      0.000      0.000
REMARK  7 active torsions:
REMARK  status: ('A' for Active; 'I' for Inactive)
REMARK    1  A    between atoms: C1_2  and  C2_3
REMARK    2  A    between atoms: C3_4  and  C4_5
REMARK    3  A    between atoms: C7_8  and  C8_9
REMARK    4  A    between atoms: C8_9  and  N2_10
REMARK    5  A    between atoms: N2_10  and  S1_12
REMARK    6  A    between atoms: S1_12  and  C9_15
REMARK    7  A    between atoms: N3_24  and  O4_26
ROOT
HETATM    1  C8  UNL     1     -14.015  82.278  14.454  1.00  0.00     0.197 C
ENDROOT
BRANCH   1   2
HETATM    2  C7  UNL     1     -12.748  81.797  13.828  1.00  0.00     0.072 A
HETATM    3  C6  UNL     1     -11.467  82.248  14.148  1.00  0.00     0.037 A
HETATM    4  C5  UNL     1     -10.565  81.565  13.356  1.00  0.00     0.040 A
HETATM    5  C4  UNL     1     -11.334  80.729  12.591  1.00  0.00     0.075 A
HETATM    6  O3  UNL     1     -12.594  80.891  12.893  1.00  0.00    -0.313 OA
BRANCH   5   7
HETATM    7  C3  UNL     1     -10.766  79.801  11.587  1.00  0.00     0.040 C
HETATM    8  C2  UNL     1     -10.158  78.729  12.043  1.00  0.00     0.049 C
BRANCH   8   9
HETATM    9  C1  UNL     1      -9.560  77.742  11.210  1.00  0.00     0.135 C
HETATM   10  N1  UNL     1      -8.908  78.219   9.994  1.00  0.00    -0.081 NA
HETATM   11  N3  UNL     1      -9.540  76.511  11.423  1.00  0.00    -0.255 N
ATOM     12  H3  UNL     1      -9.053  75.998  10.689  1.00  0.00     0.195 HD
BRANCH  11  13
HETATM   13  O4  UNL     1      -9.999  75.719  12.369  1.00  0.00    -0.288 OA
ATOM     14  H4  UNL     1      -9.704  74.913  12.775  1.00  0.00     0.244 HD
ENDBRANCH  11  13
ENDBRANCH   8   9
ENDBRANCH   5   7
ENDBRANCH   1   2
BRANCH   1  15
HETATM   15  N2  UNL     1     -13.680  83.397  15.293  1.00  0.00    -0.309 N
ATOM     16  H2  UNL     1     -12.761  83.527  15.716  1.00  0.00     0.172 HD
BRANCH  15  17
HETATM   17  S1  UNL     1     -14.980  84.490  15.510  1.00  0.00     0.259 S
HETATM   18  O1  UNL     1     -16.182  83.666  15.946  1.00  0.00    -0.201 OA
HETATM   19  O2  UNL     1     -15.353  85.181  14.254  1.00  0.00    -0.201 OA
BRANCH  17  20
HETATM   20  C9  UNL     1     -14.682  85.647  16.774  1.00  0.00     0.082 A
HETATM   21  C10 UNL     1     -13.549  85.529  17.553  1.00  0.00     0.044 A
HETATM   22  C11 UNL     1     -13.265  86.428  18.576  1.00  0.00     0.013 A
HETATM   23 BR1  UNL     1     -11.658  86.174  19.605  1.00  0.00    -0.051 Br
HETATM   24  C12 UNL     1     -14.115  87.474  18.846  1.00  0.00     0.038 A
HETATM   25  C13 UNL     1     -15.250  87.605  18.076  1.00  0.00     0.013 A
HETATM   26 BR2  UNL     1     -16.413  89.061  18.468  1.00  0.00    -0.051 Br
HETATM   27  C14 UNL     1     -15.523  86.704  17.059  1.00  0.00     0.044 A
ENDBRANCH  17  20
ENDBRANCH  15  17
ENDBRANCH   1  15
TORSDOF 7
ENDMDL