MODEL 5
REMARK VINA RESULT: -5.902665781      4.295      7.420
REMARK  10 active torsions:
REMARK  status: ('A' for Active; 'I' for Inactive)
REMARK       I    between atoms: C2_2  and  N1_4
REMARK    1  A    between atoms: N1_4  and  C3_6
REMARK    2  A    between atoms: C7_13  and  S1_14
REMARK    3  A    between atoms: S1_14  and  N3_15
REMARK    4  A    between atoms: N4_21  and  C10_22
REMARK    5  A    between atoms: C10_22  and  C11_23
REMARK    6  A    between atoms: C11_23  and  C12_24
REMARK    7  A    between atoms: C12_24  and  C13_25
REMARK    8  A    between atoms: C13_25  and  C14_26
REMARK    9  A    between atoms: C14_26  and  O2_27
REMARK   10  A    between atoms: O2_27  and  N5_28
ROOT
HETATM    1  C3  UNL     1     -12.645  82.709  15.465  1.00  0.00     0.688 A
HETATM    2  N2  UNL     1     -13.822  83.169  15.062  1.00  0.00    -0.189 N
ATOM      3  H2  UNL     1     -14.426  82.727  14.369  1.00  0.00     0.184 HD
HETATM    4  C4  UNL     1     -14.088  84.308  15.711  1.00  0.00     0.079 A
HETATM    5  C5  UNL     1     -15.145  85.188  15.681  1.00  0.00     0.053 A
HETATM    6  C6  UNL     1     -15.137  86.315  16.491  1.00  0.00     0.033 A
HETATM    7 BR1  UNL     1     -16.577  87.552  16.477  1.00  0.00    -0.050 Br
HETATM    8  C7  UNL     1     -14.077  86.568  17.333  1.00  0.00     0.058 A
HETATM    9  C8  UNL     1     -13.032  85.668  17.342  1.00  0.00     0.060 A
HETATM   10 BR2  UNL     1     -11.574  86.029  18.493  1.00  0.00    -0.047 Br
HETATM   11  C9  UNL     1     -12.992  84.528  16.553  1.00  0.00     0.098 A
HETATM   12  N4  UNL     1     -12.092  83.537  16.404  1.00  0.00    -0.179 N
ENDROOT
BRANCH  12  13
HETATM   13  C10 UNL     1     -10.827  83.362  17.063  1.00  0.00     0.148 C
BRANCH  13  14
HETATM   14  C11 UNL     1     -10.760  82.117  17.927  1.00  0.00     0.021 C
BRANCH  14  15
HETATM   15  C12 UNL     1     -11.350  82.411  19.263  1.00  0.00     0.004 C
BRANCH  15  16
HETATM   16  C13 UNL     1     -10.803  81.537  20.355  1.00  0.00     0.029 C
BRANCH  16  17
HETATM   17  C14 UNL     1      -9.652  80.673  19.936  1.00  0.00     0.200 C
BRANCH  17  18
HETATM   18  O2  UNL     1     -10.024  79.328  19.811  1.00  0.00    -0.287 OA
BRANCH  18  19
HETATM   19  N5  UNL     1      -9.161  78.538  20.464  1.00  0.00    -0.311 N
ATOM     20  H52 UNL     1      -8.653  78.821  21.302  1.00  0.00     0.184 HD
ATOM     21  H51 UNL     1      -9.091  77.629  20.008  1.00  0.00     0.184 HD
ENDBRANCH  18  19
ENDBRANCH  17  18
ENDBRANCH  16  17
ENDBRANCH  15  16
ENDBRANCH  14  15
ENDBRANCH  13  14
ENDBRANCH  12  13
BRANCH   1  22
HETATM   22  N1  UNL     1     -12.062  81.637  15.061  1.00  0.00    -0.160 N
HETATM   23  C2  UNL     1     -11.645  81.517  13.708  1.00  0.00     0.231 C
HETATM   24  C1  UNL     1     -10.398  82.236  13.324  1.00  0.00     0.118 C
HETATM   25  O1  UNL     1     -12.300  80.838  12.884  1.00  0.00    -0.273 OA
ATOM     26  H1  UNL     1     -11.899  80.870  15.713  1.00  0.00     0.187 HD
ENDBRANCH   1  22
BRANCH   8  27
HETATM   27  S1  UNL     1     -14.013  87.994  18.392  1.00  0.00    -0.019 SA
BRANCH  27  28
HETATM   28  N3  UNL     1     -14.686  87.700  19.966  1.00  0.00    -0.370 N
ATOM     29  H32 UNL     1     -15.322  86.926  20.157  1.00  0.00     0.164 HD
ATOM     30  H31 UNL     1     -14.379  88.378  20.663  1.00  0.00     0.164 HD
ENDBRANCH  27  28
ENDBRANCH   8  27
TORSDOF 10
ENDMDL