MODEL 3
REMARK VINA RESULT: -7.823176638      4.246      8.400
REMARK  8 active torsions:
REMARK  status: ('A' for Active; 'I' for Inactive)
REMARK    1  A    between atoms: C2_2  and  C4_4
REMARK    2  A    between atoms: C7_7  and  N1_9
REMARK       I    between atoms: N1_9  and  C9_11
REMARK       I    between atoms: C9_11  and  N2_13
REMARK    3  A    between atoms: C12_16  and  S1_17
REMARK    4  A    between atoms: S1_17  and  C13_20
REMARK    5  A    between atoms: C13_20  and  C14_21
REMARK    6  A    between atoms: C14_21  and  O4_22
REMARK    7  A    between atoms: C14_21  and  C15_24
REMARK    8  A    between atoms: C20_31  and  O5_32
ROOT
HETATM    1  N1  UNL     1     -12.578  84.809  18.248  1.00  0.00    -0.334 N
ATOM      2  H1  UNL     1     -12.608  84.687  19.260  1.00  0.00     0.165 HD
HETATM    3  C9  UNL     1     -11.862  83.894  17.439  1.00  0.00     0.321 C
HETATM    4  O1  UNL     1     -11.816  84.033  16.200  1.00  0.00    -0.247 OA
HETATM    5  N2  UNL     1     -11.192  82.813  18.052  1.00  0.00    -0.306 N
HETATM    6  C10 UNL     1     -10.431  81.816  17.344  1.00  0.00     0.132 C
HETATM    7  C11 UNL     1      -9.612  81.080  18.379  1.00  0.00     0.044 C
HETATM    8  C12 UNL     1     -10.226  81.433  19.714  1.00  0.00     0.158 C
HETATM    9  C20 UNL     1     -11.177  82.557  19.474  1.00  0.00     0.242 C
ENDROOT
BRANCH   8  10
HETATM   10  S1  UNL     1      -8.944  82.016  20.799  1.00  0.00     0.155 S
HETATM   11  O2  UNL     1      -9.012  83.507  20.860  1.00  0.00    -0.227 OA
HETATM   12  O3  UNL     1      -9.128  81.487  22.183  1.00  0.00    -0.227 OA
BRANCH  10  13
HETATM   13  C13 UNL     1      -7.381  81.570  20.105  1.00  0.00     0.172 C
BRANCH  13  14
HETATM   14  C14 UNL     1      -6.457  80.973  21.172  1.00  0.00     0.136 C
BRANCH  14  15
HETATM   15  O4  UNL     1      -5.430  81.868  21.434  1.00  0.00    -0.394 OA
ATOM     16  H4  UNL     1      -5.645  82.368  22.213  1.00  0.00     0.210 HD
ENDBRANCH  14  15
BRANCH  14  17
HETATM   17  C15 UNL     1      -5.938  79.674  20.597  1.00  0.00     0.021 C
HETATM   18  C16 UNL     1      -6.032  79.620  19.099  1.00  0.00     0.013 C
HETATM   19  C17 UNL     1      -6.085  78.106  18.857  1.00  0.00     0.079 C
HETATM   20  C18 UNL     1      -7.147  77.703  19.864  1.00  0.00     0.244 C
HETATM   21  F1  UNL     1      -8.371  78.145  19.363  1.00  0.00    -0.206 F
HETATM   22  F2  UNL     1      -7.145  76.369  20.139  1.00  0.00    -0.206 F
HETATM   23  C19 UNL     1      -6.847  78.562  21.082  1.00  0.00     0.086 C
ENDBRANCH  14  17
ENDBRANCH  13  14
ENDBRANCH  10  13
ENDBRANCH   8  10
BRANCH   9  24
HETATM   24  O5  UNL     1     -12.441  82.250  19.974  1.00  0.00    -0.375 OA
ATOM     25  H5  UNL     1     -12.510  81.347  20.261  1.00  0.00     0.212 HD
ENDBRANCH   9  24
BRANCH   1  26
HETATM   26  C7  UNL     1     -13.265  85.918  17.626  1.00  0.00     0.031 C
HETATM   27  C6  UNL     1     -14.118  85.488  16.473  1.00  0.00     0.031 C
HETATM   28  C5  UNL     1     -15.505  85.399  17.085  1.00  0.00     0.007 C
HETATM   29  C4  UNL     1     -15.525  86.611  17.980  1.00  0.00    -0.009 C
HETATM   30  C21 UNL     1     -14.180  86.531  18.662  1.00  0.00     0.035 C
HETATM   31  C8  UNL     1     -12.205  86.918  17.206  1.00  0.00     0.038 C
BRANCH  29  32
HETATM   32  C2  UNL     1     -15.615  87.874  17.159  1.00  0.00    -0.019 C
HETATM   33  C1  UNL     1     -15.534  89.083  18.051  1.00  0.00     0.010 C
HETATM   34  C3  UNL     1     -16.880  87.916  16.352  1.00  0.00     0.010 C
ENDBRANCH  29  32
ENDBRANCH   1  26
TORSDOF 8
ENDMDL