MODEL 3
REMARK VINA RESULT: -6.972466166      2.597      4.695
REMARK  7 active torsions:
REMARK  status: ('A' for Active; 'I' for Inactive)
REMARK    1  A    between atoms: C2_2  and  O1_3
REMARK    2  A    between atoms: O1_3  and  C3_4
REMARK    3  A    between atoms: C3_4  and  C5_6
REMARK       I    between atoms: N2_14  and  C10_16
REMARK    4  A    between atoms: C10_16  and  C11_18
REMARK    5  A    between atoms: C11_18  and  C12_19
REMARK    6  A    between atoms: C12_19  and  O3_22
REMARK    7  A    between atoms: C19_29  and  N3_30
REMARK       I    between atoms: N3_30  and  C20_32
ROOT
HETATM    1  C11 UNL     1     -10.168  82.820  19.957  1.00  0.00     0.095 C
HETATM    2  C15 UNL     1      -9.451  82.786  18.628  1.00  0.00     0.191 C
HETATM    3  O4  UNL     1      -9.875  81.621  17.943  1.00  0.00    -0.378 OA
HETATM    4  C16 UNL     1      -9.080  80.545  18.321  1.00  0.00     0.074 C
HETATM    5  C17 UNL     1      -7.706  80.569  17.655  1.00  0.00     0.047 C
HETATM    6  C18 UNL     1      -9.694  79.215  18.005  1.00  0.00     0.047 C
HETATM    7  C19 UNL     1      -8.944  80.618  19.830  1.00  0.00     0.119 C
HETATM    8  C22 UNL     1     -10.113  81.361  20.447  1.00  0.00     0.052 C
ENDROOT
BRANCH   1   9
HETATM    9  C10 UNL     1     -11.589  83.124  19.653  1.00  0.00     0.237 C
HETATM   10  N2  UNL     1     -12.078  83.982  18.661  1.00  0.00    -0.312 N
HETATM   11  C9  UNL     1     -12.803  85.021  18.886  1.00  0.00     0.118 A
ATOM     12  H2  UNL     1     -11.844  83.768  17.692  1.00  0.00     0.170 HD
HETATM   13  C5  UNL     1     -13.204  85.763  17.800  1.00  0.00     0.036 A
HETATM   14  N1  UNL     1     -13.138  85.394  20.134  1.00  0.00    -0.352 N
HETATM   15  C6  UNL     1     -13.955  86.893  18.048  1.00  0.00     0.048 A
HETATM   16 CL1  UNL     1     -14.596  87.919  16.747  1.00  0.00    -0.084 Cl
HETATM   17  C7  UNL     1     -14.295  87.268  19.351  1.00  0.00     0.041 A
HETATM   18  C8  UNL     1     -13.876  86.502  20.404  1.00  0.00     0.091 A
ATOM     19  H1  UNL     1     -12.822  84.818  20.915  1.00  0.00     0.166 HD
HETATM   20  O2  UNL     1     -12.459  82.536  20.379  1.00  0.00    -0.272 OA
BRANCH  13  21
HETATM   21  C3  UNL     1     -12.851  85.503  16.396  1.00  0.00     0.155 C
HETATM   22  C4  UNL     1     -13.437  84.215  15.854  1.00  0.00     0.045 C
BRANCH  21  23
HETATM   23  O1  UNL     1     -11.492  85.325  16.338  1.00  0.00    -0.382 OA
BRANCH  23  24
HETATM   24  C2  UNL     1     -10.634  86.329  16.166  1.00  0.00     0.164 C
HETATM   25  C1  UNL     1      -9.794  86.180  14.913  1.00  0.00     0.033 C
ENDBRANCH  23  24
ENDBRANCH  21  23
ENDBRANCH  13  21
ENDBRANCH   1   9
BRANCH   1  26
HETATM   26  C12 UNL     1      -9.552  83.721  20.974  1.00  0.00     0.069 C
HETATM   27  C13 UNL     1      -9.127  82.995  22.228  1.00  0.00     0.047 C
HETATM   28  C14 UNL     1      -8.310  84.447  20.483  1.00  0.00     0.047 C
BRANCH  26  29
HETATM   29  O3  UNL     1     -10.424  84.749  21.366  1.00  0.00    -0.389 OA
ATOM     30  H3  UNL     1     -10.829  85.178  20.621  1.00  0.00     0.210 HD
ENDBRANCH  26  29
ENDBRANCH   1  26
BRANCH   7  31
HETATM   31  N3  UNL     1      -8.944  79.303  20.434  1.00  0.00    -0.354 N
HETATM   32  C20 UNL     1      -7.786  78.862  21.140  1.00  0.00     0.214 C
HETATM   33  C21 UNL     1      -7.753  77.526  21.772  1.00  0.00     0.117 C
HETATM   34  O5  UNL     1      -6.760  79.622  21.236  1.00  0.00    -0.274 OA
ATOM     35  H3  UNL     1      -9.762  78.698  20.356  1.00  0.00     0.163 HD
ENDBRANCH   7  31
TORSDOF 7
ENDMDL