MODEL 5
REMARK VINA RESULT: -7.709502604      1.947      2.384
REMARK  10 active torsions:
REMARK  status: ('A' for Active; 'I' for Inactive)
REMARK    1  A    between atoms: C2_2  and  C3_3
REMARK    2  A    between atoms: C3_3  and  C5_5
REMARK    3  A    between atoms: C5_5  and  O1_6
REMARK    4  A    between atoms: C5_5  and  N1_8
REMARK    5  A    between atoms: C7_10  and  C8_11
REMARK    6  A    between atoms: C11_15  and  C12_16
REMARK       I    between atoms: C12_16  and  N2_18
REMARK    7  A    between atoms: N2_18  and  N3_20
REMARK    8  A    between atoms: C13_22  and  C14_23
REMARK    9  A    between atoms: C17_27  and  N4_28
REMARK       I    between atoms: N4_28  and  C18_29
REMARK   10  A    between atoms: C20_33  and  O3_34
ROOT
HETATM    1  C12 UNL     1     -11.389  82.169  19.092  1.00  0.00     0.261 C
HETATM    2  O2  UNL     1     -11.216  81.386  20.018  1.00  0.00    -0.269 OA
HETATM    3  N2  UNL     1     -11.041  81.878  17.790  1.00  0.00    -0.269 N
ATOM      4  H2  UNL     1     -11.202  82.663  17.158  1.00  0.00     0.190 HD
ENDROOT
BRANCH   3   5
HETATM    5  N3  UNL     1     -10.517  80.757  17.130  1.00  0.00    -0.308 N
HETATM    6  C13 UNL     1     -10.527  80.832  15.847  1.00  0.00     0.121 C
ATOM      7  H3  UNL     1     -10.155  79.945  17.631  1.00  0.00     0.186 HD
BRANCH   6   8
HETATM    8  C14 UNL     1     -10.141  80.028  14.774  1.00  0.00     0.016 A
HETATM    9  C15 UNL     1      -9.896  80.657  13.518  1.00  0.00     0.043 A
HETATM   10  C16 UNL     1      -9.529  79.964  12.418  1.00  0.00     0.075 A
HETATM   11 CL2  UNL     1      -9.251  80.814  10.914  1.00  0.00    -0.081 Cl
HETATM   12  C17 UNL     1      -9.367  78.562  12.467  1.00  0.00     0.134 A
HETATM   13  C19 UNL     1      -9.613  77.987  13.708  1.00  0.00     0.084 A
HETATM   14  C20 UNL     1      -9.992  78.670  14.849  1.00  0.00     0.080 A
BRANCH  12  15
HETATM   15  N4  UNL     1      -9.010  77.924  11.344  1.00  0.00    -0.375 NA
HETATM   16  C18 UNL     1      -8.684  77.369  10.379  1.00  0.00     0.275 C
HETATM   17  N5  UNL     1      -7.365  76.764  10.235  1.00  0.00    -0.052 NA
HETATM   18  N6  UNL     1      -9.521  77.228   9.178  1.00  0.00    -0.052 NA
ENDBRANCH  12  15
BRANCH  14  19
HETATM   19  O3  UNL     1     -10.191  77.928  15.970  1.00  0.00    -0.360 OA
ATOM     20  H3  UNL     1      -9.616  77.922  16.726  1.00  0.00     0.217 HD
ENDBRANCH  14  19
ENDBRANCH   6   8
ENDBRANCH   3   5
BRANCH   1  21
HETATM   21  C11 UNL     1     -12.013  83.496  19.287  1.00  0.00     0.210 C
HETATM   22  N1  UNL     1     -11.686  84.755  18.829  1.00  0.00    -0.314 N
HETATM   23  C6  UNL     1     -12.044  85.191  20.221  1.00  0.00     0.032 C
HETATM   24  C7  UNL     1     -12.821  86.057  20.757  1.00  0.00    -0.000 C
HETATM   25  C10 UNL     1     -11.161  84.063  20.595  1.00  0.00     0.164 C
HETATM   26 CL1  UNL     1      -9.501  84.345  20.115  1.00  0.00    -0.116 Cl
BRANCH  22  27
HETATM   27  C5  UNL     1     -11.206  85.658  17.845  1.00  0.00     0.149 C
BRANCH  27  28
HETATM   28  C3  UNL     1     -11.107  85.482  16.420  1.00  0.00    -0.015 C
HETATM   29  C4  UNL     1     -10.066  86.114  15.620  1.00  0.00     0.052 C
BRANCH  28  30
HETATM   30  C2  UNL     1     -11.948  84.650  15.795  1.00  0.00    -0.020 C
HETATM   31  C1  UNL     1     -11.674  84.048  14.474  1.00  0.00     0.036 C
ENDBRANCH  28  30
ENDBRANCH  27  28
BRANCH  27  32
HETATM   32  O1  UNL     1     -10.790  86.847  18.234  1.00  0.00    -0.346 OA
ATOM     33  H1  UNL     1     -10.642  86.891  19.171  1.00  0.00     0.219 HD
ENDBRANCH  27  32
ENDBRANCH  22  27
BRANCH  24  34
HETATM   34  C8  UNL     1     -13.743  87.021  20.242  1.00  0.00     0.025 C
HETATM   35  C9  UNL     1     -14.421  86.778  18.947  1.00  0.00     0.009 C
ENDBRANCH  24  34
ENDBRANCH   1  21
TORSDOF 10
ENDMDL