MODEL 4
REMARK VINA RESULT: -7.283657533      1.995      2.450
REMARK  7 active torsions:
REMARK  status: ('A' for Active; 'I' for Inactive)
REMARK    1  A    between atoms: C4_4  and  C5_5
REMARK    2  A    between atoms: C6_12  and  N3_13
REMARK       I    between atoms: N3_13  and  C7_15
REMARK    3  A    between atoms: C7_15  and  C8_17
REMARK    4  A    between atoms: C10_19  and  C11_20
REMARK    5  A    between atoms: C12_21  and  S1_22
REMARK    6  A    between atoms: C14_27  and  O5_28
REMARK    7  A    between atoms: C16_30  and  O6_31
ROOT
HETATM    1  C1  UNL     1     -16.470  84.999  15.307  1.00  0.00     0.018 C
HETATM    2  C2  UNL     1     -15.516  85.232  16.003  1.00  0.00    -0.072 C
HETATM    3  C3  UNL     1     -14.393  85.534  16.840  1.00  0.00     0.089 A
HETATM    4  C4  UNL     1     -14.337  86.655  17.652  1.00  0.00     0.081 A
HETATM    5  N1  UNL     1     -13.160  86.637  18.296  1.00  0.00    -0.299 N
ATOM      6  H1  UNL     1     -12.838  87.338  18.964  1.00  0.00     0.186 HD
HETATM    7  N2  UNL     1     -12.494  85.575  17.928  1.00  0.00    -0.284 N
ATOM      8  H2  UNL     1     -11.567  85.322  18.270  1.00  0.00     0.188 HD
HETATM    9  C6  UNL     1     -13.215  84.851  17.021  1.00  0.00     0.143 A
ENDROOT
BRANCH   4  10
HETATM   10  C5  UNL     1     -15.366  87.678  17.789  1.00  0.00     0.230 C
HETATM   11 CL1  UNL     1     -15.366  88.819  16.398  1.00  0.00    -0.101 Cl
HETATM   12 CL2  UNL     1     -15.215  88.644  19.256  1.00  0.00    -0.101 Cl
ENDBRANCH   4  10
BRANCH   9  13
HETATM   13  N3  UNL     1     -12.855  83.764  16.466  1.00  0.00    -0.306 N
HETATM   14  C7  UNL     1     -11.589  83.172  16.427  1.00  0.00     0.260 C
HETATM   15  O1  UNL     1     -11.218  82.446  17.376  1.00  0.00    -0.267 OA
ATOM     16  H3  UNL     1     -13.593  83.252  15.982  1.00  0.00     0.170 HD
BRANCH  14  17
HETATM   17  C8  UNL     1     -10.698  83.386  15.308  1.00  0.00     0.069 A
HETATM   18  C9  UNL     1     -10.562  82.401  14.350  1.00  0.00     0.031 A
HETATM   19  C10 UNL     1      -9.731  82.548  13.240  1.00  0.00    -0.032 A
HETATM   20  C13 UNL     1      -9.042  83.730  13.133  1.00  0.00     0.051 A
HETATM   21  C14 UNL     1      -9.178  84.727  14.101  1.00  0.00     0.103 A
HETATM   22  C16 UNL     1     -10.008  84.567  15.200  1.00  0.00     0.117 A
BRANCH  19  23
HETATM   23  C11 UNL     1      -9.633  81.464  12.262  1.00  0.00     0.026 C
HETATM   24  C12 UNL     1      -8.915  80.379  12.419  1.00  0.00     0.134 C
BRANCH  24  25
HETATM   25  S1  UNL     1      -8.875  79.146  11.179  1.00  0.00     0.126 S
HETATM   26  O2  UNL     1      -8.113  77.929  11.646  1.00  0.00    -0.592 OA
HETATM   27  O3  UNL     1      -8.208  79.697   9.960  1.00  0.00    -0.592 OA
HETATM   28  O4  UNL     1     -10.472  78.708  10.859  1.00  0.00    -0.592 OA
ENDBRANCH  24  25
ENDBRANCH  19  23
BRANCH  21  29
HETATM   29  O5  UNL     1      -8.476  85.914  13.977  1.00  0.00    -0.353 OA
HETATM   30  C15 UNL     1      -8.761  86.742  12.869  1.00  0.00     0.210 C
ENDBRANCH  21  29
BRANCH  22  31
HETATM   31  O6  UNL     1     -10.071  85.615  16.102  1.00  0.00    -0.352 OA
HETATM   32  C17 UNL     1      -9.214  85.767  17.215  1.00  0.00     0.210 C
ENDBRANCH  22  31
ENDBRANCH  14  17
ENDBRANCH   9  13
TORSDOF 7
ENDMDL