MODEL 4
REMARK VINA RESULT: -8.221883896      5.572      9.295
REMARK  10 active torsions:
REMARK  status: ('A' for Active; 'I' for Inactive)
REMARK    1  A    between atoms: O1_2  and  C2_3
REMARK    2  A    between atoms: C3_4  and  O2_5
REMARK    3  A    between atoms: C4_7  and  C5_8
REMARK    4  A    between atoms: C5_8  and  O3_9
REMARK    5  A    between atoms: C7_12  and  C8_13
REMARK    6  A    between atoms: C8_13  and  O4_14
REMARK    7  A    between atoms: C8_13  and  C9_16
REMARK    8  A    between atoms: C10_17  and  C11_18
REMARK    9  A    between atoms: C12_19  and  C13_20
REMARK   10  A    between atoms: C26_35  and  O5_36
ROOT
HETATM    1  C9  UNL     1      -8.628  80.710  19.617  1.00  0.00     0.036 C
HETATM    2  C10 UNL     1      -9.038  79.365  19.018  1.00  0.00     0.077 C
HETATM    3  C19 UNL     1      -7.778  78.561  19.086  1.00  0.00     0.010 C
HETATM    4  C20 UNL     1      -6.758  79.217  18.184  1.00  0.00     0.007 C
HETATM    5  C21 UNL     1      -6.322  80.497  18.910  1.00  0.00     0.006 C
HETATM    6  C22 UNL     1      -7.230  80.503  20.129  1.00  0.00     0.002 C
HETATM    7  C23 UNL     1      -7.259  79.027  20.446  1.00  0.00    -0.031 A
HETATM    8  C24 UNL     1      -7.706  78.458  21.701  1.00  0.00     0.011 A
HETATM    9  C25 UNL     1      -6.244  78.327  21.184  1.00  0.00     0.011 A
ENDROOT
BRANCH   1  10
HETATM   10  C8  UNL     1      -9.628  81.085  20.629  1.00  0.00     0.130 C
BRANCH  10  11
HETATM   11  C7  UNL     1     -10.043  82.497  20.749  1.00  0.00     0.047 C
HETATM   12  C6  UNL     1      -9.844  83.097  19.336  1.00  0.00     0.019 C
HETATM   13  C4  UNL     1     -10.165  84.552  19.320  1.00  0.00     0.041 C
HETATM   14  C3  UNL     1     -10.701  85.095  20.598  1.00  0.00     0.155 C
HETATM   15  C2  UNL     1     -10.011  84.655  21.841  1.00  0.00     0.179 C
HETATM   16  C26 UNL     1      -9.196  83.371  21.637  1.00  0.00     0.159 C
BRANCH  13  17
HETATM   17  C5  UNL     1      -8.981  85.376  18.800  1.00  0.00     0.171 C
BRANCH  17  18
HETATM   18  O3  UNL     1      -9.436  86.459  18.051  1.00  0.00    -0.400 OA
ATOM     19  H3  UNL     1      -8.716  87.041  17.840  1.00  0.00     0.209 HD
ENDBRANCH  17  18
ENDBRANCH  13  17
BRANCH  14  20
HETATM   20  O2  UNL     1     -10.640  86.506  20.505  1.00  0.00    -0.392 OA
ATOM     21  H2  UNL     1     -11.510  86.847  20.332  1.00  0.00     0.210 HD
ENDBRANCH  14  20
BRANCH  15  22
HETATM   22  O1  UNL     1      -9.255  85.671  22.373  1.00  0.00    -0.386 OA
HETATM   23  C1  UNL     1      -9.672  86.052  23.647  1.00  0.00     0.202 C
ENDBRANCH  15  22
BRANCH  16  24
HETATM   24  O5  UNL     1      -8.866  82.843  22.855  1.00  0.00    -0.388 OA
HETATM   25  C27 UNL     1      -7.474  82.874  23.075  1.00  0.00     0.202 C
ENDBRANCH  16  24
ENDBRANCH  10  11
BRANCH  10  26
HETATM   26  O4  UNL     1     -10.760  80.286  20.494  1.00  0.00    -0.395 OA
ATOM     27  H4  UNL     1     -11.083  80.351  19.603  1.00  0.00     0.210 HD
ENDBRANCH  10  26
ENDBRANCH   1  10
BRANCH   2  28
HETATM   28  C11 UNL     1      -9.426  79.476  17.614  1.00  0.00    -0.095 C
HETATM   29  C12 UNL     1      -9.748  79.547  16.454  1.00  0.00    -0.063 C
BRANCH  29  30
HETATM   30  C13 UNL     1     -10.113  79.634  15.049  1.00  0.00     0.056 A
HETATM   31  C14 UNL     1     -10.894  80.700  14.666  1.00  0.00     0.027 A
HETATM   32  C15 UNL     1     -11.240  80.785  13.333  1.00  0.00     0.044 A
HETATM   33  C16 UNL     1     -10.834  79.853  12.401  1.00  0.00     0.119 A
HETATM   34  F1  UNL     1     -11.182  79.950  11.095  1.00  0.00    -0.206 F
HETATM   35  C17 UNL     1     -10.052  78.790  12.797  1.00  0.00     0.086 A
HETATM   36  C18 UNL     1      -9.688  78.684  14.144  1.00  0.00     0.138 A
HETATM   37  F2  UNL     1      -8.921  77.639  14.528  1.00  0.00    -0.204 F
ENDBRANCH  29  30
ENDBRANCH   2  28
TORSDOF 10
ENDMDL