MODEL 2
REMARK VINA RESULT: -8.166118263      4.473      7.972
REMARK  7 active torsions:
REMARK  status: ('A' for Active; 'I' for Inactive)
REMARK    1  A    between atoms: C4_4  and  C5_5
REMARK    2  A    between atoms: C8_9  and  O1_10
REMARK    3  A    between atoms: C9_12  and  N2_13
REMARK       I    between atoms: N2_13  and  C10_15
REMARK    4  A    between atoms: C10_15  and  C11_17
REMARK    5  A    between atoms: C11_17  and  C12_18
REMARK    6  A    between atoms: C11_17  and  C14_22
REMARK    7  A    between atoms: C12_18  and  C13_19
ROOT
HETATM    1  C5  UNL     1      -8.869  80.122  14.947  1.00  0.00    -0.008 C
HETATM    2  C6  UNL     1      -8.257  78.962  15.144  1.00  0.00     0.090 C
HETATM    3  C7  UNL     1      -8.848  77.727  14.762  1.00  0.00     0.087 C
HETATM    4  N1  UNL     1      -9.322  76.693  14.457  1.00  0.00    -0.192 NA
ENDROOT
BRANCH   1   5
HETATM    5  C4  UNL     1     -10.200  80.227  14.323  1.00  0.00     0.048 C
HETATM    6  C2  UNL     1     -10.145  80.956  13.004  1.00  0.00    -0.025 C
HETATM    7  C1  UNL     1      -8.876  80.604  12.296  1.00  0.00     0.016 C
HETATM    8  C3  UNL     1     -11.298  80.394  12.159  1.00  0.00     0.016 C
HETATM    9  C23 UNL     1     -10.315  82.411  13.088  1.00  0.00     0.102 C
HETATM   10  C20 UNL     1     -11.338  82.909  14.093  1.00  0.00     0.050 C
HETATM   11  C22 UNL     1      -9.126  83.182  13.444  1.00  0.00     0.264 C
HETATM   12  C9  UNL     1     -11.067  82.293  15.434  1.00  0.00     0.120 C
HETATM   13  C21 UNL     1     -10.991  84.384  14.032  1.00  0.00     0.186 C
HETATM   14  C8  UNL     1     -11.236  80.786  15.244  1.00  0.00     0.149 C
HETATM   15  O5  UNL     1      -9.581  84.322  14.128  1.00  0.00    -0.321 OA
HETATM   16  O6  UNL     1      -7.897  82.999  13.252  1.00  0.00    -0.265 OA
BRANCH  12  17
HETATM   17  N2  UNL     1     -11.988  82.675  16.481  1.00  0.00    -0.353 N
HETATM   18  C10 UNL     1     -11.543  83.443  17.583  1.00  0.00     0.223 C
HETATM   19  O2  UNL     1     -10.367  83.816  17.673  1.00  0.00    -0.273 OA
ATOM     20  H2  UNL     1     -12.965  82.388  16.425  1.00  0.00     0.163 HD
BRANCH  18  21
HETATM   21  C11 UNL     1     -12.491  83.843  18.713  1.00  0.00     0.092 C
BRANCH  21  22
HETATM   22  C12 UNL     1     -11.860  83.343  19.931  1.00  0.00     0.127 C
BRANCH  22  23
HETATM   23  C13 UNL     1     -12.222  82.049  20.498  1.00  0.00     0.173 C
HETATM   24  O3  UNL     1     -11.456  81.055  20.422  1.00  0.00    -0.648 OA
HETATM   25  O4  UNL     1     -13.428  81.805  21.163  1.00  0.00    -0.648 OA
ENDBRANCH  22  23
ENDBRANCH  21  22
BRANCH  21  26
HETATM   26  C14 UNL     1     -12.805  85.299  18.543  1.00  0.00    -0.001 C
HETATM   27  C15 UNL     1     -13.989  85.666  17.747  1.00  0.00     0.011 C
HETATM   28  C16 UNL     1     -15.014  86.565  18.314  1.00  0.00     0.079 C
HETATM   29  C17 UNL     1     -14.346  87.624  19.164  1.00  0.00     0.243 C
HETATM   30  F1  UNL     1     -15.304  88.498  19.664  1.00  0.00    -0.206 F
HETATM   31  F2  UNL     1     -13.330  88.271  18.525  1.00  0.00    -0.206 F
HETATM   32  C18 UNL     1     -13.773  86.826  20.331  1.00  0.00     0.079 C
HETATM   33  C19 UNL     1     -12.599  86.086  19.816  1.00  0.00     0.011 C
ENDBRANCH  21  26
ENDBRANCH  18  21
ENDBRANCH  12  17
BRANCH  14  34
HETATM   34  O1  UNL     1     -11.130  80.155  16.480  1.00  0.00    -0.393 OA
ATOM     35  H1  UNL     1     -11.481  79.275  16.408  1.00  0.00     0.210 HD
ENDBRANCH  14  34
ENDBRANCH   1   5
TORSDOF 7
ENDMDL