MODEL 1
REMARK VINA RESULT: -8.420149500      0.000      0.000
REMARK  9 active torsions:
REMARK  status: ('A' for Active; 'I' for Inactive)
REMARK    1  A    between atoms: C2_2  and  C3_3
REMARK    2  A    between atoms: C4_4  and  C5_5
REMARK    3  A    between atoms: C5_5  and  N1_8
REMARK       I    between atoms: N1_8  and  C8_10
REMARK    4  A    between atoms: C8_10  and  C9_12
REMARK    5  A    between atoms: C9_12  and  N2_13
REMARK    6  A    between atoms: C9_12  and  C18_30
REMARK       I    between atoms: N2_13  and  C10_15
REMARK    7  A    between atoms: C10_15  and  C11_17
REMARK    8  A    between atoms: C11_17  and  N3_19
REMARK    9  A    between atoms: N3_19  and  C13_21
ROOT
HETATM    1  C9  UNL     1      -8.746  82.191  21.490  1.00  0.00     0.084 C
ENDROOT
BRANCH   1   2
HETATM    2  C8  UNL     1      -8.132  80.926  21.096  1.00  0.00     0.265 C
HETATM    3  N1  UNL     1      -8.216  79.722  21.799  1.00  0.00    -0.337 N
ATOM      4  H1  UNL     1      -8.753  79.690  22.666  1.00  0.00     0.164 HD
HETATM    5  O1  UNL     1      -7.466  80.946  20.001  1.00  0.00    -0.266 OA
BRANCH   3   6
HETATM    6  C5  UNL     1      -7.554  78.502  21.325  1.00  0.00     0.089 C
HETATM    7  C6  UNL     1      -6.048  78.633  21.328  1.00  0.00     0.053 C
HETATM    8  C7  UNL     1      -7.969  78.173  19.899  1.00  0.00     0.053 C
BRANCH   6   9
HETATM    9  C4  UNL     1      -7.954  77.439  22.248  1.00  0.00    -0.076 C
HETATM   10  C3  UNL     1      -8.297  76.578  23.018  1.00  0.00    -0.104 C
BRANCH  10  11
HETATM   11  C2  UNL     1      -8.719  75.534  23.985  1.00  0.00     0.089 C
HETATM   12  C1  UNL     1      -8.052  75.791  25.339  1.00  0.00     0.018 C
ENDBRANCH  10  11
ENDBRANCH   6   9
ENDBRANCH   3   6
ENDBRANCH   1   2
BRANCH   1  13
HETATM   13  N2  UNL     1     -10.179  82.252  21.319  1.00  0.00    -0.324 N
HETATM   14  C10 UNL     1     -10.859  82.666  20.163  1.00  0.00     0.244 C
HETATM   15  O2  UNL     1     -10.226  83.027  19.154  1.00  0.00    -0.271 OA
ATOM     16  H2  UNL     1     -10.751  81.967  22.115  1.00  0.00     0.169 HD
BRANCH  14  17
HETATM   17  C11 UNL     1     -12.337  82.674  20.133  1.00  0.00     0.171 C
HETATM   18  C12 UNL     1     -12.908  81.509  20.916  1.00  0.00     0.042 C
BRANCH  17  19
HETATM   19  N3  UNL     1     -12.859  83.923  20.642  1.00  0.00    -0.362 N
ATOM     20  H3  UNL     1     -12.897  84.094  21.647  1.00  0.00     0.162 HD
BRANCH  19  21
HETATM   21  C13 UNL     1     -13.275  84.813  19.817  1.00  0.00     0.123 A
HETATM   22  N4  UNL     1     -14.380  84.702  19.061  1.00  0.00    -0.350 N
HETATM   23  C14 UNL     1     -14.786  85.655  18.205  1.00  0.00     0.113 A
ATOM     24  H4  UNL     1     -14.939  83.853  19.141  1.00  0.00     0.166 HD
HETATM   25  C15 UNL     1     -14.074  86.834  18.051  1.00  0.00     0.051 A
HETATM   26 CL1  UNL     1     -14.636  88.055  16.925  1.00  0.00    -0.083 Cl
HETATM   27  C16 UNL     1     -12.934  86.986  18.810  1.00  0.00     0.053 A
HETATM   28  C17 UNL     1     -12.548  85.998  19.671  1.00  0.00     0.079 A
HETATM   29 CL2  UNL     1     -11.092  86.247  20.608  1.00  0.00    -0.080 Cl
ENDBRANCH  19  21
ENDBRANCH  17  19
ENDBRANCH  14  17
ENDBRANCH   1  13
BRANCH   1  30
HETATM   30  C18 UNL     1      -8.298  82.818  22.751  1.00  0.00     0.045 C
HETATM   31  C19 UNL     1      -9.169  84.098  22.936  1.00  0.00     0.037 C
HETATM   32  C20 UNL     1      -8.620  84.799  24.180  1.00  0.00     0.168 C
HETATM   33  O3  UNL     1      -7.334  85.228  23.952  1.00  0.00    -0.391 OA
HETATM   34  C21 UNL     1      -6.444  84.174  23.737  1.00  0.00     0.168 C
HETATM   35  C22 UNL     1      -6.869  83.331  22.552  1.00  0.00     0.037 C
ENDBRANCH   1  30
TORSDOF 9
ENDMDL