MODEL 5
REMARK VINA RESULT: -6.238762496      1.515      4.559
REMARK  5 active torsions:
REMARK  status: ('A' for Active; 'I' for Inactive)
REMARK    1  A    between atoms: C2_2  and  C3_3
REMARK    2  A    between atoms: C3_3  and  C4_4
REMARK    3  A    between atoms: C4_4  and  N1_5
REMARK    4  A    between atoms: N1_5  and  C5_7
REMARK    5  A    between atoms: C10_17  and  N4_18
ROOT
HETATM    1  C5  UNL     1      -0.938   3.248  83.587  1.00  0.00     0.067 A
HETATM    2  C6  UNL     1      -0.951   4.487  82.961  1.00  0.00     0.060 A
HETATM    3 BR1  UNL     1       0.013   4.778  81.335  1.00  0.00    -0.046 Br
HETATM    4  C7  UNL     1      -1.677   5.504  83.537  1.00  0.00     0.026 A
HETATM    5  C8  UNL     1      -1.697   6.847  82.867  1.00  0.00     0.070 C
HETATM    6  N2  UNL     1      -2.358   5.328  84.668  1.00  0.00    -0.344 N
ATOM      7  H2  UNL     1      -2.883   6.107  85.062  1.00  0.00     0.167 HD
HETATM    8  C9  UNL     1      -2.365   4.136  85.301  1.00  0.00     0.136 A
HETATM    9  N3  UNL     1      -3.085   4.017  86.461  1.00  0.00    -0.176 N
ATOM     10  H3  UNL     1      -3.605   4.805  86.847  1.00  0.00     0.186 HD
HETATM   11  C10 UNL     1      -3.075   2.826  87.066  1.00  0.00     0.677 A
HETATM   12  N5  UNL     1      -2.398   1.783  86.578  1.00  0.00    -0.195 N
ATOM     13  H5  UNL     1      -2.431   0.901  87.090  1.00  0.00     0.184 HD
HETATM   14  C11 UNL     1      -1.657   1.838  85.420  1.00  0.00     0.039 A
HETATM   15  C12 UNL     1      -0.937   0.662  84.933  1.00  0.00     0.070 C
HETATM   16  C13 UNL     1      -1.664   3.066  84.790  1.00  0.00     0.059 A
ENDROOT
BRANCH   1  17
HETATM   17  N1  UNL     1      -0.328   2.251  83.180  1.00  0.00    -0.368 N
ATOM     18  H1  UNL     1       0.041   1.746  83.986  1.00  0.00     0.165 HD
BRANCH  17  19
HETATM   19  C4  UNL     1       0.037   1.569  82.034  1.00  0.00     0.061 C
BRANCH  19  20
HETATM   20  C3  UNL     1      -1.124   0.936  81.269  1.00  0.00     0.044 C
BRANCH  20  21
HETATM   21  C2  UNL     1      -1.136  -0.529  81.644  1.00  0.00     0.001 C
HETATM   22  C1  UNL     1       0.239  -1.151  81.519  1.00  0.00     0.005 C
ENDBRANCH  20  21
ENDBRANCH  19  20
ENDBRANCH  17  19
ENDBRANCH   1  17
BRANCH  11  23
HETATM   23  N4  UNL     1      -3.731   2.649  88.159  1.00  0.00    -0.234 N
ATOM     24  H42 UNL     1      -4.517   1.998  88.136  1.00  0.00     0.174 HD
ATOM     25  H41 UNL     1      -3.460   3.147  89.007  1.00  0.00     0.174 HD
ENDBRANCH  11  23
TORSDOF 5
ENDMDL