MODEL 3
REMARK VINA RESULT: -6.287379699      2.146      3.823
REMARK  5 active torsions:
REMARK  status: ('A' for Active; 'I' for Inactive)
REMARK    1  A    between atoms: C4_4  and  C5_5
REMARK    2  A    between atoms: C5_5  and  O1_6
REMARK    3  A    between atoms: C6_8  and  C7_9
REMARK    4  A    between atoms: C7_9  and  C8_10
REMARK    5  A    between atoms: C11_15  and  C13_17
ROOT
HETATM    1  C1  UNL     1       1.729   6.664  84.508  1.00  0.00     0.016 C
HETATM    2  C2  UNL     1       1.129   5.409  83.957  1.00  0.00     0.028 C
HETATM    3  C3  UNL     1       0.027   4.835  84.814  1.00  0.00     0.023 C
HETATM    4  C4  UNL     1      -1.152   4.564  83.913  1.00  0.00    -0.001 C
HETATM    5  C6  UNL     1      -1.864   3.303  84.182  1.00  0.00     0.007 C
HETATM    6  C9  UNL     1      -1.249   2.098  83.488  1.00  0.00     0.007 C
HETATM    7  C10 UNL     1       0.056   2.408  82.829  1.00  0.00     0.020 C
HETATM    8  C11 UNL     1      -0.216   3.510  81.827  1.00  0.00     0.046 C
HETATM    9  C12 UNL     1      -1.326   2.952  80.917  1.00  0.00     0.026 C
HETATM   10  C14 UNL     1      -0.691   4.754  82.485  1.00  0.00     0.020 C
HETATM   11  C15 UNL     1      -1.697   5.489  81.624  1.00  0.00     0.024 C
HETATM   12  C16 UNL     1       0.460   5.682  82.652  1.00  0.00    -0.006 C
HETATM   13  N1  UNL     1       0.853   6.597  81.858  1.00  0.00    -0.405 N
ATOM     14  H11 UNL     1       0.395   6.784  80.966  1.00  0.00     0.155 HD
ATOM     15  H12 UNL     1       1.641   7.233  81.972  1.00  0.00     0.155 HD
ENDROOT
BRANCH   5  16
HETATM   16  C7  UNL     1      -1.944   2.905  85.640  1.00  0.00     0.118 C
BRANCH  16  17
HETATM   17  C8  UNL     1      -1.211   1.609  85.871  1.00  0.00     0.172 C
HETATM   18  O2  UNL     1      -0.094   1.652  86.425  1.00  0.00    -0.648 OA
HETATM   19  O3  UNL     1      -1.724   0.385  85.496  1.00  0.00    -0.648 OA
ENDBRANCH  16  17
ENDBRANCH   5  16
BRANCH   4  20
HETATM   20  C5  UNL     1      -2.130   5.728  84.139  1.00  0.00     0.175 C
BRANCH  20  21
HETATM   21  O1  UNL     1      -1.844   6.406  85.312  1.00  0.00    -0.400 OA
ATOM     22  H1  UNL     1      -2.633   6.588  85.808  1.00  0.00     0.209 HD
ENDBRANCH  20  21
ENDBRANCH   4  20
BRANCH   8  23
HETATM   23  C13 UNL     1       0.971   3.641  80.958  1.00  0.00     0.228 C
HETATM   24  O4  UNL     1       0.843   4.065  79.823  1.00  0.00    -0.279 OA
HETATM   25 CL1  UNL     1       2.606   3.222  81.441  1.00  0.00    -0.043 Cl
ENDBRANCH   8  23
TORSDOF 5
ENDMDL