MODEL 1
REMARK VINA RESULT: -6.305147029      0.000      0.000
REMARK  5 active torsions:
REMARK  status: ('A' for Active; 'I' for Inactive)
REMARK    1  A    between atoms: C2_2  and  C3_3
REMARK    2  A    between atoms: C3_3  and  N1_4
REMARK    3  A    between atoms: N1_4  and  C4_6
REMARK    4  A    between atoms: C7_13  and  C8_14
REMARK    5  A    between atoms: C11_19  and  N5_20
ROOT
HETATM    1  C4  UNL     1      -0.478   2.726  82.459  1.00  0.00     0.116 A
HETATM    2  N2  UNL     1      -0.340   1.393  82.394  1.00  0.00    -0.338 N
ATOM      3  H2  UNL     1       0.108   1.003  81.565  1.00  0.00     0.168 HD
HETATM    4  C5  UNL     1      -0.752   0.530  83.346  1.00  0.00     0.182 A
HETATM    5  N3  UNL     1      -1.343   0.998  84.447  1.00  0.00    -0.350 N
ATOM      6  H3  UNL     1      -1.658   0.358  85.177  1.00  0.00     0.166 HD
HETATM    7  C6  UNL     1      -1.520   2.329  84.583  1.00  0.00     0.071 A
HETATM    8  C7  UNL     1      -2.152   2.790  85.729  1.00  0.00     0.043 A
HETATM    9  N4  UNL     1      -2.339   4.108  85.853  1.00  0.00    -0.343 N
ATOM     10  H4  UNL     1      -2.804   4.464  86.689  1.00  0.00     0.167 HD
HETATM   11  C11 UNL     1      -1.932   4.992  84.901  1.00  0.00     0.117 A
HETATM   12  C12 UNL     1      -1.299   4.572  83.753  1.00  0.00     0.070 A
HETATM   13 BR1  UNL     1      -0.738   5.823  82.419  1.00  0.00    -0.046 Br
HETATM   14  C13 UNL     1      -1.094   3.208  83.601  1.00  0.00     0.058 A
ENDROOT
BRANCH   1  15
HETATM   15  N1  UNL     1      -0.063   3.529  81.542  1.00  0.00    -0.376 N
ATOM     16  H1  UNL     1      -0.587   4.394  81.411  1.00  0.00     0.161 HD
BRANCH  15  17
HETATM   17  C3  UNL     1       1.056   3.319  80.698  1.00  0.00     0.121 C
BRANCH  17  18
HETATM   18  C2  UNL     1       2.405   3.369  81.347  1.00  0.00     0.015 C
HETATM   19  C1  UNL     1       2.900   4.768  81.633  1.00  0.00     0.006 C
ENDBRANCH  17  18
ENDBRANCH  15  17
ENDBRANCH   1  15
BRANCH   8  20
HETATM   20  C8  UNL     1      -2.582   1.815  86.793  1.00  0.00     0.038 A
HETATM   21  C9  UNL     1      -3.996   1.815  87.282  1.00  0.00     0.011 A
HETATM   22  C10 UNL     1      -2.890   2.415  88.121  1.00  0.00     0.011 A
ENDBRANCH   8  20
BRANCH  11  23
HETATM   23  N5  UNL     1      -2.138   6.247  85.067  1.00  0.00    -0.384 N
ATOM     24  H52 UNL     1      -2.768   6.546  85.811  1.00  0.00     0.157 HD
ATOM     25  H51 UNL     1      -1.672   6.921  84.459  1.00  0.00     0.157 HD
ENDBRANCH  11  23
TORSDOF 5
ENDMDL