MODEL 3
REMARK VINA RESULT: -6.261930341      1.281      1.484
REMARK  4 active torsions:
REMARK  status: ('A' for Active; 'I' for Inactive)
REMARK    1  A    between atoms: C2_2  and  C3_3
REMARK    2  A    between atoms: C8_14  and  N3_15
REMARK    3  A    between atoms: N3_15  and  C9_17
REMARK    4  A    between atoms: C9_17  and  C11_19
ROOT
HETATM    1  C3  UNL     1      -2.391   2.493  86.270  1.00  0.00     0.011 A
HETATM    2  C4  UNL     1      -2.716   3.827  86.163  1.00  0.00     0.046 A
HETATM    3  C5  UNL     1      -2.298   4.559  85.037  1.00  0.00     0.040 A
HETATM    4  S1  UNL     1      -2.488   6.183  84.537  1.00  0.00    -0.052 SA
HETATM    5  C6  UNL     1      -1.643   6.093  83.070  1.00  0.00     0.143 A
HETATM    6  N1  UNL     1      -1.408   7.026  82.167  1.00  0.00    -0.380 N
ATOM      7  H11 UNL     1      -0.900   6.971  81.284  1.00  0.00     0.158 HD
ATOM      8  H12 UNL     1      -1.711   7.999  82.206  1.00  0.00     0.158 HD
HETATM    9  N2  UNL     1      -1.247   4.820  83.018  1.00  0.00    -0.333 N
ATOM     10  H2  UNL     1      -0.706   4.476  82.225  1.00  0.00     0.168 HD
HETATM   11  C7  UNL     1      -1.570   4.013  84.015  1.00  0.00     0.096 A
HETATM   12  C8  UNL     1      -1.253   2.633  84.160  1.00  0.00     0.130 A
HETATM   13  N4  UNL     1      -1.681   1.968  85.270  1.00  0.00    -0.344 N
ATOM     14  H4  UNL     1      -1.436   0.980  85.342  1.00  0.00     0.167 HD
ENDROOT
BRANCH  12  15
HETATM   15  N3  UNL     1      -0.603   1.952  83.347  1.00  0.00    -0.369 N
ATOM     16  H3  UNL     1       0.339   1.906  83.738  1.00  0.00     0.161 HD
BRANCH  15  17
HETATM   17  C9  UNL     1      -0.540   1.247  82.201  1.00  0.00     0.089 C
HETATM   18  C10 UNL     1      -1.470   1.660  81.073  1.00  0.00     0.033 C
BRANCH  17  19
HETATM   19  C11 UNL     1      -0.924  -0.240  82.463  1.00  0.00     0.110 C
HETATM   20 BR1  UNL     1       0.267  -1.398  81.494  1.00  0.00    -0.094 Br
ENDBRANCH  17  19
ENDBRANCH  15  17
ENDBRANCH  12  15
BRANCH   1  21
HETATM   21  C2  UNL     1      -2.820   1.703  87.448  1.00  0.00     0.052 C
HETATM   22  C1  UNL     1      -3.034   2.617  88.642  1.00  0.00     0.011 C
ENDBRANCH   1  21
TORSDOF 4
ENDMDL