MODEL 3
REMARK VINA RESULT: -7.044121200      1.529      6.674
REMARK  3 active torsions:
REMARK  status: ('A' for Active; 'I' for Inactive)
REMARK    1  A    between atoms: C2_2  and  N1_3
REMARK    2  A    between atoms: N2_6  and  C5_7
REMARK    3  A    between atoms: C9_12  and  C10_13
ROOT
HETATM    1  C5  UNL     1       0.954   2.913  81.244  1.00  0.00     0.037 A
HETATM    2  C6  UNL     1       1.007   1.581  80.869  1.00  0.00     0.053 A
HETATM    3  C7  UNL     1       0.188   0.700  81.537  1.00  0.00     0.036 A
HETATM    4 CL1  UNL     1       0.267  -0.982  81.058  1.00  0.00    -0.084 Cl
HETATM    5  C8  UNL     1      -0.665   1.087  82.542  1.00  0.00     0.031 A
HETATM    6  C9  UNL     1      -0.717   2.408  82.909  1.00  0.00    -0.048 A
HETATM    7  C15 UNL     1       0.084   3.318  82.270  1.00  0.00     0.037 A
ENDROOT
BRANCH   1   8
HETATM    8  N2  UNL     1       1.783   3.845  80.609  1.00  0.00    -0.334 N
HETATM    9  C4  UNL     1       1.338   4.592  79.420  1.00  0.00     0.161 C
HETATM   10  C3  UNL     1       2.409   4.375  78.408  1.00  0.00     0.293 C
HETATM   11  N1  UNL     1       3.726   4.834  78.744  1.00  0.00     0.096 N
HETATM   12  C17 UNL     1       4.073   4.769  80.142  1.00  0.00     0.348 C
HETATM   13  C16 UNL     1       3.084   4.122  81.033  1.00  0.00     0.106 C
HETATM   14  N4  UNL     1       3.473   3.840  82.229  1.00  0.00    -0.387 N
ATOM     15  H42 UNL     1       2.790   3.394  82.843  1.00  0.00     0.157 HD
ATOM     16  H41 UNL     1       4.423   4.043  82.539  1.00  0.00     0.157 HD
BRANCH  11  17
HETATM   17  C2  UNL     1       3.939   6.195  78.230  1.00  0.00     0.268 C
HETATM   18  C1  UNL     1       3.492   6.239  76.795  1.00  0.00     0.037 C
ENDBRANCH  11  17
ENDBRANCH   1   8
BRANCH   6  19
HETATM   19  C10 UNL     1      -1.637   2.804  83.987  1.00  0.00     0.051 C
HETATM   20  C11 UNL     1      -1.552   1.875  85.193  1.00  0.00     0.044 C
HETATM   21  C12 UNL     1      -1.312   2.923  86.260  1.00  0.00     0.189 C
HETATM   22  C13 UNL     1      -2.224   4.062  85.869  1.00  0.00     0.066 C
HETATM   23  N3  UNL     1      -0.241   3.749  85.673  1.00  0.00    -0.066 N
HETATM   24  C14 UNL     1      -1.260   4.095  84.682  1.00  0.00     0.197 C
ATOM     25  H32 UNL     1       0.267   4.453  86.208  1.00  0.00     0.278 HD
ATOM     26  H31 UNL     1       0.669   3.369  85.415  1.00  0.00     0.278 HD
ENDBRANCH   6  19
TORSDOF 3
ENDMDL