MODEL 1
REMARK VINA RESULT: -7.525472751      0.000      0.000
REMARK  5 active torsions:
REMARK  status: ('A' for Active; 'I' for Inactive)
REMARK    1  A    between atoms: C12_16  and  N3_17
REMARK    2  A    between atoms: N3_17  and  C13_19
REMARK    3  A    between atoms: C13_19  and  C14_20
REMARK    4  A    between atoms: C14_20  and  C15_21
REMARK    5  A    between atoms: C15_21  and  O1_22
ROOT
HETATM    1  C1  UNL     1       3.410   4.239  81.172  1.00  0.00     0.052 C
HETATM    2  C2  UNL     1       2.823   5.389  81.938  1.00  0.00    -0.013 A
HETATM    3  C3  UNL     1       3.388   6.640  81.929  1.00  0.00     0.042 A
HETATM    4 CL1  UNL     1       4.858   6.896  80.982  1.00  0.00    -0.084 Cl
HETATM    5  C4  UNL     1       2.820   7.670  82.645  1.00  0.00     0.032 A
HETATM    6  C5  UNL     1       1.656   7.469  83.397  1.00  0.00    -0.047 A
HETATM    7  C6  UNL     1       1.077   8.591  84.148  1.00  0.00     0.049 C
HETATM    8  C7  UNL     1       1.106   6.209  83.391  1.00  0.00     0.011 A
HETATM    9  C8  UNL     1       1.667   5.164  82.675  1.00  0.00     0.052 A
HETATM   10  N1  UNL     1       0.917   4.067  82.861  1.00  0.00    -0.353 N
ATOM     11  H1  UNL     1       1.094   3.149  82.453  1.00  0.00     0.166 HD
HETATM   12  C9  UNL     1      -0.099   4.376  83.665  1.00  0.00     0.070 A
HETATM   13  C10 UNL     1      -1.169   3.666  84.193  1.00  0.00     0.115 A
HETATM   14  C11 UNL     1      -1.241   2.274  83.814  1.00  0.00     0.105 C
HETATM   15  N2  UNL     1      -1.288   1.152  83.500  1.00  0.00    -0.191 NA
HETATM   16  C12 UNL     1      -2.115   4.218  85.025  1.00  0.00     0.124 A
HETATM   17  N4  UNL     1      -1.975   5.518  85.330  1.00  0.00    -0.350 N
ATOM     18  H4  UNL     1      -2.663   5.953  85.945  1.00  0.00     0.166 HD
HETATM   19  C16 UNL     1      -0.957   6.280  84.853  1.00  0.00     0.104 A
HETATM   20  C17 UNL     1      -0.021   5.723  84.027  1.00  0.00     0.021 A
ENDROOT
BRANCH  16  21
HETATM   21  N3  UNL     1      -3.082   3.500  85.477  1.00  0.00    -0.375 N
ATOM     22  H3  UNL     1      -3.579   2.904  84.814  1.00  0.00     0.161 HD
BRANCH  21  23
HETATM   23  C13 UNL     1      -3.512   3.475  86.839  1.00  0.00     0.123 C
BRANCH  23  24
HETATM   24  C14 UNL     1      -3.971   2.104  87.282  1.00  0.00     0.045 C
BRANCH  24  25
HETATM   25  C15 UNL     1      -2.759   1.243  87.641  1.00  0.00     0.165 C
BRANCH  25  26
HETATM   26  O1  UNL     1      -2.320   0.579  86.496  1.00  0.00    -0.401 OA
ATOM     27  H1  UNL     1      -2.629  -0.320  86.523  1.00  0.00     0.209 HD
ENDBRANCH  25  26
ENDBRANCH  24  25
ENDBRANCH  23  24
ENDBRANCH  21  23
ENDBRANCH  16  21
TORSDOF 5
ENDMDL