MODEL 3
REMARK VINA RESULT: -6.829325489      2.522      7.163
REMARK  4 active torsions:
REMARK  status: ('A' for Active; 'I' for Inactive)
REMARK    1  A    between atoms: C3_5  and  C4_6
REMARK    2  A    between atoms: C6_8  and  N2_9
REMARK    3  A    between atoms: N2_9  and  C7_11
REMARK    4  A    between atoms: C14_24  and  C15_25
ROOT
HETATM    1  C4  UNL     1      -0.322   4.366  81.880  1.00  0.00     0.019 A
HETATM    2  C5  UNL     1      -1.282   5.221  81.434  1.00  0.00     0.063 A
HETATM    3  C6  UNL     1      -1.061   6.175  80.395  1.00  0.00     0.102 A
HETATM    4  N4  UNL     1       0.171   6.210  79.847  1.00  0.00    -0.351 N
ATOM      5  H4  UNL     1       0.376   6.876  79.103  1.00  0.00     0.166 HD
HETATM    6  C12 UNL     1       1.128   5.374  80.277  1.00  0.00     0.114 A
HETATM    7  C13 UNL     1       0.919   4.441  81.288  1.00  0.00     0.062 A
HETATM    8 CL1  UNL     1       2.237   3.391  81.776  1.00  0.00    -0.082 Cl
ENDROOT
BRANCH   1   9
HETATM    9  C3  UNL     1      -0.578   3.401  82.949  1.00  0.00     0.069 A
HETATM   10  N1  UNL     1      -0.485   3.656  84.287  1.00  0.00    -0.344 N
HETATM   11  C2  UNL     1      -0.785   2.532  84.951  1.00  0.00     0.077 A
ATOM     12  H1  UNL     1      -0.230   4.549  84.709  1.00  0.00     0.167 HD
HETATM   13  C1  UNL     1      -0.807   2.377  86.445  1.00  0.00     0.089 C
HETATM   14  N5  UNL     1      -1.069   1.564  84.065  1.00  0.00    -0.347 N
HETATM   15  C14 UNL     1      -0.944   2.087  82.837  1.00  0.00     0.042 A
ATOM     16  H5  UNL     1      -1.333   0.603  84.286  1.00  0.00     0.167 HD
BRANCH  15  17
HETATM   17  C15 UNL     1      -1.158   1.379  81.551  1.00  0.00     0.038 A
HETATM   18  C16 UNL     1      -1.012  -0.152  81.602  1.00  0.00     0.011 A
HETATM   19  C17 UNL     1       0.088   0.644  80.974  1.00  0.00     0.011 A
ENDBRANCH  15  17
ENDBRANCH   1   9
BRANCH   3  20
HETATM   20  N2  UNL     1      -1.965   6.914  80.036  1.00  0.00    -0.369 N
ATOM     21  H2  UNL     1      -2.714   6.269  79.783  1.00  0.00     0.161 HD
BRANCH  20  22
HETATM   22  C7  UNL     1      -2.503   8.130  79.796  1.00  0.00     0.119 C
HETATM   23  C8  UNL     1      -4.030   8.274  79.894  1.00  0.00     0.038 C
HETATM   24  C9  UNL     1      -4.188   9.670  79.376  1.00  0.00     0.239 C
HETATM   25  C11 UNL     1      -3.789   8.548  81.364  1.00  0.00     0.043 C
HETATM   26  N3  UNL     1      -3.097  10.330  80.090  1.00  0.00    -0.069 N
HETATM   27  C10 UNL     1      -2.541   9.227  80.845  1.00  0.00     0.209 C
ATOM     28  H32 UNL     1      -2.434  10.834  79.502  1.00  0.00     0.277 HD
ATOM     29  H31 UNL     1      -3.367  11.145  80.642  1.00  0.00     0.277 HD
ENDBRANCH  20  22
ENDBRANCH   3  20
TORSDOF 4
ENDMDL