MODEL 4
REMARK VINA RESULT: -6.790578266      3.197      3.641
REMARK  4 active torsions:
REMARK  status: ('A' for Active; 'I' for Inactive)
REMARK       I    between atoms: C1_2  and  N1_3
REMARK    1  A    between atoms: C1_2  and  C9_18
REMARK    2  A    between atoms: N1_3  and  C2_5
REMARK    3  A    between atoms: C7_13  and  O2_14
REMARK    4  A    between atoms: C7_13  and  C8_16
ROOT
HETATM    1  C2  UNL     1      -0.251   4.313  82.568  1.00  0.00     0.294 C
HETATM    2  N2  UNL     1       1.125   3.900  82.748  1.00  0.00    -0.047 N
ATOM      3  H21 UNL     1       1.320   2.976  82.363  1.00  0.00     0.280 HD
ATOM      4  H22 UNL     1       1.355   3.687  83.719  1.00  0.00     0.280 HD
HETATM    5  C3  UNL     1       1.955   4.940  82.181  1.00  0.00     0.223 C
HETATM    6  C4  UNL     1       2.046   6.034  83.256  1.00  0.00     0.037 C
HETATM    7  C5  UNL     1       0.579   6.488  83.300  1.00  0.00     0.014 C
HETATM    8  C6  UNL     1      -0.130   5.739  82.192  1.00  0.00     0.073 C
HETATM    9  C7  UNL     1       1.054   5.669  81.201  1.00  0.00     0.102 C
ENDROOT
BRANCH   1  10
HETATM   10  N1  UNL     1      -1.055   4.168  83.779  1.00  0.00    -0.329 N
HETATM   11  C1  UNL     1      -1.166   2.930  84.454  1.00  0.00     0.248 C
HETATM   12  O1  UNL     1      -0.559   1.939  84.001  1.00  0.00    -0.268 OA
ATOM     13  H1  UNL     1      -1.549   4.981  84.147  1.00  0.00     0.164 HD
BRANCH  11  14
HETATM   14  C9  UNL     1      -1.963   2.742  85.672  1.00  0.00     0.006 C
HETATM   15  C10 UNL     1      -1.923   1.628  86.354  1.00  0.00    -0.014 C
HETATM   16  C11 UNL     1      -2.704   1.404  87.575  1.00  0.00     0.028 C
HETATM   17  C12 UNL     1      -3.184   2.689  88.173  1.00  0.00     0.004 C
HETATM   18  C13 UNL     1      -3.855   3.514  87.072  1.00  0.00     0.005 C
HETATM   19  C14 UNL     1      -2.809   3.887  86.069  1.00  0.00     0.044 C
ENDBRANCH  11  14
ENDBRANCH   1  10
BRANCH   9  20
HETATM   20  O2  UNL     1       1.558   6.965  81.004  1.00  0.00    -0.386 OA
ATOM     21  H2  UNL     1       1.327   7.253  80.129  1.00  0.00     0.210 HD
ENDBRANCH   9  20
BRANCH   9  22
HETATM   22  C8  UNL     1       0.769   4.961  79.947  1.00  0.00     0.125 C
HETATM   23 BR1  UNL     1       2.441   4.190  79.280  1.00  0.00    -0.093 Br
ENDBRANCH   9  22
TORSDOF 4
ENDMDL