MODEL 4
REMARK VINA RESULT: -6.377653012      1.828      1.994
REMARK  4 active torsions:
REMARK  status: ('A' for Active; 'I' for Inactive)
REMARK    1  A    between atoms: N1_1  and  C1_4
REMARK    2  A    between atoms: C2_7  and  C3_8
REMARK    3  A    between atoms: C4_9  and  C5_11
REMARK       I    between atoms: C5_11  and  N3_13
REMARK    4  A    between atoms: N3_13  and  C6_15
ROOT
HETATM    1  C3  UNL     1       0.706   3.242  81.803  1.00  0.00     0.054 C
HETATM    2  C4  UNL     1      -0.158   4.038  82.375  1.00  0.00     0.080 C
HETATM    3 BR1  UNL     1      -0.122   5.947  82.243  1.00  0.00    -0.045 Br
ENDROOT
BRANCH   2   4
HETATM    4  C5  UNL     1      -1.243   3.442  83.156  1.00  0.00     0.259 C
HETATM    5  O1  UNL     1      -2.312   3.051  82.590  1.00  0.00    -0.267 OA
HETATM    6  N3  UNL     1      -1.148   3.283  84.543  1.00  0.00    -0.352 N
ATOM      7  H3  UNL     1      -0.296   3.585  85.015  1.00  0.00     0.163 HD
BRANCH   6   8
HETATM    8  C6  UNL     1      -2.229   2.697  85.346  1.00  0.00     0.084 C
HETATM    9  C7  UNL     1      -1.659   1.623  86.201  1.00  0.00     0.025 C
HETATM   10  C8  UNL     1      -2.481   1.378  87.437  1.00  0.00     0.002 C
HETATM   11  C9  UNL     1      -3.877   1.861  87.213  1.00  0.00     0.000 C
HETATM   12  C10 UNL     1      -3.809   3.377  87.160  1.00  0.00     0.002 C
HETATM   13  C11 UNL     1      -2.890   3.831  86.049  1.00  0.00     0.025 C
ENDBRANCH   6   8
ENDBRANCH   2   4
BRANCH   1  14
HETATM   14  C2  UNL     1       1.840   3.734  80.969  1.00  0.00     0.042 A
HETATM   15  N2  UNL     1       1.723   3.885  79.678  1.00  0.00    -0.337 N
HETATM   16  C1  UNL     1       2.782   4.317  78.994  1.00  0.00     0.142 A
ATOM     17  H2  UNL     1       0.843   3.679  79.205  1.00  0.00     0.168 HD
HETATM   18  S1  UNL     1       3.975   4.516  80.190  1.00  0.00    -0.064 SA
HETATM   19  C12 UNL     1       3.039   4.025  81.548  1.00  0.00     0.082 A
BRANCH  16  20
HETATM   20  N1  UNL     1       2.890   4.540  77.702  1.00  0.00    -0.380 N
ATOM     21  H12 UNL     1       3.035   5.433  77.230  1.00  0.00     0.158 HD
ATOM     22  H11 UNL     1       2.848   3.868  76.934  1.00  0.00     0.158 HD
ENDBRANCH  16  20
ENDBRANCH   1  14
TORSDOF 4
ENDMDL