MODEL 3
REMARK VINA RESULT: -6.613364049      1.518      2.412
REMARK  5 active torsions:
REMARK  status: ('A' for Active; 'I' for Inactive)
REMARK    1  A    between atoms: C2_2  and  C3_3
REMARK    2  A    between atoms: C3_3  and  O1_4
REMARK    3  A    between atoms: C12_14  and  C13_15
REMARK    4  A    between atoms: C13_15  and  C14_16
REMARK    5  A    between atoms: C15_19  and  O4_20
ROOT
HETATM    1  C1  UNL     1       0.015   7.237  80.834  1.00  0.00     0.018 C
HETATM    2  C2  UNL     1      -0.022   5.696  80.888  1.00  0.00    -0.010 C
HETATM    3  C4  UNL     1       1.010   5.201  79.852  1.00  0.00     0.012 C
HETATM    4  C5  UNL     1       1.580   3.865  80.157  1.00  0.00     0.002 C
HETATM    5  C6  UNL     1       1.563   3.552  81.675  1.00  0.00     0.010 C
HETATM    6  C7  UNL     1       1.678   4.844  82.306  1.00  0.00    -0.027 A
HETATM    7  C8  UNL     1       2.940   5.470  81.952  1.00  0.00     0.016 C
HETATM    8  C9  UNL     1       1.049   5.742  83.248  1.00  0.00     0.009 A
HETATM    9  C10 UNL     1       1.101   5.384  84.646  1.00  0.00     0.007 C
HETATM   10  C11 UNL     1       0.012   4.573  85.236  1.00  0.00     0.010 C
HETATM   11  C12 UNL     1      -0.356   3.585  84.138  1.00  0.00     0.046 C
HETATM   12  C15 UNL     1      -0.785   4.361  82.969  1.00  0.00     0.148 C
HETATM   13 CL1  UNL     1      -1.909   5.555  83.763  1.00  0.00    -0.087 Cl
HETATM   14  C16 UNL     1       0.230   5.198  82.251  1.00  0.00     0.027 A
ENDROOT
BRANCH   2  15
HETATM   15  C3  UNL     1      -1.336   5.393  80.225  1.00  0.00     0.174 C
BRANCH  15  16
HETATM   16  O1  UNL     1      -2.387   6.207  80.468  1.00  0.00    -0.400 OA
ATOM     17  H1  UNL     1      -2.236   7.143  80.513  1.00  0.00     0.209 HD
ENDBRANCH  15  16
ENDBRANCH   2  15
BRANCH  12  18
HETATM   18  O4  UNL     1      -1.584   3.565  82.195  1.00  0.00    -0.374 OA
ATOM     19  H4  UNL     1      -1.526   2.675  82.521  1.00  0.00     0.212 HD
ENDBRANCH  12  18
BRANCH  11  20
HETATM   20  C13 UNL     1      -1.615   2.891  84.695  1.00  0.00     0.122 C
BRANCH  20  21
HETATM   21  C14 UNL     1      -1.177   1.594  85.265  1.00  0.00     0.173 C
HETATM   22  O2  UNL     1      -1.579   0.520  84.713  1.00  0.00    -0.648 OA
HETATM   23  O3  UNL     1      -0.332   1.517  86.394  1.00  0.00    -0.648 OA
ENDBRANCH  20  21
ENDBRANCH  11  20
TORSDOF 5
ENDMDL