MODEL 4
REMARK VINA RESULT: -5.665882229      2.434      3.814
REMARK  1 active torsions:
REMARK  status: ('A' for Active; 'I' for Inactive)
REMARK    1  A    between atoms: C7_9  and  O1_10
ROOT
HETATM    1  N1  UNL     1       1.046   6.227  85.019  1.00  0.00    -0.196 NA
HETATM    2  C1  UNL     1       0.083   5.697  85.426  1.00  0.00     0.075 C
HETATM    3  C2  UNL     1      -1.105   5.018  85.926  1.00  0.00     0.108 C
HETATM    4  C3  UNL     1      -2.236   5.067  84.884  1.00  0.00     0.036 C
HETATM    5  C4  UNL     1      -3.166   5.185  86.055  1.00  0.00     0.005 C
HETATM    6  C5  UNL     1      -3.505   3.932  86.747  1.00  0.00     0.125 C
HETATM    7  N2  UNL     1      -2.580   2.876  86.714  1.00  0.00    -0.188 NA
HETATM    8  C6  UNL     1      -1.470   3.146  87.578  1.00  0.00     0.192 C
HETATM    9  C7  UNL     1      -0.888   3.631  86.321  1.00  0.00     0.216 C
HETATM   10  O2  UNL     1      -1.792   2.762  85.667  1.00  0.00    -0.260 OA
HETATM   11  C8  UNL     1      -1.994   5.842  86.792  1.00  0.00     0.036 C
ENDROOT
BRANCH   9  12
HETATM   12  O1  UNL     1       0.433   3.210  86.138  1.00  0.00    -0.362 OA
ATOM     13  H1  UNL     1       1.057   3.710  86.651  1.00  0.00     0.213 HD
ENDBRANCH   9  12
TORSDOF 1
ENDMDL