MODEL 5
REMARK VINA RESULT: -5.004322528      1.727      2.697
REMARK  1 active torsions:
REMARK  status: ('A' for Active; 'I' for Inactive)
REMARK    1  A    between atoms: C7_10  and  O1_11
ROOT
HETATM    1  N1  UNL     1      -0.852   2.221  85.414  1.00  0.00    -0.172 NA
HETATM    2  C1  UNL     1      -0.526   2.592  84.366  1.00  0.00     0.181 C
HETATM    3  N2  UNL     1      -0.105   3.044  83.095  1.00  0.00    -0.292 N
HETATM    4  C2  UNL     1       0.248   1.989  82.207  1.00  0.00     0.143 C
HETATM    5  C3  UNL     1       0.538   2.405  80.811  1.00  0.00     0.036 C
HETATM    6  C4  UNL     1       1.686   3.381  80.802  1.00  0.00     0.039 C
HETATM    7  C5  UNL     1       1.164   4.765  81.006  1.00  0.00     0.275 C
HETATM    8  N3  UNL     1      -0.126   4.832  81.622  1.00  0.00     0.108 N
HETATM    9  C6  UNL     1      -1.164   4.139  80.941  1.00  0.00     0.306 C
HETATM   10  C7  UNL     1      -0.602   3.027  80.088  1.00  0.00     0.152 C
HETATM   11  C8  UNL     1      -0.136   4.491  83.007  1.00  0.00     0.407 C
ENDROOT
BRANCH  10  12
HETATM   12  O1  UNL     1      -1.561   2.146  79.644  1.00  0.00    -0.393 OA
ATOM     13  H1  UNL     1      -2.386   2.544  79.391  1.00  0.00     0.210 HD
ENDBRANCH  10  12
TORSDOF 1
ENDMDL