MODEL 1
REMARK VINA RESULT: -5.178429483      0.000      0.000
REMARK  2 active torsions:
REMARK  status: ('A' for Active; 'I' for Inactive)
REMARK    1  A    between atoms: C2_2  and  N2_7
REMARK    2  A    between atoms: N1_3  and  O1_5
ROOT
HETATM    1  N2  UNL     1      -0.448   5.006  84.220  1.00  0.00    -0.318 N
HETATM    2  C3  UNL     1      -0.465   3.948  83.224  1.00  0.00     0.402 C
HETATM    3  N3  UNL     1      -0.876   4.574  81.977  1.00  0.00     0.129 N
HETATM    4  C4  UNL     1      -1.067   3.541  80.982  1.00  0.00     0.314 C
HETATM    5  C5  UNL     1       0.156   5.508  81.608  1.00  0.00     0.545 C
HETATM    6  N4  UNL     1       0.208   6.591  82.529  1.00  0.00     0.129 N
HETATM    7  C6  UNL     1       1.374   7.436  82.258  1.00  0.00     0.314 C
HETATM    8  C7  UNL     1       0.340   6.163  83.910  1.00  0.00     0.402 C
ENDROOT
BRANCH   1   9
HETATM    9  C2  UNL     1      -1.155   4.934  85.434  1.00  0.00     0.098 C
HETATM   10  C1  UNL     1      -2.347   5.751  85.722  1.00  0.00     0.091 C
HETATM   11  N1  UNL     1      -0.731   4.107  86.337  1.00  0.00    -0.257 N
ATOM     12  H1  UNL     1      -1.235   4.046  87.221  1.00  0.00     0.195 HD
BRANCH  11  13
HETATM   13  O1  UNL     1       0.371   3.311  86.149  1.00  0.00    -0.288 OA
ATOM     14  H1  UNL     1       0.983   3.111  86.848  1.00  0.00     0.244 HD
ENDBRANCH  11  13
ENDBRANCH   1   9
TORSDOF 2
ENDMDL