MODEL 2
REMARK VINA RESULT: -5.423207482      4.630      6.182
REMARK  1 active torsions:
REMARK  status: ('A' for Active; 'I' for Inactive)
REMARK    1  A    between atoms: O1_1  and  C1_3
ROOT
HETATM    1  C1  UNL     1       0.891   2.707  80.732  1.00  0.00     0.202 C
HETATM    2  C2  UNL     1       1.589   4.030  80.558  1.00  0.00     0.291 C
HETATM    3  O2  UNL     1       0.914   4.888  79.709  1.00  0.00    -0.356 OA
HETATM    4  C3  UNL     1      -0.103   5.439  80.456  1.00  0.00     0.203 C
HETATM    5  C4  UNL     1       0.242   5.055  81.894  1.00  0.00     0.157 C
HETATM    6  O3  UNL     1       1.579   4.692  81.779  1.00  0.00    -0.351 OA
HETATM    7  C5  UNL     1      -0.658   3.933  82.280  1.00  0.00     0.072 C
HETATM    8  C6  UNL     1      -0.135   2.874  83.168  1.00  0.00     0.178 C
HETATM    9  O4  UNL     1      -0.716   1.917  82.310  1.00  0.00    -0.382 OA
HETATM   10  C7  UNL     1      -0.500   2.826  81.266  1.00  0.00     0.163 C
ENDROOT
BRANCH   1  11
HETATM   11  O1  UNL     1       0.922   2.050  79.515  1.00  0.00    -0.388 OA
ATOM     12  H1  UNL     1       1.066   1.127  79.688  1.00  0.00     0.210 HD
ENDBRANCH   1  11
TORSDOF 1
ENDMDL