MODEL 4
REMARK VINA RESULT: -5.342485960      0.969      1.151
REMARK  1 active torsions:
REMARK  status: ('A' for Active; 'I' for Inactive)
REMARK    1  A    between atoms: N1_1  and  N2_4
ROOT
HETATM    1  N2  UNL     1      -0.730   2.960  83.959  1.00  0.00    -0.110 NA
HETATM    2  C1  UNL     1       0.054   2.261  82.997  1.00  0.00     0.181 C
HETATM    3  C2  UNL     1       0.313   3.116  81.778  1.00  0.00     0.240 C
HETATM    4  C3  UNL     1       1.321   2.440  80.860  1.00  0.00     0.039 C
HETATM    5  C4  UNL     1       1.659   3.639  79.964  1.00  0.00     0.032 C
HETATM    6  C5  UNL     1       1.865   4.695  81.060  1.00  0.00     0.273 C
HETATM    7  N3  UNL     1       0.932   4.367  82.108  1.00  0.00     0.096 N
HETATM    8  C6  UNL     1      -0.096   5.385  82.251  1.00  0.00     0.301 C
HETATM    9  C7  UNL     1      -0.865   5.165  83.522  1.00  0.00     0.226 C
HETATM   10  O1  UNL     1      -0.239   4.164  84.279  1.00  0.00    -0.283 OA
ENDROOT
BRANCH   1  11
HETATM   11  N1  UNL     1      -0.817   2.170  85.123  1.00  0.00    -0.341 NA
ATOM     12  H12 UNL     1      -0.621   1.198  84.886  1.00  0.00     0.173 HD
ATOM     13  H11 UNL     1      -1.736   2.311  85.542  1.00  0.00     0.173 HD
ENDBRANCH   1  11
TORSDOF 1
ENDMDL