MODEL 4
REMARK VINA RESULT: -4.846007985      2.377      4.518
REMARK  0 active torsions:
REMARK  status: ('A' for Active; 'I' for Inactive)
ROOT
HETATM    1  C1  UNL     1      -3.246   3.694  87.212  1.00  0.00     0.034 C
HETATM    2  C2  UNL     1      -2.926   4.808  86.259  1.00  0.00     0.059 C
HETATM    3  C3  UNL     1      -1.449   5.015  86.501  1.00  0.00     0.325 C
HETATM    4  N1  UNL     1      -0.957   3.665  86.600  1.00  0.00     0.118 N
HETATM    5  C4  UNL     1      -1.943   2.958  87.363  1.00  0.00     0.276 C
HETATM    6  C5  UNL     1      -0.847   3.200  85.231  1.00  0.00     0.350 C
HETATM    7  C6  UNL     1      -0.429   4.470  84.532  1.00  0.00     0.105 A
HETATM    8  N2  UNL     1       0.119   4.878  83.443  1.00  0.00    -0.377 N
ATOM      9  H2  UNL     1       0.440   4.272  82.688  1.00  0.00     0.160 HD
HETATM   10  C7  UNL     1       0.216   6.329  83.442  1.00  0.00     0.141 A
HETATM   11  C8  UNL     1      -0.286   6.792  84.792  1.00  0.00     0.146 A
HETATM   12  N3  UNL     1      -0.763   5.561  85.380  1.00  0.00    -0.338 N
ENDROOT
TORSDOF 0
ENDMDL