MODEL 1
REMARK VINA RESULT: -5.528144470      0.000      0.000
REMARK  1 active torsions:
REMARK  status: ('A' for Active; 'I' for Inactive)
REMARK    1  A    between atoms: C3_3  and  O1_4
ROOT
HETATM    1  C1  UNL     1      -0.129   1.368  81.850  1.00  0.00     0.017 C
HETATM    2  C2  UNL     1      -0.308   2.508  81.560  1.00  0.00    -0.058 C
HETATM    3  C3  UNL     1      -0.514   3.921  81.221  1.00  0.00     0.206 C
HETATM    4  C4  UNL     1      -0.615   4.709  82.483  1.00  0.00     0.059 C
HETATM    5  C5  UNL     1       0.263   5.737  82.664  1.00  0.00     0.094 C
HETATM    6  N1  UNL     1       1.106   5.822  81.537  1.00  0.00    -0.340 N
HETATM    7  C6  UNL     1       2.510   5.688  81.514  1.00  0.00     0.184 C
HETATM    8  N2  UNL     1       2.809   4.637  80.748  1.00  0.00    -0.352 N
ATOM      9  H2  UNL     1       3.781   4.368  80.592  1.00  0.00     0.166 HD
HETATM   10  C7  UNL     1       1.702   3.870  80.128  1.00  0.00     0.157 C
HETATM   11  N3  UNL     1       0.382   4.312  80.206  1.00  0.00    -0.215 NA
HETATM   12  C8  UNL     1       0.439   5.840  80.246  1.00  0.00     0.231 C
ENDROOT
BRANCH   3  13
HETATM   13  O1  UNL     1      -1.814   4.030  80.653  1.00  0.00    -0.361 OA
ATOM     14  H1  UNL     1      -2.225   4.793  81.040  1.00  0.00     0.213 HD
ENDBRANCH   3  13
TORSDOF 1
ENDMDL