MODEL 2
REMARK VINA RESULT: -5.318264886      4.130      5.781
REMARK  1 active torsions:
REMARK  status: ('A' for Active; 'I' for Inactive)
REMARK    1  A    between atoms: O1_1  and  C1_3
ROOT
HETATM    1  C1  UNL     1      -0.807   3.655  84.487  1.00  0.00     0.205 C
HETATM    2  C2  UNL     1      -0.467   2.883  85.700  1.00  0.00     0.291 C
HETATM    3  O2  UNL     1      -1.506   2.346  86.393  1.00  0.00    -0.358 OA
HETATM    4  C3  UNL     1      -2.544   3.172  86.683  1.00  0.00     0.173 C
HETATM    5  C4  UNL     1      -2.192   4.330  87.593  1.00  0.00     0.061 C
HETATM    6  C5  UNL     1      -2.022   5.621  86.906  1.00  0.00     0.155 A
HETATM    7  O3  UNL     1      -2.612   5.612  85.581  1.00  0.00    -0.373 OA
HETATM    8  C6  UNL     1      -1.245   5.783  85.763  1.00  0.00     0.182 A
HETATM    9  C7  UNL     1      -0.264   4.779  85.305  1.00  0.00     0.189 C
HETATM   10  O4  UNL     1       0.133   3.971  86.336  1.00  0.00    -0.348 OA
ENDROOT
BRANCH   1  11
HETATM   11  O1  UNL     1       0.009   3.244  83.405  1.00  0.00    -0.388 OA
ATOM     12  H1  UNL     1      -0.438   2.581  82.893  1.00  0.00     0.210 HD
ENDBRANCH   1  11
TORSDOF 1
ENDMDL