MODEL 2
REMARK VINA RESULT: -5.273278296      3.008      4.145
REMARK  1 active torsions:
REMARK  status: ('A' for Active; 'I' for Inactive)
REMARK    1  A    between atoms: O1_1  and  C1_3
ROOT
HETATM    1  C1  UNL     1      -0.553   3.917  83.566  1.00  0.00     0.143 C
HETATM    2  C2  UNL     1      -0.443   5.327  84.128  1.00  0.00     0.203 C
HETATM    3  O2  UNL     1      -1.642   5.533  84.848  1.00  0.00    -0.350 OA
HETATM    4  C3  UNL     1      -1.623   4.755  85.926  1.00  0.00     0.203 C
HETATM    5  C4  UNL     1      -2.664   4.904  86.998  1.00  0.00     0.088 C
HETATM    6  C5  UNL     1      -2.058   3.856  87.953  1.00  0.00     0.127 C
HETATM    7  N1  UNL     1      -0.945   3.413  87.099  1.00  0.00    -0.183 NA
HETATM    8  O3  UNL     1      -0.462   4.630  86.679  1.00  0.00    -0.261 OA
HETATM    9  C6  UNL     1      -1.517   3.290  85.753  1.00  0.00     0.152 C
HETATM   10  C7  UNL     1      -0.414   2.987  84.778  1.00  0.00     0.061 C
ENDROOT
BRANCH   1  11
HETATM   11  O1  UNL     1       0.403   3.653  82.617  1.00  0.00    -0.393 OA
ATOM     12  H1  UNL     1       1.265   3.520  82.994  1.00  0.00     0.210 HD
ENDBRANCH   1  11
TORSDOF 1
ENDMDL