MODEL 2
REMARK VINA RESULT: -9.011414672      3.896      6.690
REMARK  6 active torsions:
REMARK  status: ('A' for Active; 'I' for Inactive)
REMARK    1  A    between atoms: C2_2  and  C11_21
REMARK    2  A    between atoms: N1_3  and  N2_5
REMARK    3  A    between atoms: N2_5  and  C3_7
REMARK    4  A    between atoms: C3_7  and  N3_9
REMARK    5  A    between atoms: N3_9  and  N4_11
REMARK    6  A    between atoms: N4_11  and  C4_13
ROOT
HETATM    1  C4  UNL     1     -24.769   8.869  10.481  1.00  0.00     0.048 A
HETATM    2  C5  UNL     1     -24.571   9.137   9.146  1.00  0.00     0.032 A
HETATM    3  C6  UNL     1     -24.263   8.131   8.233  1.00  0.00     0.025 A
HETATM    4  C7  UNL     1     -24.150   6.830   8.664  1.00  0.00     0.044 A
HETATM    5  C8  UNL     1     -23.830   5.797   7.716  1.00  0.00     0.099 C
HETATM    6  N5  UNL     1     -23.568   4.951   6.957  1.00  0.00    -0.191 NA
HETATM    7  C9  UNL     1     -24.349   6.571  10.000  1.00  0.00     0.025 A
HETATM    8  C10 UNL     1     -24.658   7.580  10.909  1.00  0.00     0.032 A
ENDROOT
BRANCH   1   9
HETATM    9  N4  UNL     1     -25.068   9.927  11.382  1.00  0.00    -0.299 N
ATOM     10  H4  UNL     1     -25.818   9.851  12.069  1.00  0.00     0.187 HD
BRANCH   9  11
HETATM   11  N3  UNL     1     -24.282  11.073  11.275  1.00  0.00    -0.275 N
ATOM     12  H3  UNL     1     -24.545  11.819  10.631  1.00  0.00     0.189 HD
BRANCH  11  13
HETATM   13  C3  UNL     1     -23.123  11.193  12.065  1.00  0.00     0.205 C
HETATM   14  S1  UNL     1     -22.775  12.600  12.791  1.00  0.00    -0.038 SA
BRANCH  13  15
HETATM   15  N2  UNL     1     -22.276  10.065  12.216  1.00  0.00    -0.275 N
ATOM     16  H2  UNL     1     -22.546   9.322  12.860  1.00  0.00     0.189 HD
BRANCH  15  17
HETATM   17  N1  UNL     1     -21.111   9.952  11.519  1.00  0.00    -0.302 N
HETATM   18  C2  UNL     1     -20.517   8.786  11.414  1.00  0.00     0.034 C
HETATM   19  C1  UNL     1     -21.164   7.654  12.062  1.00  0.00     0.070 C
ATOM     20  H1  UNL     1     -20.699  10.775  11.078  1.00  0.00     0.186 HD
BRANCH  18  21
HETATM   21  C11 UNL     1     -19.259   8.794  10.684  1.00  0.00     0.011 A
HETATM   22  C12 UNL     1     -18.132   9.407  11.229  1.00  0.00     0.039 A
HETATM   23  C13 UNL     1     -16.910   9.436  10.601  1.00  0.00     0.067 A
HETATM   24  C14 UNL     1     -15.755  10.066  11.165  1.00  0.00     0.101 C
HETATM   25  C15 UNL     1     -16.836   8.819   9.376  1.00  0.00     0.056 A
HETATM   26  N6  UNL     1     -14.817  10.554  11.619  1.00  0.00    -0.191 NA
HETATM   27 CL1  UNL     1     -15.293   8.831   8.550  1.00  0.00    -0.083 Cl
HETATM   28  C16 UNL     1     -17.919   8.209   8.810  1.00  0.00     0.050 A
HETATM   29  C17 UNL     1     -19.149   8.189   9.462  1.00  0.00     0.048 A
HETATM   30 CL2  UNL     1     -20.460   7.373   8.636  1.00  0.00    -0.083 Cl
ENDBRANCH  18  21
ENDBRANCH  15  17
ENDBRANCH  13  15
ENDBRANCH  11  13
ENDBRANCH   9  11
ENDBRANCH   1   9
TORSDOF 6
ENDMDL