MODEL 1
REMARK VINA RESULT: -8.575891527      0.000      0.000
REMARK  6 active torsions:
REMARK  status: ('A' for Active; 'I' for Inactive)
REMARK    1  A    between atoms: N1_1  and  C1_4
REMARK    2  A    between atoms: C2_7  and  N3_8
REMARK    3  A    between atoms: N4_11  and  C3_12
REMARK    4  A    between atoms: C8_18  and  C9_19
REMARK    5  A    between atoms: N5_23  and  C11_24
REMARK    6  A    between atoms: C11_24  and  C12_25
ROOT
HETATM    1  C1  UNL     1     -21.830   9.906  11.064  1.00  0.00     0.695 A
HETATM    2  N2  UNL     1     -23.138   9.932  10.781  1.00  0.00    -0.022 N
ATOM      3  H2  UNL     1     -23.612  10.825  10.646  1.00  0.00     0.203 HD
HETATM    4  C2  UNL     1     -23.829   8.781  10.673  1.00  0.00     0.699 A
HETATM    5  N4  UNL     1     -23.241   7.586  10.847  1.00  0.00    -0.119 N
HETATM    6  C10 UNL     1     -21.922   7.553  11.132  1.00  0.00     0.216 A
HETATM    7  S1  UNL     1     -21.249   6.078  11.335  1.00  0.00    -0.039 SA
HETATM    8  N5  UNL     1     -21.221   8.704  11.239  1.00  0.00    -0.152 N
ENDROOT
BRANCH   5   9
HETATM    9  C3  UNL     1     -24.008   6.396  10.739  1.00  0.00     0.088 A
HETATM   10  C4  UNL     1     -24.584   5.865  11.908  1.00  0.00     0.062 A
HETATM   11 CL1  UNL     1     -24.253   6.684  13.421  1.00  0.00    -0.082 Cl
HETATM   12  C5  UNL     1     -25.374   4.740  11.836  1.00  0.00     0.026 A
HETATM   13  C6  UNL     1     -25.630   4.098  10.643  1.00  0.00     0.002 A
HETATM   14  C7  UNL     1     -25.070   4.613   9.506  1.00  0.00     0.011 A
HETATM   15  C8  UNL     1     -24.250   5.774   9.558  1.00  0.00    -0.015 A
BRANCH  15  16
HETATM   16  C9  UNL     1     -23.649   6.209   8.293  1.00  0.00     0.155 C
HETATM   17 CL2  UNL     1     -24.452   5.404   6.895  1.00  0.00    -0.125 Cl
ENDBRANCH  15  16
ENDBRANCH   5   9
BRANCH   4  18
HETATM   18  N3  UNL     1     -25.095   8.859  10.350  1.00  0.00    -0.233 N
ATOM     19  H32 UNL     1     -25.376   8.945   9.373  1.00  0.00     0.174 HD
ATOM     20  H31 UNL     1     -25.778   8.864  11.106  1.00  0.00     0.174 HD
ENDBRANCH   4  18
BRANCH   8  21
HETATM   21  C11 UNL     1     -19.825   8.683  11.606  1.00  0.00     0.188 C
BRANCH  21  22
HETATM   22  C12 UNL     1     -18.845   8.625  10.536  1.00  0.00    -0.039 A
HETATM   23  C13 UNL     1     -17.547   9.087  10.797  1.00  0.00     0.009 A
HETATM   24  C14 UNL     1     -16.580   9.058   9.820  1.00  0.00     0.001 A
HETATM   25  C15 UNL     1     -16.849   8.575   8.558  1.00  0.00     0.000 A
HETATM   26  C16 UNL     1     -18.105   8.120   8.285  1.00  0.00     0.001 A
HETATM   27  C17 UNL     1     -19.080   8.155   9.286  1.00  0.00     0.009 A
ENDBRANCH  21  22
ENDBRANCH   8  21
BRANCH   1  28
HETATM   28  N1  UNL     1     -21.118  10.963  11.185  1.00  0.00    -0.234 N
ATOM     29  H12 UNL     1     -21.601  11.857  11.275  1.00  0.00     0.174 HD
ATOM     30  H11 UNL     1     -20.098  10.951  11.191  1.00  0.00     0.174 HD
ENDBRANCH   1  28
TORSDOF 6
ENDMDL