MODEL 4
REMARK VINA RESULT: -8.417435847      1.290      1.620
REMARK  7 active torsions:
REMARK  status: ('A' for Active; 'I' for Inactive)
REMARK    1  A    between atoms: C2_2  and  C4_5
REMARK    2  A    between atoms: C6_7  and  C7_8
REMARK    3  A    between atoms: C9_11  and  N1_12
REMARK    4  A    between atoms: N1_12  and  C10_14
REMARK    5  A    between atoms: C10_14  and  C11_15
REMARK    6  A    between atoms: C11_15  and  O1_16
REMARK    7  A    between atoms: C14_23  and  C16_25
ROOT
HETATM    1  C7  UNL     1     -25.297   4.636  11.866  1.00  0.00     0.051 A
HETATM    2  C8  UNL     1     -25.820   3.837  10.875  1.00  0.00     0.083 A
HETATM    3  S1  UNL     1     -26.388   2.485  11.724  1.00  0.00    -0.064 SA
HETATM    4  C9  UNL     1     -25.933   2.992  13.315  1.00  0.00     0.148 A
HETATM    5  N3  UNL     1     -25.373   4.171  13.090  1.00  0.00    -0.335 N
ATOM      6  H3  UNL     1     -25.000   4.716  13.867  1.00  0.00     0.168 HD
ENDROOT
BRANCH   4   7
HETATM    7  N1  UNL     1     -26.114   2.348  14.416  1.00  0.00    -0.347 N
ATOM      8  H1  UNL     1     -25.331   1.736  14.647  1.00  0.00     0.167 HD
BRANCH   7   9
HETATM    9  C10 UNL     1     -27.126   2.295  15.358  1.00  0.00     0.103 C
BRANCH   9  10
HETATM   10  C11 UNL     1     -26.518   2.448  16.731  1.00  0.00     0.125 C
HETATM   11  C12 UNL     1     -27.427   3.203  17.693  1.00  0.00     0.073 C
HETATM   12  C13 UNL     1     -26.798   2.860  19.028  1.00  0.00     0.236 C
HETATM   13  N2  UNL     1     -25.941   1.741  18.826  1.00  0.00    -0.062 N
HETATM   14  C14 UNL     1     -26.250   1.205  17.482  1.00  0.00     0.170 C
ATOM     15  H22 UNL     1     -24.953   1.961  18.953  1.00  0.00     0.278 HD
ATOM     16  H21 UNL     1     -26.013   1.041  19.564  1.00  0.00     0.278 HD
HETATM   17  C15 UNL     1     -27.486   0.341  17.665  1.00  0.00     0.051 C
BRANCH  10  18
HETATM   18  O1  UNL     1     -25.332   3.192  16.677  1.00  0.00    -0.382 OA
ATOM     19  H1  UNL     1     -24.633   2.692  16.271  1.00  0.00     0.211 HD
ENDBRANCH  10  18
BRANCH  14  20
HETATM   20  C16 UNL     1     -25.128   0.338  16.999  1.00  0.00     0.156 C
HETATM   21 CL1  UNL     1     -23.910   0.164  18.318  1.00  0.00    -0.128 Cl
ENDBRANCH  14  20
ENDBRANCH   9  10
ENDBRANCH   7   9
ENDBRANCH   4   7
BRANCH   1  22
HETATM   22  C6  UNL     1     -24.735   5.991  11.493  1.00  0.00    -0.001 A
HETATM   23  C5  UNL     1     -24.612   6.433  10.219  1.00  0.00     0.032 A
HETATM   24  C4  UNL     1     -24.133   7.692  10.029  1.00  0.00     0.022 A
HETATM   25  S2  UNL     1     -23.855   8.252  11.614  1.00  0.00    -0.102 SA
HETATM   26  C17 UNL     1     -24.353   6.878  12.476  1.00  0.00     0.064 A
BRANCH  24  27
HETATM   27  C2  UNL     1     -23.891   8.408   8.716  1.00  0.00     0.129 C
HETATM   28  C1  UNL     1     -23.289   7.365   7.792  1.00  0.00     0.057 C
HETATM   29  C3  UNL     1     -22.935   9.537   8.995  1.00  0.00     0.057 C
HETATM   30  F1  UNL     1     -25.100   8.863   8.267  1.00  0.00    -0.238 F
ENDBRANCH  24  27
ENDBRANCH   1  22
TORSDOF 7
ENDMDL