MODEL 5
REMARK VINA RESULT: -7.625717097      3.413      5.642
REMARK  8 active torsions:
REMARK  status: ('A' for Active; 'I' for Inactive)
REMARK    1  A    between atoms: N1_1  and  C1_5
REMARK    2  A    between atoms: C1_5  and  C2_6
REMARK    3  A    between atoms: C6_10  and  C7_11
REMARK    4  A    between atoms: C7_11  and  C8_12
REMARK    5  A    between atoms: C8_12  and  O1_13
REMARK    6  A    between atoms: N2_15  and  O2_17
REMARK    7  A    between atoms: C9_19  and  S1_20
REMARK    8  A    between atoms: S1_20  and  C10_21
ROOT
HETATM    1  C2  UNL     1     -23.909   6.030  12.175  1.00  0.00    -0.015 A
HETATM    2  C3  UNL     1     -24.925   5.112  12.270  1.00  0.00     0.010 A
HETATM    3  C4  UNL     1     -25.449   4.532  11.133  1.00  0.00     0.002 A
HETATM    4  C5  UNL     1     -24.915   4.907   9.918  1.00  0.00     0.015 A
HETATM    5  C6  UNL     1     -23.896   5.819   9.788  1.00  0.00     0.008 A
HETATM    6  C9  UNL     1     -23.375   6.406  10.954  1.00  0.00     0.026 A
ENDROOT
BRANCH   6   7
HETATM    7  S1  UNL     1     -22.005   7.493  10.750  1.00  0.00    -0.088 SA
BRANCH   7   8
HETATM    8  C10 UNL     1     -22.220   9.188  11.176  1.00  0.00     0.024 A
HETATM    9  C11 UNL     1     -23.542   9.676  11.342  1.00  0.00     0.020 A
HETATM   10  C12 UNL     1     -23.754  10.964  11.655  1.00  0.00     0.003 A
HETATM   11  C13 UNL     1     -22.724  11.875  11.832  1.00  0.00     0.025 A
HETATM   12  C14 UNL     1     -21.454  11.385  11.667  1.00  0.00     0.052 A
HETATM   13 CL1  UNL     1     -20.084  12.474  11.875  1.00  0.00    -0.083 Cl
HETATM   14  C15 UNL     1     -21.178  10.044  11.339  1.00  0.00     0.049 A
HETATM   15 BR1  UNL     1     -19.333   9.541  11.122  1.00  0.00    -0.048 Br
ENDBRANCH   7   8
ENDBRANCH   6   7
BRANCH   1  16
HETATM   16  C1  UNL     1     -23.442   6.661  13.407  1.00  0.00     0.269 C
BRANCH  16  17
HETATM   17  N1  UNL     1     -24.501   6.583  14.405  1.00  0.00    -0.075 N
ATOM     18  H13 UNL     1     -25.312   6.061  14.073  1.00  0.00     0.274 HD
ATOM     19  H12 UNL     1     -24.254   5.980  15.189  1.00  0.00     0.274 HD
ATOM     20  H11 UNL     1     -24.742   7.529  14.703  1.00  0.00     0.274 HD
ENDBRANCH  16  17
ENDBRANCH   1  16
BRANCH   5  21
HETATM   21  C7  UNL     1     -23.283   6.033   8.470  1.00  0.00     0.067 C
HETATM   22  N2  UNL     1     -22.065   5.784   8.207  1.00  0.00    -0.270 N
ATOM     23  H2  UNL     1     -21.513   5.415   8.981  1.00  0.00     0.194 HD
BRANCH  21  24
HETATM   24  C8  UNL     1     -24.139   6.574   7.390  1.00  0.00     0.224 C
BRANCH  24  25
HETATM   25  O1  UNL     1     -24.441   5.621   6.425  1.00  0.00    -0.395 OA
ATOM     26  H1  UNL     1     -23.725   5.014   6.277  1.00  0.00     0.209 HD
ENDBRANCH  24  25
ENDBRANCH  21  24
BRANCH  22  27
HETATM   27  O2  UNL     1     -21.407   5.943   7.046  1.00  0.00    -0.290 OA
ATOM     28  H2  UNL     1     -20.506   5.724   6.839  1.00  0.00     0.244 HD
ENDBRANCH  22  27
ENDBRANCH   5  21
TORSDOF 8
ENDMDL