MODEL 5
REMARK VINA RESULT: -8.640864401      4.133      8.026
REMARK  5 active torsions:
REMARK  status: ('A' for Active; 'I' for Inactive)
REMARK    1  A    between atoms: C2_2  and  C3_3
REMARK    2  A    between atoms: N1_14  and  C12_15
REMARK    3  A    between atoms: C12_15  and  C13_16
REMARK    4  A    between atoms: C13_16  and  O1_17
REMARK    5  A    between atoms: C13_16  and  C14_19
ROOT
HETATM    1  C1  UNL     1     -22.586   9.668   8.468  1.00  0.00     0.044 C
HETATM    2  C2  UNL     1     -22.575   9.289   9.964  1.00  0.00     0.060 C
HETATM    3  C9  UNL     1     -22.657   7.812  10.076  1.00  0.00     0.078 C
HETATM    4  C10 UNL     1     -23.535   7.300  11.192  1.00  0.00     0.126 C
HETATM    5  C11 UNL     1     -23.059   5.981  11.790  1.00  0.00     0.313 C
HETATM    6  N1  UNL     1     -24.230   5.297  11.506  1.00  0.00     0.097 N
HETATM    7  C18 UNL     1     -24.689   6.449  10.701  1.00  0.00     0.313 C
HETATM    8  O2  UNL     1     -23.841   8.248  12.179  1.00  0.00    -0.307 OA
HETATM    9  C19 UNL     1     -24.178   9.535  11.805  1.00  0.00     0.214 C
HETATM   10  N2  UNL     1     -24.926  10.289  12.557  1.00  0.00    -0.365 N
ATOM     11  H21 UNL     1     -25.174  11.239  12.280  1.00  0.00     0.159 HD
ATOM     12  H22 UNL     1     -25.292   9.958  13.449  1.00  0.00     0.159 HD
HETATM   13  N3  UNL     1     -23.669   9.996  10.563  1.00  0.00    -0.343 N
ATOM     14  H3  UNL     1     -24.073  10.814  10.107  1.00  0.00     0.164 HD
ENDROOT
BRANCH   2  15
HETATM   15  C3  UNL     1     -21.327   9.885  10.495  1.00  0.00    -0.029 A
HETATM   16  C4  UNL     1     -20.191   9.087  10.448  1.00  0.00     0.011 A
HETATM   17  C5  UNL     1     -18.973   9.504  10.911  1.00  0.00     0.026 A
HETATM   18  C6  UNL     1     -18.844  10.769  11.449  1.00  0.00     0.055 A
HETATM   19 CL1  UNL     1     -17.285  11.323  12.050  1.00  0.00    -0.083 Cl
HETATM   20  C7  UNL     1     -19.959  11.583  11.505  1.00  0.00     0.056 A
HETATM   21 CL2  UNL     1     -19.808  13.196  12.190  1.00  0.00    -0.083 Cl
HETATM   22  C8  UNL     1     -21.186  11.129  11.027  1.00  0.00     0.035 A
ENDBRANCH   2  15
BRANCH   6  23
HETATM   23  C12 UNL     1     -25.200   4.875  12.406  1.00  0.00     0.305 C
BRANCH  23  24
HETATM   24  C13 UNL     1     -25.969   3.647  12.217  1.00  0.00     0.153 C
BRANCH  24  25
HETATM   25  O1  UNL     1     -25.317   2.868  11.229  1.00  0.00    -0.393 OA
ATOM     26  H1  UNL     1     -25.185   1.996  11.581  1.00  0.00     0.210 HD
ENDBRANCH  24  25
BRANCH  24  27
HETATM   27  C14 UNL     1     -26.175   2.774  13.415  1.00  0.00    -0.024 C
HETATM   28  C15 UNL     1     -27.593   2.383  13.679  1.00  0.00     0.017 C
HETATM   29  C16 UNL     1     -25.270   1.560  13.442  1.00  0.00     0.017 C
HETATM   30  C17 UNL     1     -25.750   3.565  14.693  1.00  0.00     0.017 C
ENDBRANCH  24  27
ENDBRANCH  23  24
ENDBRANCH   6  23
TORSDOF 5
ENDMDL