MODEL 4
REMARK VINA RESULT: -7.401691475      1.883      3.722
REMARK  6 active torsions:
REMARK  status: ('A' for Active; 'I' for Inactive)
REMARK    1  A    between atoms: C2_2  and  N1_4
REMARK    2  A    between atoms: C5_6  and  C6_7
REMARK    3  A    between atoms: C6_7  and  C8_15
REMARK    4  A    between atoms: N2_8  and  N3_10
REMARK    5  A    between atoms: N3_10  and  C7_12
REMARK    6  A    between atoms: C14_24  and  N5_25
ROOT
HETATM    1  C6  UNL     1     -23.407   6.615  10.050  1.00  0.00     0.080 C
HETATM    2  N2  UNL     1     -22.436   6.178   9.325  1.00  0.00    -0.297 N
ATOM      3  H2  UNL     1     -22.442   5.166   9.196  1.00  0.00     0.187 HD
ENDROOT
BRANCH   1   4
HETATM    4  C5  UNL     1     -23.450   8.038  10.263  1.00  0.00     0.053 A
HETATM    5  C4  UNL     1     -22.388   8.890  10.471  1.00  0.00     0.115 A
HETATM    6  N1  UNL     1     -22.623  10.118  10.820  1.00  0.00    -0.332 N
HETATM    7  C14 UNL     1     -23.895  10.511  10.964  1.00  0.00     0.145 A
HETATM    8  S2  UNL     1     -24.768   9.117  10.598  1.00  0.00    -0.051 SA
BRANCH   6   9
HETATM    9  C2  UNL     1     -21.511  11.098  11.052  1.00  0.00     0.083 C
HETATM   10  C1  UNL     1     -21.742  11.869  12.301  1.00  0.00     0.032 C
HETATM   11  C3  UNL     1     -20.202  10.395  11.078  1.00  0.00     0.032 C
ENDBRANCH   6   9
BRANCH   7  12
HETATM   12  N5  UNL     1     -24.310  11.717  11.312  1.00  0.00    -0.379 N
ATOM     13  H52 UNL     1     -24.075  12.633  10.932  1.00  0.00     0.158 HD
ATOM     14  H51 UNL     1     -24.969  11.938  12.058  1.00  0.00     0.158 HD
ENDBRANCH   7  12
ENDBRANCH   1   4
BRANCH   1  15
HETATM   15  C8  UNL     1     -24.314   5.634  10.572  1.00  0.00     0.037 A
HETATM   16  C9  UNL     1     -24.399   5.509  11.993  1.00  0.00     0.048 A
HETATM   17 CL1  UNL     1     -23.482   6.617  12.983  1.00  0.00    -0.083 Cl
HETATM   18  C10 UNL     1     -25.154   4.582  12.637  1.00  0.00     0.025 A
HETATM   19  C11 UNL     1     -25.888   3.703  11.874  1.00  0.00     0.003 A
HETATM   20  C12 UNL     1     -25.850   3.768  10.498  1.00  0.00     0.025 A
HETATM   21  C13 UNL     1     -25.054   4.741   9.856  1.00  0.00     0.048 A
HETATM   22 CL2  UNL     1     -24.961   4.654   8.120  1.00  0.00    -0.083 Cl
ENDBRANCH   1  15
BRANCH   2  23
HETATM   23  N3  UNL     1     -21.406   6.801   8.700  1.00  0.00    -0.278 N
ATOM     24  H3  UNL     1     -21.591   7.290   7.824  1.00  0.00     0.189 HD
BRANCH  23  25
HETATM   25  C7  UNL     1     -20.089   6.801   9.207  1.00  0.00     0.199 C
HETATM   26  N4  UNL     1     -19.770   5.922  10.275  1.00  0.00    -0.068 NA
HETATM   27  S1  UNL     1     -18.961   7.781   8.577  1.00  0.00    -0.043 SA
ENDBRANCH  23  25
ENDBRANCH   2  23
TORSDOF 6
ENDMDL