MODEL 1
REMARK VINA RESULT: -7.461252945      0.000      0.000
REMARK  4 active torsions:
REMARK  status: ('A' for Active; 'I' for Inactive)
REMARK    1  A    between atoms: C4_6  and  C5_7
REMARK    2  A    between atoms: C11_19  and  S1_20
REMARK    3  A    between atoms: S1_20  and  C12_21
REMARK    4  A    between atoms: C15_26  and  N6_27
ROOT
HETATM    1  C5  UNL     1     -22.635   7.776   9.673  1.00  0.00     0.021 A
HETATM    2  C6  UNL     1     -22.531   9.069   9.182  1.00  0.00     0.127 A
HETATM    3 CL1  UNL     1     -21.156  10.162   9.204  1.00  0.00    -0.062 Cl
HETATM    4  N2  UNL     1     -23.731   9.371   8.607  1.00  0.00    -0.289 N
ATOM      5  H2  UNL     1     -23.947  10.261   8.158  1.00  0.00     0.188 HD
HETATM    6  N3  UNL     1     -24.561   8.378   8.706  1.00  0.00    -0.298 N
ATOM      7  H3  UNL     1     -25.519   8.355   8.355  1.00  0.00     0.187 HD
HETATM    8  C7  UNL     1     -23.926   7.388   9.353  1.00  0.00     0.071 A
HETATM    9  C8  UNL     1     -24.522   6.125   9.693  1.00  0.00     0.041 A
HETATM   10  C9  UNL     1     -24.677   5.882  11.064  1.00  0.00     0.092 A
HETATM   11  C10 UNL     1     -24.441   6.841  12.093  1.00  0.00     0.103 C
HETATM   12  N4  UNL     1     -24.272   7.622  12.954  1.00  0.00    -0.191 NA
HETATM   13  C11 UNL     1     -25.176   4.650  11.442  1.00  0.00     0.093 A
HETATM   14  N5  UNL     1     -25.514   3.706  10.539  1.00  0.00    -0.335 N
ATOM     15  H5  UNL     1     -25.882   2.805  10.843  1.00  0.00     0.168 HD
HETATM   16  C15 UNL     1     -25.354   3.980   9.215  1.00  0.00     0.121 A
HETATM   17  C16 UNL     1     -24.858   5.186   8.755  1.00  0.00     0.102 A
HETATM   18  C17 UNL     1     -24.685   5.475   7.347  1.00  0.00     0.104 C
HETATM   19  N7  UNL     1     -24.557   5.694   6.213  1.00  0.00    -0.191 NA
ENDROOT
BRANCH  13  20
HETATM   20  S1  UNL     1     -25.348   4.268  13.180  1.00  0.00    -0.107 SA
BRANCH  20  21
HETATM   21  C12 UNL     1     -25.996   2.651  13.538  1.00  0.00     0.045 C
HETATM   22  C13 UNL     1     -27.441   2.460  13.190  1.00  0.00     0.021 C
HETATM   23  C14 UNL     1     -25.805   2.381  15.021  1.00  0.00     0.021 C
ENDBRANCH  20  21
ENDBRANCH  13  20
BRANCH   1  24
HETATM   24  C4  UNL     1     -21.582   7.062  10.420  1.00  0.00     0.075 A
HETATM   25  C2  UNL     1     -20.178   7.136  10.245  1.00  0.00    -0.008 A
HETATM   26  N1  UNL     1     -19.066   7.747  10.461  1.00  0.00    -0.400 N
HETATM   27  C3  UNL     1     -20.852   5.968   9.597  1.00  0.00     0.068 A
HETATM   28  C1  UNL     1     -19.036   8.951  11.250  1.00  0.00     0.145 C
ATOM     29  H1  UNL     1     -18.199   7.376  10.071  1.00  0.00     0.158 HD
ENDBRANCH   1  24
BRANCH  16  30
HETATM   30  N6  UNL     1     -25.664   3.110   8.328  1.00  0.00    -0.384 N
ATOM     31  H62 UNL     1     -26.553   3.244   7.846  1.00  0.00     0.157 HD
ATOM     32  H61 UNL     1     -25.039   2.329   8.129  1.00  0.00     0.157 HD
ENDBRANCH  16  30
TORSDOF 4
ENDMDL