MODEL 5
REMARK VINA RESULT: -9.389816112      5.370      8.935
REMARK  4 active torsions:
REMARK  status: ('A' for Active; 'I' for Inactive)
REMARK       I    between atoms: C2_4  and  N2_5
REMARK       I    between atoms: C2_4  and  N4_9
REMARK    1  A    between atoms: N4_9  and  C4_11
REMARK    2  A    between atoms: C7_14  and  S1_15
REMARK    3  A    between atoms: S1_15  and  O3_18
REMARK    4  A    between atoms: O3_18  and  C8_19
ROOT
HETATM    1  C1  UNL     1     -22.302   6.906   8.577  1.00  0.00     0.165 C
HETATM    2  N1  UNL     1     -22.058   7.801   9.675  1.00  0.00    -0.230 N
ATOM      3  H1  UNL     1     -21.142   8.234   9.787  1.00  0.00     0.177 HD
HETATM    4  C2  UNL     1     -22.996   8.054  10.515  1.00  0.00     0.687 C
HETATM    5  N2  UNL     1     -22.693   8.948  11.579  1.00  0.00    -0.126 N
ATOM      6  H2  UNL     1     -23.260   8.929  12.427  1.00  0.00     0.197 HD
HETATM    7  C3  UNL     1     -21.631   9.851  11.485  1.00  0.00     0.196 C
HETATM    8  N3  UNL     1     -20.749  10.619  11.416  1.00  0.00    -0.171 NA
HETATM    9  N4  UNL     1     -24.248   7.448  10.339  1.00  0.00    -0.191 N
ATOM     10  H4  UNL     1     -24.883   7.780   9.613  1.00  0.00     0.184 HD
ENDROOT
BRANCH   9  11
HETATM   11  C4  UNL     1     -24.629   6.356  11.187  1.00  0.00     0.049 A
HETATM   12  C5  UNL     1     -24.514   6.406  12.560  1.00  0.00     0.031 A
HETATM   13  C6  UNL     1     -24.894   5.329  13.345  1.00  0.00     0.028 A
HETATM   14  C7  UNL     1     -25.399   4.169  12.796  1.00  0.00     0.086 A
HETATM   15  C14 UNL     1     -25.515   4.118  11.422  1.00  0.00     0.028 A
HETATM   16  C15 UNL     1     -25.135   5.197  10.641  1.00  0.00     0.031 A
BRANCH  14  17
HETATM   17  S1  UNL     1     -25.887   2.793  13.760  1.00  0.00     0.303 S
HETATM   18  O1  UNL     1     -24.831   1.728  13.662  1.00  0.00    -0.193 OA
HETATM   19  O2  UNL     1     -27.142   2.238  13.148  1.00  0.00    -0.193 OA
BRANCH  17  20
HETATM   20  O3  UNL     1     -26.133   3.224  15.386  1.00  0.00    -0.227 OA
BRANCH  20  21
HETATM   21  C8  UNL     1     -27.245   2.646  16.022  1.00  0.00     0.111 A
HETATM   22  C9  UNL     1     -28.502   3.216  15.921  1.00  0.00     0.041 A
HETATM   23  C10 UNL     1     -29.548   2.603  16.566  1.00  0.00     0.026 A
HETATM   24  C11 UNL     1     -29.398   1.440  17.312  1.00  0.00     0.035 A
HETATM   25 CL1  UNL     1     -30.783   0.697  18.120  1.00  0.00    -0.084 Cl
HETATM   26  C12 UNL     1     -28.146   0.879  17.409  1.00  0.00     0.050 A
HETATM   27  C13 UNL     1     -27.094   1.492  16.762  1.00  0.00     0.070 A
HETATM   28 CL2  UNL     1     -25.497   0.776  16.885  1.00  0.00    -0.081 Cl
ENDBRANCH  20  21
ENDBRANCH  17  20
ENDBRANCH  14  17
ENDBRANCH   9  11
TORSDOF 4
ENDMDL