MODEL 5
REMARK VINA RESULT: -8.070629060      1.197      1.436
REMARK  7 active torsions:
REMARK  status: ('A' for Active; 'I' for Inactive)
REMARK    1  A    between atoms: N1_2  and  C3_4
REMARK    2  A    between atoms: C5_8  and  C6_9
REMARK    3  A    between atoms: C10_13  and  C11_14
REMARK    4  A    between atoms: C11_14  and  C12_15
REMARK    5  A    between atoms: C12_15  and  N3_16
REMARK       I    between atoms: N3_16  and  C13_18
REMARK    6  A    between atoms: C13_18  and  C14_20
REMARK    7  A    between atoms: C16_25  and  N4_26
ROOT
HETATM    1  C3  UNL     1     -26.068   3.028  12.959  1.00  0.00     0.681 A
HETATM    2  N2  UNL     1     -25.398   4.174  12.799  1.00  0.00    -0.190 N
ATOM      3  H2  UNL     1     -25.092   4.682  13.629  1.00  0.00     0.184 HD
HETATM    4  C4  UNL     1     -25.105   4.696  11.556  1.00  0.00     0.078 A
HETATM    5  C5  UNL     1     -24.428   5.866  11.238  1.00  0.00    -0.009 A
HETATM    6  C10 UNL     1     -24.274   6.151   9.938  1.00  0.00    -0.006 A
HETATM    7  S1  UNL     1     -25.063   4.816   9.145  1.00  0.00    -0.088 SA
HETATM    8  C15 UNL     1     -25.549   3.958  10.521  1.00  0.00     0.077 A
HETATM    9  C16 UNL     1     -26.252   2.755  10.698  1.00  0.00     0.134 A
HETATM   10  N5  UNL     1     -26.523   2.273  11.915  1.00  0.00    -0.176 N
ATOM     11  H5  UNL     1     -27.033   1.401  12.055  1.00  0.00     0.186 HD
ENDROOT
BRANCH   6  12
HETATM   12  C11 UNL     1     -23.571   7.196   9.141  1.00  0.00     0.066 C
BRANCH  12  13
HETATM   13  C12 UNL     1     -22.087   6.917   9.246  1.00  0.00     0.128 C
BRANCH  13  14
HETATM   14  N3  UNL     1     -21.321   8.091   9.510  1.00  0.00    -0.358 N
HETATM   15  C13 UNL     1     -20.035   8.013  10.059  1.00  0.00     0.250 C
HETATM   16  O1  UNL     1     -19.420   6.982  10.378  1.00  0.00    -0.271 OA
ATOM     17  H3  UNL     1     -21.717   9.006   9.294  1.00  0.00     0.162 HD
BRANCH  15  18
HETATM   18  C14 UNL     1     -19.312   9.310  10.293  1.00  0.00     0.269 C
HETATM   19 CL1  UNL     1     -17.900   8.907  11.329  1.00  0.00    -0.098 Cl
HETATM   20 CL2  UNL     1     -20.365  10.493  11.040  1.00  0.00    -0.098 Cl
ENDBRANCH  15  18
ENDBRANCH  13  14
ENDBRANCH  12  13
ENDBRANCH   6  12
BRANCH   5  21
HETATM   21  C6  UNL     1     -23.990   6.715  12.412  1.00  0.00    -0.021 C
HETATM   22  C7  UNL     1     -24.525   6.419  13.719  1.00  0.00     0.019 C
HETATM   23  C8  UNL     1     -22.448   6.611  12.507  1.00  0.00     0.019 C
HETATM   24  C9  UNL     1     -24.270   8.162  11.984  1.00  0.00     0.019 C
ENDBRANCH   5  21
BRANCH   9  25
HETATM   25  N4  UNL     1     -26.638   2.129   9.656  1.00  0.00    -0.384 N
ATOM     26  H42 UNL     1     -26.422   2.492   8.727  1.00  0.00     0.157 HD
ATOM     27  H41 UNL     1     -27.159   1.261   9.785  1.00  0.00     0.157 HD
ENDBRANCH   9  25
BRANCH   1  28
HETATM   28  N1  UNL     1     -26.340   2.503  14.250  1.00  0.00    -0.226 N
HETATM   29  C1  UNL     1     -27.628   2.764  14.837  1.00  0.00     0.168 C
HETATM   30  C2  UNL     1     -25.377   1.729  14.971  1.00  0.00     0.168 C
ENDBRANCH   1  28
TORSDOF 7
ENDMDL