MODEL 5
REMARK VINA RESULT: -8.626259816      5.909     10.159
REMARK  6 active torsions:
REMARK  status: ('A' for Active; 'I' for Inactive)
REMARK    1  A    between atoms: S1_2  and  C2_3
REMARK    2  A    between atoms: C5_6  and  C6_7
REMARK    3  A    between atoms: N1_8  and  N2_10
REMARK    4  A    between atoms: N2_10  and  C7_12
REMARK    5  A    between atoms: C8_15  and  N4_16
REMARK    6  A    between atoms: N5_19  and  C9_20
ROOT
HETATM    1  C7  UNL     1     -24.138   6.117  10.985  1.00  0.00     0.726 A
HETATM    2  N3  UNL     1     -24.704   6.714   9.924  1.00  0.00    -0.018 N
ATOM      3  H3  UNL     1     -25.399   6.315   9.294  1.00  0.00     0.203 HD
HETATM    4  C8  UNL     1     -24.160   7.958   9.863  1.00  0.00     0.712 A
HETATM    5  N5  UNL     1     -23.279   8.128  10.861  1.00  0.00    -0.072 N
HETATM    6  N6  UNL     1     -23.291   6.976  11.533  1.00  0.00    -0.109 N
ATOM      7  H6  UNL     1     -22.724   6.782  12.359  1.00  0.00     0.207 HD
ENDROOT
BRANCH   1   8
HETATM    8  N2  UNL     1     -24.368   4.929  11.407  1.00  0.00    -0.131 N
ATOM      9  H2  UNL     1     -23.978   4.139  10.893  1.00  0.00     0.205 HD
BRANCH   8  10
HETATM   10  N1  UNL     1     -25.132   4.679  12.545  1.00  0.00    -0.297 N
HETATM   11  C6  UNL     1     -25.424   3.501  12.968  1.00  0.00     0.119 C
ATOM     12  H1  UNL     1     -25.481   5.479  13.074  1.00  0.00     0.186 HD
BRANCH  11  13
HETATM   13  C5  UNL     1     -26.224   3.356  14.161  1.00  0.00    -0.019 A
HETATM   14  C4  UNL     1     -27.435   2.707  14.086  1.00  0.00     0.014 A
HETATM   15  C3  UNL     1     -28.206   2.564  15.218  1.00  0.00     0.019 A
HETATM   16  C2  UNL     1     -27.790   3.058  16.422  1.00  0.00    -0.000 A
HETATM   17  C16 UNL     1     -26.569   3.708  16.481  1.00  0.00     0.019 A
HETATM   18  C15 UNL     1     -25.776   3.866  15.359  1.00  0.00     0.014 A
BRANCH  16  19
HETATM   19  S1  UNL     1     -28.834   2.838  17.842  1.00  0.00    -0.134 SA
HETATM   20  C1  UNL     1     -30.463   3.585  17.604  1.00  0.00     0.095 C
ENDBRANCH  16  19
ENDBRANCH  11  13
ENDBRANCH   8  10
ENDBRANCH   1   8
BRANCH   4  21
HETATM   21  N4  UNL     1     -24.460   8.847   8.958  1.00  0.00    -0.232 N
ATOM     22  H42 UNL     1     -24.852   8.648   8.037  1.00  0.00     0.174 HD
ATOM     23  H41 UNL     1     -24.333   9.852   9.075  1.00  0.00     0.174 HD
ENDBRANCH   4  21
BRANCH   5  24
HETATM   24  C9  UNL     1     -22.501   9.293  11.140  1.00  0.00     0.077 A
HETATM   25  C10 UNL     1     -21.180   9.401  10.757  1.00  0.00     0.034 A
HETATM   26  C11 UNL     1     -20.441  10.521  11.029  1.00  0.00     0.028 A
HETATM   27  C12 UNL     1     -20.994  11.592  11.699  1.00  0.00     0.055 A
HETATM   28 CL1  UNL     1     -20.018  13.005  12.027  1.00  0.00    -0.083 Cl
HETATM   29  C13 UNL     1     -22.303  11.499  12.085  1.00  0.00     0.058 A
HETATM   30 CL2  UNL     1     -23.002  12.872  12.941  1.00  0.00    -0.082 Cl
HETATM   31  C14 UNL     1     -23.049  10.371  11.813  1.00  0.00     0.057 A
ENDBRANCH   5  24
TORSDOF 6
ENDMDL