MODEL 1
REMARK VINA RESULT: -4.964440299      0.000      0.000
REMARK  13 active torsions:
REMARK  status: ('A' for Active; 'I' for Inactive)
REMARK    1  A    between atoms: C2_2  and  O2_4
REMARK    2  A    between atoms: O2_4  and  C3_5
REMARK    3  A    between atoms: C4_6  and  O3_7
REMARK    4  A    between atoms: O3_7  and  C5_8
REMARK    5  A    between atoms: C5_8  and  C6_10
REMARK    6  A    between atoms: C14_18  and  O5_19
REMARK    7  A    between atoms: C15_21  and  O6_22
REMARK    8  A    between atoms: O6_22  and  C16_23
REMARK    9  A    between atoms: C16_23  and  C17_25
REMARK   10  A    between atoms: C17_25  and  C18_26
REMARK   11  A    between atoms: C18_26  and  S1_27
REMARK   12  A    between atoms: C21_30  and  C22_31
REMARK   13  A    between atoms: C22_31  and  O8_32
ROOT
HETATM    1  C3  UNL     1      23.168 -17.133  -3.105  1.00  0.00     0.171 C
HETATM    2  C4  UNL     1      22.444 -17.357  -4.394  1.00  0.00     0.170 C
HETATM    3  C10 UNL     1      23.326 -16.720  -5.454  1.00  0.00    -0.011 C
HETATM    4  C11 UNL     1      23.084 -17.494  -6.714  1.00  0.00     0.018 C
HETATM    5  C12 UNL     1      22.628 -15.362  -5.767  1.00  0.00     0.018 C
HETATM    6  C13 UNL     1      24.661 -16.369  -5.027  1.00  0.00     0.045 C
HETATM    7  C14 UNL     1      25.435 -15.790  -6.163  1.00  0.00     0.158 C
HETATM    8  C15 UNL     1      26.394 -14.798  -5.578  1.00  0.00     0.192 C
HETATM    9  C21 UNL     1      26.806 -15.039  -4.187  1.00  0.00    -0.018 C
HETATM   10  C23 UNL     1      26.624 -16.425  -3.598  1.00  0.00    -0.025 C
HETATM   11  C24 UNL     1      27.963 -16.973  -3.347  1.00  0.00     0.088 C
HETATM   12  C25 UNL     1      28.571 -16.205  -2.150  1.00  0.00     0.051 C
HETATM   13  C26 UNL     1      28.981 -16.718  -4.470  1.00  0.00     0.051 C
HETATM   14  O9  UNL     1      28.139 -18.308  -2.975  1.00  0.00    -0.303 OA
HETATM   15  C27 UNL     1      27.804 -19.404  -3.760  1.00  0.00     0.283 C
HETATM   16  O10 UNL     1      28.352 -20.513  -3.571  1.00  0.00    -0.260 OA
HETATM   17  C28 UNL     1      26.818 -19.369  -4.840  1.00  0.00     0.079 C
HETATM   18  C29 UNL     1      25.859 -18.434  -4.941  1.00  0.00    -0.005 C
HETATM   19  C30 UNL     1      25.496 -17.259  -4.109  1.00  0.00     0.021 C
HETATM   20  C31 UNL     1      24.540 -17.774  -3.063  1.00  0.00    -0.003 C
HETATM   21  C32 UNL     1      24.301 -19.280  -3.156  1.00  0.00     0.019 C
HETATM   22  C33 UNL     1      24.913 -17.549  -1.622  1.00  0.00     0.019 C
ENDROOT
BRANCH   8  23
HETATM   23  O6  UNL     1      25.762 -13.525  -5.645  1.00  0.00    -0.309 OA
BRANCH  23  24
HETATM   24  C16 UNL     1      26.019 -12.631  -6.663  1.00  0.00     0.260 C
HETATM   25  O7  UNL     1      26.978 -12.850  -7.450  1.00  0.00    -0.265 OA
BRANCH  24  26
HETATM   26  C17 UNL     1      25.207 -11.411  -6.878  1.00  0.00     0.120 C
BRANCH  26  27
HETATM   27  C18 UNL     1      25.487 -10.388  -5.826  1.00  0.00     0.072 C
BRANCH  27  28
HETATM   28  S1  UNL     1      24.436  -8.991  -6.020  1.00  0.00    -0.227 SA
HETATM   29  C19 UNL     1      24.061  -8.238  -4.453  1.00  0.00     0.078 C
HETATM   30  C20 UNL     1      25.151  -7.787  -7.089  1.00  0.00     0.078 C
ENDBRANCH  27  28
ENDBRANCH  26  27
ENDBRANCH  24  26
ENDBRANCH  23  24
ENDBRANCH   8  23
BRANCH   7  31
HETATM   31  O5  UNL     1      26.098 -16.671  -6.972  1.00  0.00    -0.392 OA
ATOM     32  H5  UNL     1      27.012 -16.837  -6.769  1.00  0.00     0.210 HD
ENDBRANCH   7  31
BRANCH   9  33
HETATM   33  C22 UNL     1      26.436 -13.913  -3.211  1.00  0.00     0.201 C
BRANCH  33  34
HETATM   34  O8  UNL     1      27.305 -12.837  -3.305  1.00  0.00    -0.397 OA
ATOM     35  H8  UNL     1      28.029 -12.909  -2.695  1.00  0.00     0.209 HD
ENDBRANCH  33  34
ENDBRANCH   9  33
BRANCH   2  36
HETATM   36  O3  UNL     1      22.102 -18.671  -4.686  1.00  0.00    -0.312 OA
BRANCH  36  37
HETATM   37  C5  UNL     1      20.819 -19.197  -4.629  1.00  0.00     0.267 C
HETATM   38  O4  UNL     1      20.637 -20.105  -3.783  1.00  0.00    -0.264 OA
BRANCH  37  39
HETATM   39  C6  UNL     1      19.708 -18.765  -5.474  1.00  0.00     0.037 C
HETATM   40  C7  UNL     1      18.465 -19.515  -4.974  1.00  0.00     0.025 C
HETATM   41  C8  UNL     1      19.941 -19.024  -6.945  1.00  0.00     0.025 C
HETATM   42  C9  UNL     1      19.425 -17.301  -5.224  1.00  0.00     0.025 C
ENDBRANCH  37  39
ENDBRANCH  36  37
ENDBRANCH   2  36
BRANCH   1  43
HETATM   43  O2  UNL     1      22.371 -17.753  -2.103  1.00  0.00    -0.313 OA
BRANCH  43  44
HETATM   44  C2  UNL     1      21.106 -17.280  -1.746  1.00  0.00     0.255 C
HETATM   45  C1  UNL     1      20.026 -18.131  -1.221  1.00  0.00     0.126 C
HETATM   46  O1  UNL     1      20.888 -16.057  -1.885  1.00  0.00    -0.266 OA
ENDBRANCH  43  44
ENDBRANCH   1  43
TORSDOF 13
ENDMDL