MODEL 4
REMARK VINA RESULT: -4.173945985      4.596      8.566
REMARK  9 active torsions:
REMARK  status: ('A' for Active; 'I' for Inactive)
REMARK    1  A    between atoms: C2_2  and  C3_3
REMARK    2  A    between atoms: C3_3  and  C4_4
REMARK    3  A    between atoms: C12_14  and  O2_15
REMARK    4  A    between atoms: C18_23  and  N3_24
REMARK    5  A    between atoms: C21_29  and  S1_30
REMARK    6  A    between atoms: S1_30  and  N4_33
REMARK    7  A    between atoms: N4_33  and  C23_35
REMARK    8  A    between atoms: C23_35  and  C24_36
REMARK    9  A    between atoms: C24_36  and  N5_37
ROOT
HETATM    1  C3  UNL     1      23.101 -15.680  -6.345  1.00  0.00     0.091 C
HETATM    2  C6  UNL     1      23.202 -15.995  -4.880  1.00  0.00     0.236 C
HETATM    3  O1  UNL     1      22.236 -16.166  -4.041  1.00  0.00    -0.272 OA
HETATM    4  N1  UNL     1      24.582 -15.998  -4.941  1.00  0.00    -0.304 N
HETATM    5  C7  UNL     1      25.878 -15.937  -4.240  1.00  0.00     0.074 C
HETATM    6  C8  UNL     1      26.859 -16.729  -5.154  1.00  0.00     0.041 C
HETATM    7  C9  UNL     1      28.143 -17.096  -4.367  1.00  0.00    -0.013 C
HETATM    8  C10 UNL     1      28.981 -17.761  -5.471  1.00  0.00     0.010 C
HETATM    9  C11 UNL     1      27.761 -18.191  -3.424  1.00  0.00     0.036 C
HETATM   10  C12 UNL     1      26.236 -18.059  -3.088  1.00  0.00     0.123 C
HETATM   11  C14 UNL     1      25.902 -16.589  -2.990  1.00  0.00     0.068 C
HETATM   12  C15 UNL     1      26.217 -14.515  -4.528  1.00  0.00     0.049 A
HETATM   13  C16 UNL     1      26.139 -14.209  -5.858  1.00  0.00     0.156 A
HETATM   14  N2  UNL     1      26.606 -13.034  -6.287  1.00  0.00    -0.334 N
ATOM     15  H2  UNL     1      26.565 -12.806  -7.280  1.00  0.00     0.168 HD
HETATM   16  C17 UNL     1      27.136 -12.139  -5.412  1.00  0.00     0.081 A
HETATM   17  C18 UNL     1      27.551 -10.912  -5.869  1.00  0.00     0.130 A
HETATM   18  C19 UNL     1      28.018  -9.948  -4.996  1.00  0.00     0.040 A
HETATM   19  C20 UNL     1      28.059 -10.240  -3.676  1.00  0.00     0.028 A
HETATM   20  C21 UNL     1      27.655 -11.475  -3.092  1.00  0.00     0.089 A
HETATM   21  C27 UNL     1      27.210 -12.409  -4.032  1.00  0.00     0.043 A
HETATM   22  C28 UNL     1      26.736 -13.642  -3.596  1.00  0.00     0.053 A
HETATM   23  N6  UNL     1      26.819 -13.911  -2.429  1.00  0.00    -0.398 N
ATOM     24  H61 UNL     1      27.202 -13.265  -1.739  1.00  0.00     0.156 HD
ATOM     25  H62 UNL     1      26.471 -14.815  -2.110  1.00  0.00     0.156 HD
HETATM   26  O7  UNL     1      25.531 -15.094  -6.815  1.00  0.00    -0.302 OA
HETATM   27  C29 UNL     1      24.530 -15.998  -6.375  1.00  0.00     0.160 C
HETATM   28  C30 UNL     1      24.751 -17.290  -7.115  1.00  0.00     0.073 C
ENDROOT
BRANCH  20  29
HETATM   29  S1  UNL     1      27.528 -11.602  -1.422  1.00  0.00     0.244 S
HETATM   30  O5  UNL     1      28.282 -10.454  -0.664  1.00  0.00    -0.206 OA
HETATM   31  O6  UNL     1      28.619 -12.649  -1.024  1.00  0.00    -0.206 OA
BRANCH  29  32
HETATM   32  N4  UNL     1      26.261 -12.264  -0.513  1.00  0.00    -0.209 NA
HETATM   33  C22 UNL     1      26.730 -12.546   0.828  1.00  0.00     0.129 C
BRANCH  32  34
HETATM   34  C23 UNL     1      25.290 -11.158  -0.414  1.00  0.00     0.126 C
BRANCH  34  35
HETATM   35  C24 UNL     1      25.051 -10.694   1.002  1.00  0.00     0.131 C
BRANCH  35  36
HETATM   36  N5  UNL     1      24.902  -9.285   0.974  1.00  0.00    -0.420 N
HETATM   37  C25 UNL     1      26.023  -8.535   1.418  1.00  0.00     0.142 C
HETATM   38  C26 UNL     1      23.771  -8.646   0.520  1.00  0.00     0.142 C
ENDBRANCH  35  36
ENDBRANCH  34  35
ENDBRANCH  32  34
ENDBRANCH  29  32
ENDBRANCH  20  29
BRANCH  17  39
HETATM   39  N3  UNL     1      27.566 -10.544  -7.247  1.00  0.00    -0.113 N
HETATM   40  O3  UNL     1      28.665 -10.261  -7.816  1.00  0.00    -0.532 OA
HETATM   41  O4  UNL     1      26.461 -10.447  -8.023  1.00  0.00    -0.532 OA
ENDBRANCH  17  39
BRANCH  10  42
HETATM   42  O2  UNL     1      26.114 -18.661  -1.809  1.00  0.00    -0.391 OA
HETATM   43  C13 UNL     1      25.943 -17.771  -0.778  1.00  0.00     0.202 C
ENDBRANCH  10  42
BRANCH   1  44
HETATM   44  C2  UNL     1      22.208 -16.838  -6.892  1.00  0.00     0.020 C
HETATM   45  C1  UNL     1      20.821 -16.316  -7.132  1.00  0.00     0.006 C
ENDBRANCH   1  44
BRANCH   1  46
HETATM   46  C4  UNL     1      22.497 -14.440  -6.770  1.00  0.00     0.020 C
HETATM   47  C5  UNL     1      22.897 -13.699  -7.994  1.00  0.00     0.006 C
ENDBRANCH   1  46
TORSDOF 9
ENDMDL