MODEL 2
REMARK VINA RESULT: -8.283091401      2.897     10.080
REMARK  10 active torsions:
REMARK  status: ('A' for Active; 'I' for Inactive)
REMARK    1  A    between atoms: C2_2  and  O1_3
REMARK    2  A    between atoms: O1_3  and  C3_4
REMARK    3  A    between atoms: C3_4  and  C4_6
REMARK    4  A    between atoms: C6_11  and  C7_12
REMARK    5  A    between atoms: C7_12  and  N2_13
REMARK    6  A    between atoms: C7_12  and  C10_18
REMARK       I    between atoms: N2_13  and  C8_15
REMARK    7  A    between atoms: C15_25  and  C16_26
REMARK    8  A    between atoms: C16_26  and  C17_27
REMARK    9  A    between atoms: C18_28  and  C19_29
REMARK   10  A    between atoms: C19_29  and  C20_30
ROOT
HETATM    1  C4  UNL     1      20.694 -18.410  -3.716  1.00  0.00     0.203 C
HETATM    2  N1  UNL     1      21.426 -18.882  -4.843  1.00  0.00    -0.345 N
ATOM      3  H1  UNL     1      21.878 -19.787  -4.717  1.00  0.00     0.163 HD
HETATM    4  C5  UNL     1      21.617 -18.292  -6.097  1.00  0.00     0.229 C
HETATM    5  O3  UNL     1      22.707 -18.507  -6.737  1.00  0.00    -0.273 OA
HETATM    6  C6  UNL     1      20.636 -17.397  -6.801  1.00  0.00     0.135 C
HETATM    7  C13 UNL     1      19.684 -18.400  -7.483  1.00  0.00     0.128 C
HETATM    8  S1  UNL     1      17.996 -17.983  -7.304  1.00  0.00     0.017 S
HETATM    9  O5  UNL     1      17.632 -17.067  -5.975  1.00  0.00    -0.258 OA
HETATM   10  C14 UNL     1      17.007 -19.443  -7.465  1.00  0.00     0.125 C
HETATM   11  C15 UNL     1      16.429 -19.934  -6.177  1.00  0.00     0.073 C
HETATM   12  S2  UNL     1      17.192 -19.264  -4.702  1.00  0.00    -0.091 SA
HETATM   13  S3  UNL     1      18.875 -20.456  -4.174  1.00  0.00    -0.085 SA
HETATM   14  C27 UNL     1      19.881 -19.507  -3.014  1.00  0.00     0.041 C
HETATM   15  C28 UNL     1      20.839 -20.398  -2.254  1.00  0.00     0.030 C
HETATM   16  C29 UNL     1      18.932 -18.786  -2.073  1.00  0.00     0.030 C
ENDROOT
BRANCH  11  17
HETATM   17  C16 UNL     1      16.478 -21.454  -6.072  1.00  0.00     0.043 C
BRANCH  17  18
HETATM   18  C17 UNL     1      15.270 -21.915  -5.348  1.00  0.00    -0.029 C
HETATM   19  C18 UNL     1      15.178 -23.164  -4.921  1.00  0.00    -0.030 C
BRANCH  19  20
HETATM   20  C19 UNL     1      13.957 -23.624  -4.190  1.00  0.00     0.034 C
BRANCH  20  21
HETATM   21  C20 UNL     1      12.746 -23.209  -4.998  1.00  0.00     0.023 C
HETATM   22  C21 UNL     1      11.467 -23.879  -4.611  1.00  0.00     0.042 C
HETATM   23  C22 UNL     1      11.207 -24.167  -6.074  1.00  0.00     0.155 C
HETATM   24  O6  UNL     1      10.544 -23.171  -6.769  1.00  0.00    -0.348 OA
HETATM   25  C26 UNL     1      12.651 -23.859  -6.356  1.00  0.00     0.158 C
HETATM   26  C23 UNL     1      11.359 -22.841  -7.857  1.00  0.00     0.158 C
HETATM   27  C24 UNL     1      11.033 -21.483  -8.415  1.00  0.00     0.078 C
HETATM   28  C25 UNL     1      11.178 -23.882  -8.929  1.00  0.00     0.078 C
HETATM   29  O7  UNL     1      12.668 -22.921  -7.386  1.00  0.00    -0.348 OA
ENDBRANCH  20  21
ENDBRANCH  19  20
ENDBRANCH  17  18
ENDBRANCH  11  17
BRANCH   6  30
HETATM   30  C7  UNL     1      21.362 -16.669  -7.910  1.00  0.00     0.007 C
BRANCH  30  31
HETATM   31  N2  UNL     1      22.650 -16.145  -7.611  1.00  0.00    -0.334 N
HETATM   32  C8  UNL     1      23.198 -15.358  -6.624  1.00  0.00     0.217 C
HETATM   33  C9  UNL     1      24.678 -15.017  -6.627  1.00  0.00     0.117 C
HETATM   34  O4  UNL     1      22.585 -14.865  -5.675  1.00  0.00    -0.274 OA
ATOM     35  H2  UNL     1      23.343 -16.423  -8.305  1.00  0.00     0.168 HD
ENDBRANCH  30  31
BRANCH  30  36
HETATM   36  C10 UNL     1      20.525 -15.740  -8.716  1.00  0.00     0.024 C
HETATM   37  C11 UNL     1      21.458 -14.872  -9.553  1.00  0.00     0.016 C
HETATM   38  C12 UNL     1      19.617 -14.875  -7.872  1.00  0.00     0.016 C
ENDBRANCH  30  36
ENDBRANCH   6  30
BRANCH   1  39
HETATM   39  C3  UNL     1      21.650 -17.937  -2.648  1.00  0.00     0.283 C
HETATM   40  O2  UNL     1      21.358 -16.892  -2.021  1.00  0.00    -0.263 OA
BRANCH  39  41
HETATM   41  O1  UNL     1      22.812 -18.583  -2.331  1.00  0.00    -0.320 OA
BRANCH  41  42
HETATM   42  C2  UNL     1      24.094 -18.032  -2.309  1.00  0.00     0.174 C
HETATM   43  C1  UNL     1      24.494 -17.616  -3.706  1.00  0.00     0.034 C
ENDBRANCH  41  42
ENDBRANCH  39  41
ENDBRANCH   1  39
TORSDOF 10
ENDMDL