MODEL 3
REMARK VINA RESULT: -5.045423850      1.853      7.130
REMARK  12 active torsions:
REMARK  status: ('A' for Active; 'I' for Inactive)
REMARK    1  A    between atoms: C2_2  and  C3_3
REMARK    2  A    between atoms: C3_3  and  C4_4
REMARK    3  A    between atoms: C6_7  and  C7_8
REMARK    4  A    between atoms: C7_8  and  C8_9
REMARK    5  A    between atoms: C8_9  and  C9_11
REMARK    6  A    between atoms: C9_11  and  O4_13
REMARK    7  A    between atoms: C15_20  and  C16_21
REMARK    8  A    between atoms: C18_24  and  O7_25
REMARK    9  A    between atoms: C26_34  and  C27_35
REMARK   10  A    between atoms: C27_35  and  C28_37
REMARK   11  A    between atoms: C28_37  and  C29_38
REMARK   12  A    between atoms: C34_43  and  O9_44
ROOT
HETATM    1  C4  UNL     1      26.263 -12.789  -1.544  1.00  0.00     0.065 C
HETATM    2  C5  UNL     1      27.563 -13.350  -1.061  1.00  0.00     0.144 C
HETATM    3  O1  UNL     1      28.409 -13.142  -0.218  1.00  0.00    -0.296 OA
HETATM    4  C6  UNL     1      27.354 -14.371  -2.164  1.00  0.00     0.050 C
HETATM    5  C11 UNL     1      28.585 -14.863  -2.817  1.00  0.00    -0.008 C
HETATM    6  C12 UNL     1      28.981 -15.091  -4.015  1.00  0.00     0.003 C
HETATM    7  C13 UNL     1      28.560 -15.036  -5.391  1.00  0.00    -0.039 C
HETATM    8  C14 UNL     1      28.765 -13.625  -5.926  1.00  0.00     0.198 A
HETATM    9  O5  UNL     1      28.752 -12.706  -4.961  1.00  0.00    -0.353 OA
HETATM   10  C15 UNL     1      27.584 -12.694  -5.676  1.00  0.00     0.182 A
HETATM   11  C18 UNL     1      26.309 -13.410  -5.371  1.00  0.00     0.108 C
HETATM   12  C19 UNL     1      25.899 -13.533  -3.977  1.00  0.00     0.049 C
HETATM   13  C20 UNL     1      26.824 -13.203  -2.890  1.00  0.00     0.020 C
HETATM   14  C21 UNL     1      26.223 -14.623  -6.264  1.00  0.00     0.009 C
HETATM   15  C22 UNL     1      26.291 -14.031  -7.691  1.00  0.00     0.020 C
HETATM   16  C23 UNL     1      25.036 -15.484  -6.290  1.00  0.00     0.037 C
HETATM   17  C24 UNL     1      23.726 -15.116  -5.791  1.00  0.00     0.001 C
HETATM   18  C25 UNL     1      22.770 -14.637  -6.906  1.00  0.00     0.011 C
HETATM   19  C26 UNL     1      23.159 -16.439  -5.322  1.00  0.00     0.062 C
HETATM   20  C33 UNL     1      24.367 -17.214  -4.800  1.00  0.00     0.050 C
HETATM   21  C34 UNL     1      25.390 -16.884  -5.827  1.00  0.00     0.064 C
HETATM   22  C35 UNL     1      26.795 -16.847  -5.405  1.00  0.00     0.053 C
HETATM   23  C36 UNL     1      27.353 -15.592  -5.987  1.00  0.00    -0.004 C
HETATM   24  C37 UNL     1      27.734 -16.075  -7.426  1.00  0.00     0.021 C
ENDROOT
BRANCH   4  25
HETATM   25  C7  UNL     1      26.510 -15.429  -1.566  1.00  0.00     0.111 C
BRANCH  25  26
HETATM   26  C8  UNL     1      27.371 -16.593  -1.120  1.00  0.00     0.225 C
HETATM   27  O2  UNL     1      28.001 -16.455  -0.037  1.00  0.00    -0.287 OA
BRANCH  26  28
HETATM   28  C9  UNL     1      27.496 -17.816  -1.864  1.00  0.00     0.329 C
HETATM   29  O3  UNL     1      28.654 -18.273  -2.109  1.00  0.00    -0.256 OA
BRANCH  28  30
HETATM   30  O4  UNL     1      26.440 -18.553  -2.349  1.00  0.00    -0.320 OA
HETATM   31  C10 UNL     1      25.320 -18.915  -1.542  1.00  0.00     0.213 C
ENDBRANCH  28  30
ENDBRANCH  26  28
ENDBRANCH  25  26
ENDBRANCH   4  25
BRANCH   1  32
HETATM   32  C3  UNL     1      26.239 -11.253  -1.335  1.00  0.00     0.039 C
BRANCH  32  33
HETATM   33  C2  UNL     1      24.853 -10.750  -1.458  1.00  0.00    -0.036 C
HETATM   34  C1  UNL     1      24.602  -9.717  -2.240  1.00  0.00     0.007 C
ENDBRANCH  32  33
ENDBRANCH   1  32
BRANCH  11  35
HETATM   35  O7  UNL     1      25.296 -12.573  -5.957  1.00  0.00    -0.385 OA
ATOM     36  H7  UNL     1      25.074 -13.017  -6.767  1.00  0.00     0.210 HD
ENDBRANCH  11  35
BRANCH  10  37
HETATM   37  C16 UNL     1      27.553 -11.381  -6.370  1.00  0.00     0.163 C
HETATM   38  C17 UNL     1      27.776 -10.129  -5.604  1.00  0.00     0.094 C
HETATM   39  O6  UNL     1      27.353 -11.230  -7.564  1.00  0.00    -0.295 OA
ENDBRANCH  10  37
BRANCH  21  40
HETATM   40  O9  UNL     1      25.251 -17.870  -6.814  1.00  0.00    -0.389 OA
ATOM     41  H9  UNL     1      24.809 -18.658  -6.519  1.00  0.00     0.210 HD
ENDBRANCH  21  40
BRANCH  19  42
HETATM   42  C27 UNL     1      22.108 -16.327  -4.297  1.00  0.00     0.132 C
HETATM   43  O8  UNL     1      21.818 -15.263  -3.801  1.00  0.00    -0.298 OA
BRANCH  42  44
HETATM   44  C28 UNL     1      21.388 -17.543  -3.859  1.00  0.00     0.083 C
BRANCH  44  45
HETATM   45  C29 UNL     1      21.625 -17.793  -2.361  1.00  0.00    -0.003 A
HETATM   46  C30 UNL     1      20.513 -18.216  -1.499  1.00  0.00     0.010 A
HETATM   47  C31 UNL     1      21.627 -19.188  -1.890  1.00  0.00    -0.014 A
HETATM   48  C32 UNL     1      21.191 -20.314  -2.814  1.00  0.00     0.010 C
ENDBRANCH  44  45
ENDBRANCH  42  44
ENDBRANCH  19  42
TORSDOF 12
ENDMDL