MODEL 4
REMARK VINA RESULT: -7.505052023      2.815      6.603
REMARK  11 active torsions:
REMARK  status: ('A' for Active; 'I' for Inactive)
REMARK    1  A    between atoms: C2_2  and  C3_3
REMARK    2  A    between atoms: C11_18  and  N4_19
REMARK       I    between atoms: N4_19  and  C12_21
REMARK    3  A    between atoms: C12_21  and  C13_23
REMARK    4  A    between atoms: N5_26  and  C15_27
REMARK    5  A    between atoms: C15_27  and  C17_29
REMARK    6  A    between atoms: C17_29  and  C18_30
REMARK    7  A    between atoms: C18_30  and  C19_31
REMARK    8  A    between atoms: C19_31  and  C22_34
REMARK    9  A    between atoms: C22_34  and  N6_35
REMARK   10  A    between atoms: C24_41  and  C25_42
REMARK   11  A    between atoms: N7_45  and  C28_46
ROOT
HETATM    1  C13 UNL     1      22.249 -16.433  -4.741  1.00  0.00     0.262 C
HETATM    2  C14 UNL     1      22.978 -17.279  -3.806  1.00  0.00     0.249 C
HETATM    3  O4  UNL     1      24.015 -16.677  -3.344  1.00  0.00    -0.271 OA
HETATM    4  N5  UNL     1      22.835 -18.582  -3.280  1.00  0.00    -0.281 N
HETATM    5  C23 UNL     1      21.628 -19.342  -3.326  1.00  0.00     0.250 C
HETATM    6  O5  UNL     1      21.807 -20.545  -3.008  1.00  0.00    -0.271 OA
HETATM    7  C24 UNL     1      20.232 -18.897  -3.694  1.00  0.00     0.184 C
HETATM    8  N7  UNL     1      20.219 -18.176  -4.929  1.00  0.00    -0.329 N
HETATM    9  C32 UNL     1      20.913 -16.927  -5.142  1.00  0.00     0.243 C
HETATM   10  O6  UNL     1      20.255 -16.081  -5.804  1.00  0.00    -0.272 OA
ENDROOT
BRANCH   1  11
HETATM   11  C12 UNL     1      23.107 -16.165  -5.940  1.00  0.00     0.241 C
HETATM   12  N4  UNL     1      23.886 -14.989  -6.075  1.00  0.00    -0.342 N
ATOM     13  H4  UNL     1      23.877 -14.291  -5.330  1.00  0.00     0.163 HD
HETATM   14  O3  UNL     1      23.137 -17.010  -6.862  1.00  0.00    -0.272 OA
BRANCH  12  15
HETATM   15  C11 UNL     1      24.705 -14.763  -7.275  1.00  0.00     0.222 C
HETATM   16  C3  UNL     1      24.280 -13.498  -7.900  1.00  0.00     0.020 C
HETATM   17  N1  UNL     1      24.495 -12.261  -7.614  1.00  0.00    -0.339 N
HETATM   18  C4  UNL     1      25.198 -11.515  -6.625  1.00  0.00     0.180 A
ATOM     19  H1  UNL     1      24.033 -11.643  -8.282  1.00  0.00     0.167 HD
HETATM   20  O1  UNL     1      24.819 -10.239  -6.491  1.00  0.00    -0.219 OA
HETATM   21  C7  UNL     1      26.201 -11.730  -5.721  1.00  0.00     0.037 A
HETATM   22  N2  UNL     1      25.524  -9.668  -5.571  1.00  0.00    -0.263 N
HETATM   23  C5  UNL     1      26.413 -10.550  -5.045  1.00  0.00     0.041 A
ATOM     24  H2  UNL     1      25.427  -8.695  -5.281  1.00  0.00     0.194 HD
HETATM   25  C6  UNL     1      27.407 -10.281  -3.962  1.00  0.00     0.071 C
HETATM   26  C8  UNL     1      27.046 -12.857  -5.335  1.00  0.00     0.170 C
HETATM   27  N3  UNL     1      27.049 -13.973  -6.212  1.00  0.00    -0.350 N
HETATM   28  C9  UNL     1      28.401 -14.378  -6.536  1.00  0.00     0.153 C
HETATM   29  C10 UNL     1      26.112 -14.810  -6.867  1.00  0.00     0.248 C
HETATM   30  O2  UNL     1      26.629 -15.933  -7.202  1.00  0.00    -0.271 OA
BRANCH  16  31
HETATM   31  C2  UNL     1      23.417 -13.682  -9.125  1.00  0.00     0.051 C
HETATM   32  C1  UNL     1      22.041 -14.165  -8.734  1.00  0.00     0.011 C
ENDBRANCH  16  31
ENDBRANCH  12  15
ENDBRANCH   1  11
BRANCH   4  33
HETATM   33  C15 UNL     1      23.986 -19.192  -2.650  1.00  0.00     0.092 C
HETATM   34  C16 UNL     1      24.276 -18.455  -1.379  1.00  0.00     0.033 C
BRANCH  33  35
HETATM   35  C17 UNL     1      25.186 -19.310  -3.562  1.00  0.00     0.026 C
BRANCH  35  36
HETATM   36  C18 UNL     1      26.425 -19.158  -2.711  1.00  0.00     0.012 C
BRANCH  36  37
HETATM   37  C19 UNL     1      27.376 -20.304  -2.802  1.00  0.00    -0.024 C
HETATM   38  C20 UNL     1      28.731 -19.907  -3.340  1.00  0.00     0.016 C
HETATM   39  C21 UNL     1      26.780 -21.300  -3.787  1.00  0.00     0.016 C
BRANCH  37  40
HETATM   40  C22 UNL     1      27.585 -21.028  -1.506  1.00  0.00     0.238 C
BRANCH  40  41
HETATM   41  N6  UNL     1      27.557 -22.439  -1.734  1.00  0.00    -0.079 N
ATOM     42  H63 UNL     1      28.482 -22.860  -1.646  1.00  0.00     0.274 HD
ATOM     43  H62 UNL     1      27.094 -22.941  -0.976  1.00  0.00     0.274 HD
ATOM     44  H61 UNL     1      27.132 -22.631  -2.640  1.00  0.00     0.274 HD
ENDBRANCH  40  41
ENDBRANCH  37  40
ENDBRANCH  36  37
ENDBRANCH  35  36
ENDBRANCH  33  35
ENDBRANCH   4  33
BRANCH   8  45
HETATM   45  C28 UNL     1      19.510 -18.642  -6.088  1.00  0.00     0.025 C
HETATM   46  C29 UNL     1      18.384 -17.665  -6.487  1.00  0.00     0.037 C
HETATM   47  C30 UNL     1      18.860 -19.983  -5.948  1.00  0.00     0.037 C
HETATM   48  C31 UNL     1      20.373 -18.689  -7.347  1.00  0.00     0.037 C
ENDBRANCH   8  45
BRANCH   7  49
HETATM   49  C25 UNL     1      19.518 -18.325  -2.538  1.00  0.00     0.010 C
HETATM   50  C26 UNL     1      18.101 -18.720  -2.308  1.00  0.00     0.012 C
HETATM   51  C27 UNL     1      20.229 -18.468  -1.209  1.00  0.00     0.012 C
ENDBRANCH   7  49
TORSDOF 11
ENDMDL