MODEL 4
REMARK VINA RESULT: -5.695759117      2.796      7.461
REMARK  11 active torsions:
REMARK  status: ('A' for Active; 'I' for Inactive)
REMARK       I    between atoms: C2_2  and  N1_4
REMARK    1  A    between atoms: N1_4  and  C3_6
REMARK    2  A    between atoms: C4_7  and  O2_8
REMARK       I    between atoms: N2_11  and  C6_13
REMARK    3  A    between atoms: C6_13  and  C7_15
REMARK    4  A    between atoms: C17_25  and  O4_26
REMARK    5  A    between atoms: O4_26  and  C18_27
REMARK    6  A    between atoms: C18_27  and  C19_29
REMARK    7  A    between atoms: C19_29  and  N3_30
REMARK    8  A    between atoms: C27_39  and  O7_40
REMARK    9  A    between atoms: O7_40  and  C28_41
REMARK   10  A    between atoms: C28_41  and  C29_43
REMARK   11  A    between atoms: C31_45  and  C32_46
ROOT
HETATM    1  C3  UNL     1      25.179 -17.291  -4.700  1.00  0.00     0.176 C
HETATM    2  C4  UNL     1      24.362 -17.264  -5.926  1.00  0.00     0.196 C
HETATM    3  C5  UNL     1      24.367 -15.999  -6.704  1.00  0.00     0.055 C
HETATM    4  N2  UNL     1      23.443 -15.813  -7.520  1.00  0.00    -0.328 N
ATOM      5  H2  UNL     1      23.554 -14.913  -7.985  1.00  0.00     0.168 HD
HETATM    6  C6  UNL     1      22.328 -16.451  -7.977  1.00  0.00     0.229 C
HETATM    7  O3  UNL     1      22.112 -17.674  -8.170  1.00  0.00    -0.272 OA
HETATM    8  C11 UNL     1      25.364 -14.890  -6.679  1.00  0.00     0.102 C
HETATM    9  C12 UNL     1      25.828 -14.764  -8.112  1.00  0.00     0.053 C
HETATM   10  C13 UNL     1      24.791 -13.571  -6.291  1.00  0.00     0.071 C
HETATM   11  C14 UNL     1      25.632 -13.034  -5.191  1.00  0.00    -0.018 C
HETATM   12  C15 UNL     1      26.895 -13.008  -4.776  1.00  0.00    -0.058 C
HETATM   13  C16 UNL     1      26.938 -12.217  -3.507  1.00  0.00     0.046 C
HETATM   14  C17 UNL     1      28.200 -13.482  -5.145  1.00  0.00     0.166 C
HETATM   15  C22 UNL     1      28.498 -14.922  -5.425  1.00  0.00     0.049 C
HETATM   16  C23 UNL     1      28.979 -15.430  -4.067  1.00  0.00     0.016 C
HETATM   17  C24 UNL     1      27.497 -15.693  -6.139  1.00  0.00     0.160 C
HETATM   18  O6  UNL     1      26.296 -15.161  -5.766  1.00  0.00    -0.364 OA
HETATM   19  C25 UNL     1      27.344 -17.156  -6.043  1.00  0.00    -0.023 C
HETATM   20  C26 UNL     1      28.543 -17.950  -6.460  1.00  0.00     0.049 C
HETATM   21  C27 UNL     1      26.614 -17.695  -4.843  1.00  0.00     0.087 C
ENDROOT
BRANCH  21  22
HETATM   22  O7  UNL     1      26.850 -19.030  -4.534  1.00  0.00    -0.277 OA
BRANCH  22  23
HETATM   23  C28 UNL     1      27.496 -19.575  -3.487  1.00  0.00     0.293 C
HETATM   24  O8  UNL     1      28.236 -18.827  -2.848  1.00  0.00    -0.259 OA
BRANCH  23  25
HETATM   25  C29 UNL     1      27.307 -20.991  -3.154  1.00  0.00     0.010 C
HETATM   26  C30 UNL     1      27.552 -21.447  -1.769  1.00  0.00     0.054 C
HETATM   27  C31 UNL     1      26.923 -21.848  -4.082  1.00  0.00    -0.010 C
BRANCH  27  28
HETATM   28  C32 UNL     1      26.749 -23.271  -3.711  1.00  0.00     0.001 C
HETATM   29  C33 UNL     1      28.114 -23.937  -3.614  1.00  0.00     0.013 C
HETATM   30  C34 UNL     1      25.891 -23.937  -4.760  1.00  0.00     0.013 C
ENDBRANCH  27  28
ENDBRANCH  23  25
ENDBRANCH  22  23
ENDBRANCH  21  22
BRANCH   1  31
HETATM   31  N1  UNL     1      24.464 -18.155  -3.741  1.00  0.00    -0.348 N
HETATM   32  C2  UNL     1      24.508 -17.952  -2.351  1.00  0.00     0.214 C
HETATM   33  C1  UNL     1      23.823 -18.777  -1.338  1.00  0.00     0.117 C
HETATM   34  O1  UNL     1      25.211 -16.961  -1.955  1.00  0.00    -0.274 OA
ATOM     35  H1  UNL     1      23.914 -18.934  -4.103  1.00  0.00     0.163 HD
ENDBRANCH   1  31
BRANCH   2  36
HETATM   36  O2  UNL     1      23.008 -17.384  -5.493  1.00  0.00    -0.387 OA
ATOM     37  H2  UNL     1      22.483 -16.962  -6.164  1.00  0.00     0.210 HD
ENDBRANCH   2  36
BRANCH  14  38
HETATM   38  O4  UNL     1      28.683 -12.730  -6.273  1.00  0.00    -0.310 OA
BRANCH  38  39
HETATM   39  C18 UNL     1      28.160 -11.483  -6.598  1.00  0.00     0.288 C
HETATM   40  O5  UNL     1      27.304 -11.413  -7.502  1.00  0.00    -0.263 OA
BRANCH  39  41
HETATM   41  C19 UNL     1      28.613 -10.235  -5.880  1.00  0.00     0.381 C
BRANCH  41  42
HETATM   42  N3  UNL     1      27.758  -9.121  -6.221  1.00  0.00     0.089 N
HETATM   43  C20 UNL     1      28.602  -8.195  -6.984  1.00  0.00     0.310 C
HETATM   44  C21 UNL     1      27.347  -8.480  -4.967  1.00  0.00     0.310 C
ENDBRANCH  41  42
ENDBRANCH  39  41
ENDBRANCH  38  39
ENDBRANCH  14  38
BRANCH   6  45
HETATM   45  C7  UNL     1      21.139 -15.562  -8.324  1.00  0.00     0.030 C
HETATM   46  C8  UNL     1      20.038 -16.480  -8.865  1.00  0.00     0.025 C
HETATM   47  C9  UNL     1      21.519 -14.541  -9.336  1.00  0.00     0.025 C
HETATM   48  C10 UNL     1      20.562 -14.903  -7.109  1.00  0.00     0.025 C
ENDBRANCH   6  45
TORSDOF 11
ENDMDL