MODEL 5
REMARK VINA RESULT: -10.343679681      0.992      1.432
REMARK  13 active torsions:
REMARK  status: ('A' for Active; 'I' for Inactive)
REMARK    1  A    between atoms: N1_4  and  C4_5
REMARK    2  A    between atoms: C4_5  and  O1_6
REMARK    3  A    between atoms: C4_5  and  N2_8
REMARK    4  A    between atoms: C7_11  and  C8_12
REMARK    5  A    between atoms: C7_11  and  C10_15
REMARK    6  A    between atoms: C10_15  and  N4_16
REMARK       I    between atoms: N4_16  and  C11_18
REMARK       I    between atoms: C11_18  and  N5_20
REMARK    7  A    between atoms: N5_20  and  C12_22
REMARK    8  A    between atoms: C15_25  and  C16_26
REMARK    9  A    between atoms: C16_26  and  C17_27
REMARK   10  A    between atoms: C17_27  and  C18_28
REMARK   11  A    between atoms: C18_28  and  C19_29
REMARK   12  A    between atoms: C19_29  and  C20_30
REMARK   13  A    between atoms: N9_37  and  C21_38
ROOT
HETATM    1  C8  UNL     1      18.842 -20.933  -3.077  1.00  0.00     0.136 C
HETATM    2  C9  UNL     1      18.083 -21.627  -4.110  1.00  0.00     0.060 C
HETATM    3  N3  UNL     1      17.462 -22.186  -4.918  1.00  0.00    -0.197 NA
ENDROOT
BRANCH   1   4
HETATM    4  C7  UNL     1      19.221 -19.520  -3.502  1.00  0.00    -0.002 C
HETATM    5  C6  UNL     1      19.225 -19.580  -5.041  1.00  0.00     0.033 C
HETATM    6  C5  UNL     1      19.837 -18.297  -5.530  1.00  0.00     0.127 C
HETATM    7  N2  UNL     1      21.281 -18.379  -5.215  1.00  0.00    -0.347 N
HETATM    8  C28 UNL     1      21.642 -19.042  -4.024  1.00  0.00     0.136 C
HETATM    9  C25 UNL     1      20.521 -19.042  -2.967  1.00  0.00    -0.021 C
HETATM   10  C26 UNL     1      21.075 -19.916  -1.851  1.00  0.00     0.017 C
HETATM   11  C27 UNL     1      20.453 -17.628  -2.421  1.00  0.00     0.017 C
BRANCH   7  12
HETATM   12  C4  UNL     1      22.184 -17.778  -6.099  1.00  0.00     0.217 C
BRANCH  12  13
HETATM   13  N1  UNL     1      23.007 -16.657  -5.955  1.00  0.00    -0.342 N
HETATM   14  C3  UNL     1      22.480 -15.401  -6.528  1.00  0.00     0.158 C
HETATM   15  C2  UNL     1      23.584 -14.799  -7.357  1.00  0.00     0.136 C
HETATM   16  C1  UNL     1      23.037 -13.527  -7.976  1.00  0.00     0.041 C
HETATM   17  O3  UNL     1      24.565 -14.405  -6.439  1.00  0.00    -0.373 OA
HETATM   18  C30 UNL     1      25.190 -15.471  -5.858  1.00  0.00     0.070 C
HETATM   19  C29 UNL     1      24.293 -16.563  -5.341  1.00  0.00     0.163 C
HETATM   20  C31 UNL     1      26.252 -16.068  -6.777  1.00  0.00     0.047 C
HETATM   21  C32 UNL     1      25.977 -14.922  -4.659  1.00  0.00     0.047 C
ENDBRANCH  12  13
BRANCH  12  22
HETATM   22  O1  UNL     1      22.265 -18.371  -7.258  1.00  0.00    -0.333 OA
ATOM     23  H1  UNL     1      21.995 -17.841  -7.998  1.00  0.00     0.220 HD
ENDBRANCH  12  22
ENDBRANCH   7  12
BRANCH   4  24
HETATM   24  C10 UNL     1      18.031 -18.656  -3.155  1.00  0.00     0.135 C
BRANCH  24  25
HETATM   25  N4  UNL     1      16.784 -19.113  -3.706  1.00  0.00    -0.342 N
HETATM   26  C11 UNL     1      16.088 -18.267  -4.587  1.00  0.00     0.321 C
HETATM   27  O2  UNL     1      16.538 -17.123  -4.900  1.00  0.00    -0.247 OA
HETATM   28  N5  UNL     1      14.851 -18.619  -5.180  1.00  0.00    -0.294 N
ATOM     29  H5  UNL     1      13.976 -18.381  -4.711  1.00  0.00     0.172 HD
ATOM     30  H4  UNL     1      16.411 -20.031  -3.464  1.00  0.00     0.164 HD
BRANCH  28  31
HETATM   31  C12 UNL     1      14.825 -19.239  -6.312  1.00  0.00     0.123 A
HETATM   32  C13 UNL     1      16.000 -19.767  -6.856  1.00  0.00     0.052 A
HETATM   33  C14 UNL     1      15.929 -20.420  -8.063  1.00  0.00     0.030 A
HETATM   34  C15 UNL     1      14.712 -20.524  -8.678  1.00  0.00     0.026 A
HETATM   35  N10 UNL     1      13.593 -19.989  -8.104  1.00  0.00    -0.303 N
HETATM   36  N11 UNL     1      13.650 -19.365  -6.952  1.00  0.00    -0.285 N
ATOM     37  H10 UNL     1      12.696 -20.078  -8.580  1.00  0.00     0.186 HD
ATOM     38  H11 UNL     1      12.801 -18.976  -6.541  1.00  0.00     0.188 HD
BRANCH  34  39
HETATM   39  C16 UNL     1      14.500 -21.197  -9.974  1.00  0.00     0.058 C
BRANCH  39  40
HETATM   40  C17 UNL     1      13.403 -22.198  -9.877  1.00  0.00     0.006 C
BRANCH  40  41
HETATM   41  C18 UNL     1      13.545 -23.255  -8.845  1.00  0.00     0.008 C
BRANCH  41  42
HETATM   42  C19 UNL     1      12.570 -23.056  -7.672  1.00  0.00     0.080 C
BRANCH  42  43
HETATM   43  C20 UNL     1      13.314 -23.300  -6.434  1.00  0.00     0.116 A
HETATM   44  N6  UNL     1      14.594 -22.940  -6.129  1.00  0.00    -0.272 N
HETATM   45  N7  UNL     1      14.815 -23.381  -4.910  1.00  0.00    -0.227 N
ATOM     46  H6  UNL     1      15.247 -22.431  -6.725  1.00  0.00     0.190 HD
HETATM   47  N8  UNL     1      13.757 -23.985  -4.454  1.00  0.00    -0.224 N
ATOM     48  H7  UNL     1      15.689 -23.266  -4.397  1.00  0.00     0.210 HD
HETATM   49  N9  UNL     1      12.797 -23.957  -5.372  1.00  0.00    -0.255 N
ATOM     50  H8  UNL     1      13.676 -24.415  -3.532  1.00  0.00     0.210 HD
BRANCH  49  51
HETATM   51  C21 UNL     1      11.515 -24.529  -5.199  1.00  0.00     0.046 C
HETATM   52  C22 UNL     1      11.303 -24.821  -3.726  1.00  0.00     0.040 C
HETATM   53  C23 UNL     1      11.396 -25.889  -5.906  1.00  0.00     0.040 C
HETATM   54  C24 UNL     1      10.350 -23.715  -5.651  1.00  0.00     0.040 C
ENDBRANCH  49  51
ENDBRANCH  42  43
ENDBRANCH  41  42
ENDBRANCH  40  41
ENDBRANCH  39  40
ENDBRANCH  34  39
ENDBRANCH  28  31
ENDBRANCH  24  25
ENDBRANCH   4  24
ENDBRANCH   1   4
TORSDOF 13
ENDMDL