MODEL 1
REMARK VINA RESULT: -8.579325752      0.000      0.000
REMARK  10 active torsions:
REMARK  status: ('A' for Active; 'I' for Inactive)
REMARK    1  A    between atoms: C2_2  and  C3_3
REMARK    2  A    between atoms: C3_3  and  O1_5
REMARK    3  A    between atoms: C3_3  and  C33_42
REMARK    4  A    between atoms: O1_5  and  C5_6
REMARK    5  A    between atoms: C12_14  and  O3_15
REMARK    6  A    between atoms: C16_20  and  C17_21
REMARK    7  A    between atoms: C17_21  and  O4_22
REMARK    8  A    between atoms: O4_22  and  C18_23
REMARK    9  A    between atoms: C22_28  and  N1_29
REMARK   10  A    between atoms: C25_32  and  O6_33
ROOT
HETATM    1  C5  UNL     1      18.697 -20.029  -4.712  1.00  0.00     0.155 C
HETATM    2  C6  UNL     1      18.345 -21.352  -5.363  1.00  0.00     0.003 C
HETATM    3  C7  UNL     1      17.187 -21.744  -5.861  1.00  0.00    -0.009 C
HETATM    4  C8  UNL     1      15.783 -21.415  -6.129  1.00  0.00     0.053 C
HETATM    5  C9  UNL     1      14.992 -20.923  -4.990  1.00  0.00     0.145 C
HETATM    6  O2  UNL     1      15.063 -21.255  -3.828  1.00  0.00    -0.296 OA
HETATM    7  C10 UNL     1      13.995 -19.874  -5.437  1.00  0.00     0.060 C
HETATM    8  C11 UNL     1      14.393 -18.475  -4.942  1.00  0.00     0.048 C
HETATM    9  C12 UNL     1      15.520 -17.903  -5.828  1.00  0.00     0.149 C
HETATM   10  C13 UNL     1      16.405 -19.083  -6.233  1.00  0.00    -0.039 C
HETATM   11  C14 UNL     1      17.777 -18.733  -6.666  1.00  0.00    -0.069 C
HETATM   12  C15 UNL     1      17.869 -17.470  -7.461  1.00  0.00     0.044 C
HETATM   13  C16 UNL     1      18.894 -18.946  -5.678  1.00  0.00     0.071 C
HETATM   14  C26 UNL     1      15.688 -20.119  -6.982  1.00  0.00     0.005 C
HETATM   15  C27 UNL     1      14.199 -19.768  -6.911  1.00  0.00     0.028 C
HETATM   16  C28 UNL     1      15.940 -20.604  -8.298  1.00  0.00     0.020 C
HETATM   17  C29 UNL     1      15.395 -22.048  -8.342  1.00  0.00    -0.012 C
HETATM   18  C30 UNL     1      14.241 -22.195  -9.304  1.00  0.00     0.010 C
HETATM   19  C31 UNL     1      15.134 -22.483  -6.959  1.00  0.00     0.006 C
HETATM   20  C32 UNL     1      13.808 -22.945  -6.553  1.00  0.00     0.012 C
ENDROOT
BRANCH  13  21
HETATM   21  C17 UNL     1      19.402 -17.740  -4.995  1.00  0.00     0.183 C
BRANCH  21  22
HETATM   22  O4  UNL     1      20.781 -17.570  -4.959  1.00  0.00    -0.358 OA
BRANCH  22  23
HETATM   23  C18 UNL     1      21.246 -16.942  -6.112  1.00  0.00     0.290 C
HETATM   24  O5  UNL     1      20.444 -15.829  -6.323  1.00  0.00    -0.354 OA
HETATM   25  C19 UNL     1      20.813 -15.043  -7.387  1.00  0.00     0.122 C
HETATM   26  C20 UNL     1      20.920 -15.745  -8.704  1.00  0.00     0.040 C
HETATM   27  C21 UNL     1      22.165 -14.439  -7.071  1.00  0.00     0.070 C
HETATM   28  C22 UNL     1      23.149 -15.616  -7.047  1.00  0.00     0.257 C
HETATM   29  C25 UNL     1      22.701 -16.609  -5.996  1.00  0.00     0.206 C
BRANCH  28  30
HETATM   30  N1  UNL     1      24.435 -15.065  -6.668  1.00  0.00     0.087 N
HETATM   31  C23 UNL     1      25.534 -15.882  -7.140  1.00  0.00     0.310 C
HETATM   32  C24 UNL     1      24.585 -13.694  -7.083  1.00  0.00     0.310 C
ENDBRANCH  28  30
BRANCH  29  33
HETATM   33  O6  UNL     1      23.070 -16.082  -4.778  1.00  0.00    -0.388 OA
ATOM     34  H6  UNL     1      24.002 -15.927  -4.682  1.00  0.00     0.210 HD
ENDBRANCH  29  33
ENDBRANCH  22  23
ENDBRANCH  21  22
ENDBRANCH  13  21
BRANCH   1  35
HETATM   35  O1  UNL     1      19.910 -20.317  -4.074  1.00  0.00    -0.364 OA
BRANCH  35  36
HETATM   36  C3  UNL     1      20.002 -20.256  -2.754  1.00  0.00     0.102 C
HETATM   37  C4  UNL     1      18.823 -19.478  -2.107  1.00  0.00     0.053 C
BRANCH  36  38
HETATM   38  C2  UNL     1      19.727 -21.670  -2.263  1.00  0.00     0.003 C
HETATM   39  C1  UNL     1      18.936 -21.801  -1.218  1.00  0.00     0.010 C
ENDBRANCH  36  38
BRANCH  36  40
HETATM   40  C33 UNL     1      21.207 -19.841  -2.011  1.00  0.00     0.170 C
HETATM   41  C34 UNL     1      21.202 -18.392  -1.536  1.00  0.00     0.045 C
HETATM   42  C35 UNL     1      22.526 -17.791  -1.861  1.00  0.00     0.114 C
HETATM   43  C36 UNL     1      23.185 -18.837  -2.661  1.00  0.00     0.259 C
HETATM   44  O7  UNL     1      24.404 -18.890  -2.923  1.00  0.00    -0.265 OA
HETATM   45  O8  UNL     1      22.226 -19.715  -3.052  1.00  0.00    -0.313 OA
ENDBRANCH  36  40
ENDBRANCH  35  36
ENDBRANCH   1  35
BRANCH   9  46
HETATM   46  O3  UNL     1      16.194 -17.075  -4.895  1.00  0.00    -0.391 OA
ATOM     47  H3  UNL     1      15.757 -16.245  -5.046  1.00  0.00     0.210 HD
ENDBRANCH   9  46
TORSDOF 10
ENDMDL