MODEL 2
REMARK VINA RESULT: -6.539230766     12.644     18.015
REMARK  12 active torsions:
REMARK  status: ('A' for Active; 'I' for Inactive)
REMARK    1  A    between atoms: O1_2  and  C2_3
REMARK    2  A    between atoms: C2_3  and  C3_5
REMARK    3  A    between atoms: C9_11  and  C10_12
REMARK    4  A    between atoms: C10_12  and  O3_13
REMARK    5  A    between atoms: C10_12  and  C11_15
REMARK    6  A    between atoms: C11_15  and  C12_16
REMARK    7  A    between atoms: C11_15  and  C20_26
REMARK    8  A    between atoms: C12_16  and  C13_17
REMARK    9  A    between atoms: C15_19  and  C16_20
REMARK   10  A    between atoms: C24_31  and  C25_32
REMARK       I    between atoms: C25_32  and  N1_34
REMARK   11  A    between atoms: C26_36  and  C28_38
REMARK   12  A    between atoms: C29_41  and  O10_42
ROOT
HETATM    1  C3  UNL     1      26.544 -19.428  -2.781  1.00  0.00     0.106 C
HETATM    2  C4  UNL     1      26.819 -20.014  -1.358  1.00  0.00     0.034 C
HETATM    3  C5  UNL     1      27.406 -18.242  -2.896  1.00  0.00     0.038 C
HETATM    4  C6  UNL     1      26.775 -16.925  -2.929  1.00  0.00    -0.026 C
HETATM    5  C7  UNL     1      27.387 -16.042  -1.814  1.00  0.00     0.016 C
HETATM    6  C8  UNL     1      25.342 -16.745  -2.819  1.00  0.00     0.031 C
HETATM    7  C9  UNL     1      24.422 -17.885  -3.410  1.00  0.00     0.063 C
HETATM    8  C23 UNL     1      25.140 -19.052  -2.879  1.00  0.00     0.157 C
HETATM    9  O6  UNL     1      24.452 -19.923  -2.398  1.00  0.00    -0.296 OA
HETATM   10  C24 UNL     1      24.261 -17.664  -4.825  1.00  0.00     0.129 C
HETATM   11  C29 UNL     1      25.414 -17.124  -5.680  1.00  0.00     0.163 C
HETATM   12  C30 UNL     1      26.154 -16.045  -5.008  1.00  0.00    -0.034 A
HETATM   13  C31 UNL     1      26.712 -14.915  -4.462  1.00  0.00    -0.064 A
HETATM   14  C32 UNL     1      26.681 -13.434  -4.303  1.00  0.00     0.045 C
HETATM   15  C33 UNL     1      27.292 -16.212  -4.192  1.00  0.00     0.013 A
HETATM   16  C34 UNL     1      28.687 -16.456  -4.657  1.00  0.00     0.026 C
ENDROOT
BRANCH   7  17
HETATM   17  C10 UNL     1      23.156 -17.862  -2.648  1.00  0.00     0.139 C
BRANCH  17  18
HETATM   18  O3  UNL     1      23.408 -17.455  -1.424  1.00  0.00    -0.394 OA
ATOM     19  H3  UNL     1      22.859 -17.942  -0.822  1.00  0.00     0.210 HD
ENDBRANCH  17  18
BRANCH  17  20
HETATM   20  C11 UNL     1      21.710 -18.137  -2.777  1.00  0.00     0.021 C
BRANCH  20  21
HETATM   21  C12 UNL     1      21.612 -19.088  -3.942  1.00  0.00     0.040 C
BRANCH  21  22
HETATM   22  C13 UNL     1      20.614 -19.140  -4.961  1.00  0.00     0.133 C
HETATM   23  C14 UNL     1      19.324 -19.845  -4.681  1.00  0.00     0.047 C
HETATM   24  C15 UNL     1      18.318 -19.167  -5.576  1.00  0.00     0.091 C
HETATM   25  C19 UNL     1      18.940 -17.861  -5.837  1.00  0.00     0.263 C
HETATM   26  O4  UNL     1      18.465 -17.023  -6.653  1.00  0.00    -0.265 OA
HETATM   27  O5  UNL     1      20.076 -17.757  -5.053  1.00  0.00    -0.316 OA
BRANCH  24  28
HETATM   28  C16 UNL     1      17.944 -19.924  -6.797  1.00  0.00    -0.009 C
HETATM   29  C17 UNL     1      16.590 -19.599  -7.367  1.00  0.00     0.010 C
HETATM   30  C18 UNL     1      17.957 -21.397  -6.449  1.00  0.00     0.010 C
ENDBRANCH  24  28
ENDBRANCH  21  22
ENDBRANCH  20  21
BRANCH  20  31
HETATM   31  C20 UNL     1      20.955 -18.546  -1.564  1.00  0.00    -0.016 C
HETATM   32  C21 UNL     1      20.788 -20.054  -1.338  1.00  0.00     0.010 C
HETATM   33  C22 UNL     1      19.448 -18.176  -1.685  1.00  0.00     0.010 C
ENDBRANCH  20  31
ENDBRANCH  17  20
ENDBRANCH   7  17
BRANCH  10  34
HETATM   34  C25 UNL     1      23.277 -16.587  -5.127  1.00  0.00     0.230 C
HETATM   35  O7  UNL     1      23.119 -15.595  -4.421  1.00  0.00    -0.273 OA
HETATM   36  N1  UNL     1      22.475 -16.691  -6.279  1.00  0.00    -0.325 N
HETATM   37  C26 UNL     1      22.312 -15.814  -7.164  1.00  0.00     0.085 C
ATOM     38  H1  UNL     1      21.974 -17.569  -6.410  1.00  0.00     0.169 HD
HETATM   39  C27 UNL     1      22.978 -14.499  -7.097  1.00  0.00     0.076 C
BRANCH  37  40
HETATM   40  C28 UNL     1      21.435 -16.066  -8.326  1.00  0.00     0.222 C
HETATM   41  O8  UNL     1      21.023 -15.138  -9.043  1.00  0.00    -0.643 OA
HETATM   42  O9  UNL     1      21.077 -17.362  -8.605  1.00  0.00    -0.643 OA
ENDBRANCH  37  40
ENDBRANCH  10  34
BRANCH   1  43
HETATM   43  C2  UNL     1      26.948 -20.592  -3.593  1.00  0.00     0.274 C
HETATM   44  O2  UNL     1      27.039 -20.544  -4.822  1.00  0.00    -0.264 OA
BRANCH  43  45
HETATM   45  O1  UNL     1      27.232 -21.778  -2.936  1.00  0.00    -0.326 OA
HETATM   46  C1  UNL     1      27.150 -23.039  -3.568  1.00  0.00     0.213 C
ENDBRANCH  43  45
ENDBRANCH   1  43
BRANCH  11  47
HETATM   47  O10 UNL     1      26.306 -18.086  -6.111  1.00  0.00    -0.390 OA
ATOM     48  H10 UNL     1      27.125 -17.740  -6.446  1.00  0.00     0.210 HD
ENDBRANCH  11  47
TORSDOF 12
ENDMDL