MODEL 1
REMARK VINA RESULT: -9.823788079      0.000      0.000
REMARK  6 active torsions:
REMARK  status: ('A' for Active; 'I' for Inactive)
REMARK    1  A    between atoms: O1_1  and  C1_3
REMARK    2  A    between atoms: C1_3  and  C2_4
REMARK    3  A    between atoms: C1_3  and  C11_19
REMARK    4  A    between atoms: C2_4  and  N1_5
REMARK    5  A    between atoms: C4_7  and  C5_8
REMARK    6  A    between atoms: C11_19  and  N4_20
ROOT
HETATM    1  C1  UNL     1      10.250  55.694  -0.233  1.00  0.00     0.156 C
ENDROOT
BRANCH   1   2
HETATM    2  O1  UNL     1      11.318  56.492   0.223  1.00  0.00    -0.392 OA
ATOM      3  H1  UNL     1      11.597  57.101  -0.450  1.00  0.00     0.210 HD
ENDBRANCH   1   2
BRANCH   1   4
HETATM    4  C2  UNL     1      10.709  54.287  -0.505  1.00  0.00     0.183 C
BRANCH   4   5
HETATM    5  N1  UNL     1      10.024  53.341   0.398  1.00  0.00    -0.284 N
HETATM    6  C3  UNL     1       8.742  52.980   0.240  1.00  0.00     0.143 A
HETATM    7  C4  UNL     1       8.420  52.094   1.244  1.00  0.00     0.076 A
HETATM    8  N2  UNL     1       9.550  51.971   1.961  1.00  0.00    -0.284 N
HETATM    9  N3  UNL     1      10.499  52.726   1.438  1.00  0.00    -0.240 N
ATOM     10  H2  UNL     1       9.659  51.382   2.787  1.00  0.00     0.188 HD
ATOM     11  H3  UNL     1      11.451  52.811   1.794  1.00  0.00     0.208 HD
BRANCH   7  12
HETATM   12  C5  UNL     1       7.149  51.428   1.491  1.00  0.00    -0.006 A
HETATM   13  C6  UNL     1       6.085  51.583   0.630  1.00  0.00     0.017 A
HETATM   14  C7  UNL     1       4.900  50.929   0.908  1.00  0.00     0.043 A
HETATM   15  C8  UNL     1       4.726  50.122   2.013  1.00  0.00     0.116 A
HETATM   16  F1  UNL     1       3.533  49.490   2.255  1.00  0.00    -0.206 F
HETATM   17  C9  UNL     1       5.799  49.974   2.868  1.00  0.00     0.043 A
HETATM   18  C10 UNL     1       6.990  50.624   2.600  1.00  0.00     0.017 A
ENDBRANCH   7  12
ENDBRANCH   4   5
ENDBRANCH   1   4
BRANCH   1  19
HETATM   19  C11 UNL     1       9.714  56.299  -1.497  1.00  0.00     0.164 C
BRANCH  19  20
HETATM   20  N4  UNL     1       8.929  57.486  -1.261  1.00  0.00    -0.325 N
HETATM   21  C12 UNL     1       9.145  58.764  -1.634  1.00  0.00     0.185 A
HETATM   22  N5  UNL     1       8.135  59.512  -1.160  1.00  0.00    -0.348 N
HETATM   23  C13 UNL     1       7.269  58.744  -0.486  1.00  0.00     0.092 A
ATOM     24  H5  UNL     1       8.041  60.519  -1.293  1.00  0.00     0.167 HD
HETATM   25  C14 UNL     1       6.094  58.746   0.230  1.00  0.00     0.039 A
HETATM   26  C19 UNL     1       7.772  57.466  -0.552  1.00  0.00     0.138 A
HETATM   27  C15 UNL     1       5.171  59.696   0.612  1.00  0.00     0.019 A
HETATM   28  C18 UNL     1       5.890  57.429   0.603  1.00  0.00     0.119 A
HETATM   29  C16 UNL     1       4.053  59.371   1.355  1.00  0.00     0.018 A
HETATM   30  C17 UNL     1       3.891  58.046   1.705  1.00  0.00     0.090 A
HETATM   31  N6  UNL     1       4.800  57.110   1.328  1.00  0.00    -0.352 N
ATOM     32  H6  UNL     1       4.652  56.138   1.600  1.00  0.00     0.166 HD
HETATM   33  N7  UNL     1       6.926  56.693   0.110  1.00  0.00    -0.326 N
ATOM     34  H7  UNL     1       7.035  55.685   0.235  1.00  0.00     0.169 HD
ENDBRANCH  19  20
ENDBRANCH   1  19
TORSDOF 6
ENDMDL