MODEL 5
REMARK VINA RESULT: -7.459449286      2.469      5.541
REMARK  6 active torsions:
REMARK  status: ('A' for Active; 'I' for Inactive)
REMARK    1  A    between atoms: C5_9  and  N3_10
REMARK    2  A    between atoms: N3_10  and  C7_12
REMARK    3  A    between atoms: N6_20  and  C12_21
REMARK    4  A    between atoms: C15_24  and  N7_25
REMARK    5  A    between atoms: N7_25  and  C16_27
REMARK    6  A    between atoms: C16_27  and  C17_28
ROOT
HETATM    1  C1  UNL     1       4.315  50.250   1.350  1.00  0.00     0.089 C
HETATM    2  C2  UNL     1       5.482  51.194   1.328  1.00  0.00     0.080 A
HETATM    3  N1  UNL     1       6.707  50.791   0.990  1.00  0.00    -0.330 N
ATOM      4  H1  UNL     1       6.877  49.819   0.734  1.00  0.00     0.168 HD
HETATM    5  C3  UNL     1       7.722  51.683   0.989  1.00  0.00     0.156 A
HETATM    6  C4  UNL     1       7.487  52.988   1.333  1.00  0.00     0.137 A
HETATM    7  N2  UNL     1       8.646  53.602   1.235  1.00  0.00    -0.184 N
ATOM      8  H2  UNL     1       8.803  54.592   1.428  1.00  0.00     0.184 HD
HETATM    9  C5  UNL     1       9.623  52.703   0.831  1.00  0.00     0.689 A
HETATM   10  N6  UNL     1       9.050  51.504   0.677  1.00  0.00    -0.161 N
HETATM   11  C15 UNL     1       6.200  53.402   1.688  1.00  0.00     0.134 A
HETATM   12  N8  UNL     1       5.237  52.468   1.669  1.00  0.00    -0.331 N
ATOM     13  H8  UNL     1       4.286  52.736   1.923  1.00  0.00     0.168 HD
ENDROOT
BRANCH   9  14
HETATM   14  N3  UNL     1      10.972  53.076   0.636  1.00  0.00    -0.184 N
HETATM   15  C6  UNL     1      12.088  52.755   1.461  1.00  0.00     0.175 C
BRANCH  14  16
HETATM   16  C7  UNL     1      11.270  53.880  -0.529  1.00  0.00     0.091 A
HETATM   17  C8  UNL     1      11.852  53.479  -1.712  1.00  0.00     0.139 A
HETATM   18  N4  UNL     1      11.924  54.581  -2.499  1.00  0.00    -0.308 N
HETATM   19  N5  UNL     1      11.425  55.634  -1.878  1.00  0.00    -0.299 N
ATOM     20  H4  UNL     1      12.311  54.595  -3.442  1.00  0.00     0.186 HD
HETATM   21  C9  UNL     1      11.320  57.011  -2.386  1.00  0.00     0.177 C
HETATM   22  C10 UNL     1      11.021  55.231  -0.677  1.00  0.00     0.053 A
HETATM   23  C11 UNL     1      10.395  56.095   0.356  1.00  0.00     0.072 C
ENDBRANCH  14  16
ENDBRANCH   9  14
BRANCH  10  24
HETATM   24  C12 UNL     1       9.622  50.224   0.275  1.00  0.00     0.101 C
HETATM   25  C13 UNL     1      10.491  50.428  -0.988  1.00  0.00     0.033 C
HETATM   26  C14 UNL     1      10.581  49.696   1.321  1.00  0.00     0.033 C
ENDBRANCH  10  24
BRANCH  11  27
HETATM   27  N7  UNL     1       6.007  54.634   2.007  1.00  0.00    -0.372 N
ATOM     28  H7  UNL     1       6.355  54.995   2.895  1.00  0.00     0.161 HD
BRANCH  27  29
HETATM   29  C16 UNL     1       5.297  55.497   1.101  1.00  0.00     0.158 C
BRANCH  29  30
HETATM   30  C17 UNL     1       5.636  56.954   1.334  1.00  0.00     0.183 C
HETATM   31  C18 UNL     1       4.477  57.847   0.954  1.00  0.00     0.046 C
HETATM   32  F1  UNL     1       6.711  57.299   0.510  1.00  0.00    -0.248 F
ENDBRANCH  29  30
ENDBRANCH  27  29
ENDBRANCH  11  27
TORSDOF 6
ENDMDL