MODEL 3
REMARK VINA RESULT: -8.234323221      2.090      2.899
REMARK  7 active torsions:
REMARK  status: ('A' for Active; 'I' for Inactive)
REMARK    1  A    between atoms: C2_2  and  N1_3
REMARK    2  A    between atoms: N1_3  and  C3_4
REMARK       I    between atoms: N1_3  and  C14_28
REMARK    3  A    between atoms: C3_4  and  C4_5
REMARK    4  A    between atoms: C5_8  and  C6_9
REMARK    5  A    between atoms: C6_9  and  S1_11
REMARK    6  A    between atoms: S1_11  and  C7_12
REMARK    7  A    between atoms: C8_17  and  O2_18
ROOT
HETATM    1  C4  UNL     1       8.602  54.732  -0.139  1.00  0.00     0.071 A
HETATM    2  N2  UNL     1       8.487  53.367   0.130  1.00  0.00    -0.348 N
ATOM      3  H2  UNL     1       7.589  52.917  -0.043  1.00  0.00     0.166 HD
HETATM    4  C5  UNL     1       9.491  52.614   0.601  1.00  0.00     0.113 A
HETATM    5  C10 UNL     1      10.722  53.197   0.840  1.00  0.00     0.037 A
HETATM    6  C11 UNL     1      11.914  52.474   1.356  1.00  0.00     0.070 C
HETATM    7  N5  UNL     1      10.833  54.502   0.584  1.00  0.00    -0.360 N
ATOM      8  H5  UNL     1      11.733  54.948   0.758  1.00  0.00     0.165 HD
HETATM    9  C12 UNL     1       9.809  55.280   0.102  1.00  0.00     0.034 A
HETATM   10  C13 UNL     1      10.037  56.684  -0.220  1.00  0.00     0.070 C
ENDROOT
BRANCH   4  11
HETATM   11  C6  UNL     1       9.341  51.213   0.923  1.00  0.00     0.243 C
HETATM   12  O1  UNL     1       9.672  50.300   0.171  1.00  0.00    -0.278 OA
BRANCH  11  13
HETATM   13  S1  UNL     1       8.622  50.744   2.536  1.00  0.00    -0.023 SA
BRANCH  13  14
HETATM   14  C7  UNL     1       6.871  50.495   2.256  1.00  0.00     0.136 A
HETATM   15  N3  UNL     1       6.224  50.933   1.124  1.00  0.00    -0.289 N
HETATM   16  N4  UNL     1       4.928  50.594   1.225  1.00  0.00    -0.277 N
ATOM     17  H3  UNL     1       6.654  51.428   0.343  1.00  0.00     0.188 HD
HETATM   18  C8  UNL     1       4.754  49.956   2.394  1.00  0.00     0.197 A
ATOM     19  H4  UNL     1       4.202  50.788   0.535  1.00  0.00     0.189 HD
HETATM   20  C9  UNL     1       5.962  49.886   3.047  1.00  0.00     0.203 A
HETATM   21  F1  UNL     1       6.207  49.326   4.255  1.00  0.00    -0.198 F
BRANCH  18  22
HETATM   22  O2  UNL     1       3.585  49.422   2.927  1.00  0.00    -0.343 OA
ATOM     23  H2  UNL     1       3.374  48.511   3.101  1.00  0.00     0.219 HD
ENDBRANCH  18  22
ENDBRANCH  13  14
ENDBRANCH  11  13
ENDBRANCH   4  11
BRANCH   1  24
HETATM   24  C3  UNL     1       7.377  55.343  -0.522  1.00  0.00     0.125 C
BRANCH  24  25
HETATM   25  N1  UNL     1       6.389  55.900   0.266  1.00  0.00    -0.327 N
HETATM   26  C14 UNL     1       6.019  57.255   0.285  1.00  0.00     0.219 C
HETATM   27  C15 UNL     1       4.825  57.823   0.972  1.00  0.00     0.117 C
HETATM   28  O3  UNL     1       6.727  58.138  -0.322  1.00  0.00    -0.274 OA
BRANCH  25  29
HETATM   29  C2  UNL     1       5.537  55.056   1.100  1.00  0.00     0.127 C
HETATM   30  C1  UNL     1       6.087  54.764   2.456  1.00  0.00     0.027 C
ENDBRANCH  25  29
ENDBRANCH  24  25
ENDBRANCH   1  24
TORSDOF 7
ENDMDL