MODEL 5
REMARK VINA RESULT: -9.273590170      2.308      4.249
REMARK  5 active torsions:
REMARK  status: ('A' for Active; 'I' for Inactive)
REMARK    1  A    between atoms: C3_6  and  N2_7
REMARK    2  A    between atoms: C5_13  and  C6_14
REMARK    3  A    between atoms: C11_23  and  S1_24
REMARK    4  A    between atoms: S1_24  and  C12_25
REMARK    5  A    between atoms: C12_25  and  C13_26
ROOT
HETATM    1  N1  UNL     1       7.573  55.607   4.766  1.00  0.00    -0.385 N
ATOM      2  H11 UNL     1       7.090  56.386   5.215  1.00  0.00     0.157 HD
ATOM      3  H12 UNL     1       8.370  55.174   5.232  1.00  0.00     0.157 HD
HETATM    4  C1  UNL     1       7.151  55.191   3.604  1.00  0.00     0.104 A
HETATM    5  C2  UNL     1       7.814  54.122   2.988  1.00  0.00     0.097 A
HETATM    6  C3  UNL     1       7.365  53.687   1.762  1.00  0.00     0.119 A
HETATM    7  N6  UNL     1       6.312  54.310   1.216  1.00  0.00    -0.322 N
ATOM      8  H6  UNL     1       5.980  53.987   0.307  1.00  0.00     0.169 HD
HETATM    9  C11 UNL     1       5.671  55.333   1.799  1.00  0.00     0.147 A
HETATM   10  N7  UNL     1       6.103  55.761   2.992  1.00  0.00    -0.323 N
ATOM     11  H7  UNL     1       5.624  56.539   3.446  1.00  0.00     0.169 HD
ENDROOT
BRANCH   6  12
HETATM   12  N2  UNL     1       8.032  52.610   1.136  1.00  0.00    -0.275 N
HETATM   13  C4  UNL     1       9.262  52.679   0.554  1.00  0.00     0.208 A
HETATM   14  N3  UNL     1       9.604  51.496   0.056  1.00  0.00    -0.294 N
HETATM   15  N4  UNL     1       8.592  50.681   0.324  1.00  0.00    -0.282 N
ATOM     16  H3  UNL     1      10.469  51.262  -0.432  1.00  0.00     0.187 HD
HETATM   17  C5  UNL     1       7.626  51.344   0.981  1.00  0.00     0.156 A
ATOM     18  H4  UNL     1       8.553  49.694   0.068  1.00  0.00     0.188 HD
BRANCH  17  19
HETATM   19  C6  UNL     1       6.360  50.779   1.442  1.00  0.00     0.078 A
HETATM   20  C7  UNL     1       5.197  50.995   0.735  1.00  0.00     0.033 A
HETATM   21  C8  UNL     1       4.011  50.457   1.181  1.00  0.00     0.004 A
HETATM   22  C9  UNL     1       3.996  49.702   2.337  1.00  0.00     0.017 A
HETATM   23  C10 UNL     1       5.171  49.499   3.027  1.00  0.00     0.088 A
HETATM   24  N5  UNL     1       6.297  50.039   2.558  1.00  0.00    -0.363 N
ATOM     25  H5  UNL     1       7.160  49.880   3.079  1.00  0.00     0.165 HD
ENDBRANCH  17  19
ENDBRANCH   6  12
BRANCH   9  26
HETATM   26  S1  UNL     1       4.295  56.094   1.011  1.00  0.00    -0.089 SA
BRANCH  26  27
HETATM   27  C12 UNL     1       4.474  57.858   0.767  1.00  0.00     0.121 C
BRANCH  27  28
HETATM   28  C13 UNL     1       5.749  58.245   0.133  1.00  0.00    -0.048 A
HETATM   29  C14 UNL     1       6.054  59.578  -0.039  1.00  0.00     0.011 A
HETATM   30  C15 UNL     1       7.249  59.983  -0.635  1.00  0.00     0.043 A
HETATM   31  C16 UNL     1       8.163  59.060  -1.071  1.00  0.00     0.116 A
HETATM   32  F1  UNL     1       9.341  59.439  -1.658  1.00  0.00    -0.206 F
HETATM   33  C17 UNL     1       7.872  57.724  -0.906  1.00  0.00     0.043 A
HETATM   34  C18 UNL     1       6.678  57.325  -0.310  1.00  0.00     0.011 A
ENDBRANCH  27  28
ENDBRANCH  26  27
ENDBRANCH   9  26
TORSDOF 5
ENDMDL