MODEL 1
REMARK VINA RESULT: -8.075661011      0.000      0.000
REMARK  7 active torsions:
REMARK  status: ('A' for Active; 'I' for Inactive)
REMARK    1  A    between atoms: C2_2  and  C3_3
REMARK    2  A    between atoms: C3_3  and  O1_5
REMARK    3  A    between atoms: C3_3  and  C5_7
REMARK    4  A    between atoms: C7_9  and  C8_10
REMARK    5  A    between atoms: C10_14  and  N2_15
REMARK    6  A    between atoms: N2_15  and  C11_17
REMARK    7  A    between atoms: C11_17  and  C12_18
ROOT
HETATM    1  C8  UNL     1       6.349  54.682   1.582  1.00  0.00     0.031 A
HETATM    2  C9  UNL     1       6.218  53.580   0.767  1.00  0.00     0.121 A
HETATM    3  N1  UNL     1       6.643  52.388   1.229  1.00  0.00    -0.201 N
ATOM      4  H1  UNL     1       6.548  51.568   0.629  1.00  0.00     0.183 HD
HETATM    5  C10 UNL     1       7.193  52.235   2.461  1.00  0.00     0.678 A
HETATM    6  N4  UNL     1       7.305  53.316   3.220  1.00  0.00    -0.195 N
ATOM      7  H4  UNL     1       7.719  53.204   4.145  1.00  0.00     0.184 HD
HETATM    8  C15 UNL     1       6.908  54.563   2.852  1.00  0.00     0.036 A
HETATM    9  C16 UNL     1       7.109  55.728   3.736  1.00  0.00     0.070 C
ENDROOT
BRANCH   1  10
HETATM   10  C7  UNL     1       5.977  56.049   1.210  1.00  0.00     0.063 A
HETATM   11  C6  UNL     1       6.724  56.974   0.521  1.00  0.00     0.061 A
HETATM   12  C5  UNL     1       5.974  58.156   0.513  1.00  0.00     0.064 A
HETATM   13  N6  UNL     1       4.828  57.943   1.168  1.00  0.00    -0.297 N
HETATM   14  N5  UNL     1       4.850  56.698   1.573  1.00  0.00    -0.298 N
HETATM   15  C17 UNL     1       3.738  58.910   1.361  1.00  0.00     0.177 C
ATOM     16  H5  UNL     1       4.096  56.264   2.105  1.00  0.00     0.187 HD
BRANCH  12  17
HETATM   17  C3  UNL     1       6.452  59.415  -0.078  1.00  0.00     0.097 C
HETATM   18  C4  UNL     1       5.949  60.581   0.790  1.00  0.00     0.053 C
BRANCH  17  19
HETATM   19  C2  UNL     1       7.948  59.511  -0.134  1.00  0.00     0.039 C
HETATM   20  C1  UNL     1       8.413  59.261  -1.551  1.00  0.00     0.008 C
ENDBRANCH  17  19
BRANCH  17  21
HETATM   21  O1  UNL     1       5.888  59.661  -1.343  1.00  0.00    -0.384 OA
ATOM     22  H1  UNL     1       5.017  59.286  -1.403  1.00  0.00     0.211 HD
ENDBRANCH  17  21
ENDBRANCH  12  17
ENDBRANCH   1  10
BRANCH   5  23
HETATM   23  N2  UNL     1       7.562  51.035   2.849  1.00  0.00    -0.221 N
ATOM     24  H2  UNL     1       8.203  50.897   3.630  1.00  0.00     0.178 HD
BRANCH  23  25
HETATM   25  C11 UNL     1       7.011  49.923   2.110  1.00  0.00     0.189 C
BRANCH  25  26
HETATM   26  C12 UNL     1       5.777  49.459   2.844  1.00  0.00     0.058 A
HETATM   27  S1  UNL     1       5.567  48.559   4.274  1.00  0.00    -0.083 SA
HETATM   28  C13 UNL     1       3.859  48.504   4.298  1.00  0.00     0.141 A
HETATM   29  N3  UNL     1       3.543  49.181   3.201  1.00  0.00    -0.336 N
HETATM   30  C14 UNL     1       4.484  49.670   2.454  1.00  0.00     0.203 A
ATOM     31  H3  UNL     1       2.565  49.316   2.947  1.00  0.00     0.168 HD
HETATM   32  F1  UNL     1       4.196  50.383   1.300  1.00  0.00    -0.185 F
ENDBRANCH  25  26
ENDBRANCH  23  25
ENDBRANCH   5  23
TORSDOF 7
ENDMDL