MODEL 2
REMARK VINA RESULT: -8.936799734      0.162      1.344
REMARK  8 active torsions:
REMARK  status: ('A' for Active; 'I' for Inactive)
REMARK    1  A    between atoms: N1_2  and  N2_4
REMARK    2  A    between atoms: N3_6  and  C2_8
REMARK    3  A    between atoms: C5_11  and  S1_12
REMARK    4  A    between atoms: S1_12  and  N4_14
REMARK    5  A    between atoms: S1_12  and  N5_18
REMARK    6  A    between atoms: N4_14  and  O2_16
REMARK    7  A    between atoms: N5_18  and  S2_20
REMARK    8  A    between atoms: S2_20  and  C6_23
ROOT
HETATM    1  S1  UNL     1       9.671  52.975   0.265  1.00  0.00     0.170 S
HETATM    2  O1  UNL     1      10.352  52.009  -0.662  1.00  0.00    -0.221 OA
ENDROOT
BRANCH   1   3
HETATM    3  C5  UNL     1       8.373  52.082   1.044  1.00  0.00     0.061 A
HETATM    4  C4  UNL     1       8.704  51.130   1.984  1.00  0.00     0.026 A
HETATM    5  C3  UNL     1       7.766  50.379   2.649  1.00  0.00     0.032 A
HETATM    6  C2  UNL     1       6.437  50.581   2.371  1.00  0.00     0.049 A
HETATM    7  C13 UNL     1       6.089  51.531   1.433  1.00  0.00     0.032 A
HETATM    8  C12 UNL     1       7.049  52.274   0.777  1.00  0.00     0.026 A
BRANCH   6   9
HETATM    9  N3  UNL     1       5.454  49.815   3.049  1.00  0.00    -0.287 N
HETATM   10  N2  UNL     1       5.624  49.530   4.281  1.00  0.00    -0.243 N
ATOM     11  H2  UNL     1       6.465  49.859   4.756  1.00  0.00     0.208 HD
ATOM     12  H3  UNL     1       4.619  49.496   2.556  1.00  0.00     0.188 HD
BRANCH  10  13
HETATM   13  N1  UNL     1       4.696  48.784   4.994  1.00  0.00    -0.308 N
HETATM   14  C1  UNL     1       3.676  48.268   4.423  1.00  0.00     0.140 C
ATOM     15  H1  UNL     1       4.831  48.644   5.995  1.00  0.00     0.186 HD
ENDBRANCH  10  13
ENDBRANCH   6   9
ENDBRANCH   1   3
BRANCH   1  16
HETATM   16  N4  UNL     1      10.702  53.325   1.408  1.00  0.00    -0.207 N
ATOM     17  H4  UNL     1      10.405  53.356   2.383  1.00  0.00     0.206 HD
BRANCH  16  18
HETATM   18  O2  UNL     1      12.013  53.587   1.066  1.00  0.00    -0.281 OA
ATOM     19  H2  UNL     1      12.258  54.475   0.833  1.00  0.00     0.245 HD
ENDBRANCH  16  18
ENDBRANCH   1  16
BRANCH   1  20
HETATM   20  N5  UNL     1       9.099  54.371  -0.527  1.00  0.00    -0.218 N
ATOM     21  H5  UNL     1       8.738  54.399  -1.481  1.00  0.00     0.190 HD
BRANCH  20  22
HETATM   22  S2  UNL     1       9.221  55.714   0.515  1.00  0.00     0.270 S
HETATM   23  O3  UNL     1       8.825  55.318   1.910  1.00  0.00    -0.200 OA
HETATM   24  O4  UNL     1      10.674  56.127   0.560  1.00  0.00    -0.200 OA
BRANCH  22  25
HETATM   25  C6  UNL     1       8.205  57.041   0.023  1.00  0.00     0.080 A
HETATM   26  C7  UNL     1       6.847  57.084   0.224  1.00  0.00     0.028 A
HETATM   27  C8  UNL     1       6.108  58.166  -0.193  1.00  0.00     0.044 A
HETATM   28  C9  UNL     1       6.703  59.250  -0.828  1.00  0.00     0.116 A
HETATM   29  F1  UNL     1       5.939  60.308  -1.228  1.00  0.00    -0.206 F
HETATM   30  C10 UNL     1       8.062  59.203  -1.026  1.00  0.00     0.044 A
HETATM   31  C11 UNL     1       8.802  58.112  -0.606  1.00  0.00     0.028 A
ENDBRANCH  22  25
ENDBRANCH  20  22
ENDBRANCH   1  20
TORSDOF 8
ENDMDL