MODEL 2
REMARK VINA RESULT: -8.917619504      1.340      1.925
REMARK  7 active torsions:
REMARK  status: ('A' for Active; 'I' for Inactive)
REMARK    1  A    between atoms: C6_8  and  N2_9
REMARK    2  A    between atoms: N2_9  and  C7_11
REMARK    3  A    between atoms: C9_18  and  O1_19
REMARK    4  A    between atoms: C10_21  and  C11_22
REMARK    5  A    between atoms: C11_22  and  C12_23
REMARK    6  A    between atoms: C12_23  and  C13_24
REMARK    7  A    between atoms: C13_24  and  C14_25
ROOT
HETATM    1  C7  UNL     1       6.255  57.535   0.139  1.00  0.00     0.153 A
HETATM    2  N3  UNL     1       5.489  58.597   0.407  1.00  0.00    -0.334 N
ATOM      3  H3  UNL     1       4.600  58.460   0.889  1.00  0.00     0.168 HD
HETATM    4  C8  UNL     1       5.864  59.859   0.055  1.00  0.00     0.199 A
HETATM    5  N4  UNL     1       7.043  59.975  -0.576  1.00  0.00    -0.286 N
ATOM      6  H4  UNL     1       7.345  60.910  -0.850  1.00  0.00     0.188 HD
HETATM    7  N5  UNL     1       7.838  58.962  -0.865  1.00  0.00    -0.211 N
HETATM    8  C9  UNL     1       9.035  58.823  -1.474  1.00  0.00     0.186 A
HETATM    9  C10 UNL     1       9.409  57.498  -1.505  1.00  0.00     0.064 A
HETATM   10  N7  UNL     1       8.412  56.831  -0.900  1.00  0.00    -0.338 N
ATOM     11  H7  UNL     1       8.375  55.822  -0.756  1.00  0.00     0.167 HD
HETATM   12  C19 UNL     1       7.455  57.728  -0.511  1.00  0.00     0.174 A
ENDROOT
BRANCH   9  13
HETATM   13  C11 UNL     1      10.666  56.892  -2.086  1.00  0.00     0.062 C
BRANCH  13  14
HETATM   14  C12 UNL     1      10.804  55.480  -1.572  1.00  0.00     0.012 C
BRANCH  14  15
HETATM   15  C13 UNL     1      10.897  55.374  -0.098  1.00  0.00     0.057 C
BRANCH  15  16
HETATM   16  C14 UNL     1      11.017  53.962   0.314  1.00  0.00     0.009 A
HETATM   17  C15 UNL     1      10.090  53.008  -0.060  1.00  0.00     0.028 A
HETATM   18  C16 UNL     1      10.284  51.717   0.375  1.00  0.00     0.045 A
HETATM   19  C17 UNL     1      11.365  51.357   1.166  1.00  0.00     0.131 A
HETATM   20  F1  UNL     1      11.542  50.082   1.588  1.00  0.00    -0.205 F
HETATM   21  C18 UNL     1      12.260  52.338   1.512  1.00  0.00     0.130 A
HETATM   22  N6  UNL     1      12.083  53.606   1.093  1.00  0.00    -0.366 N
ATOM     23  H6  UNL     1      12.761  54.319   1.363  1.00  0.00     0.165 HD
ENDBRANCH  15  16
ENDBRANCH  14  15
ENDBRANCH  13  14
ENDBRANCH   9  13
BRANCH   8  24
HETATM   24  O1  UNL     1       9.762  59.887  -1.987  1.00  0.00    -0.343 OA
ATOM     25  H1  UNL     1      10.259  60.492  -1.448  1.00  0.00     0.219 HD
ENDBRANCH   8  24
BRANCH   1  26
HETATM   26  N2  UNL     1       5.917  56.365   0.465  1.00  0.00    -0.339 N
ATOM     27  H2  UNL     1       5.169  55.958  -0.097  1.00  0.00     0.167 HD
BRANCH  26  28
HETATM   28  C6  UNL     1       6.411  55.540   1.480  1.00  0.00     0.042 A
HETATM   29  C2  UNL     1       6.762  54.228   1.245  1.00  0.00    -0.020 A
HETATM   30  C1  UNL     1       6.596  53.725  -0.131  1.00  0.00     0.052 C
HETATM   31  C3  UNL     1       7.253  53.403   2.241  1.00  0.00     0.096 A
HETATM   32  N1  UNL     1       7.395  53.891   3.486  1.00  0.00    -0.375 N
HETATM   33  C4  UNL     1       7.062  55.163   3.753  1.00  0.00     0.090 A
ATOM     34  H1  UNL     1       7.756  53.293   4.229  1.00  0.00     0.164 HD
HETATM   35  C5  UNL     1       6.564  56.018   2.762  1.00  0.00     0.047 A
ENDBRANCH  26  28
ENDBRANCH   1  26
TORSDOF 7
ENDMDL