MODEL 3
REMARK VINA RESULT: -9.037625877      2.906      4.262
REMARK  7 active torsions:
REMARK  status: ('A' for Active; 'I' for Inactive)
REMARK    1  A    between atoms: O1_1  and  C1_3
REMARK    2  A    between atoms: C1_3  and  C2_4
REMARK    3  A    between atoms: C2_4  and  C3_5
REMARK    4  A    between atoms: C3_5  and  N1_6
REMARK    5  A    between atoms: N1_6  and  C4_8
REMARK    6  A    between atoms: C9_22  and  C10_23
REMARK    7  A    between atoms: C11_24  and  C12_25
ROOT
HETATM    1  C4  UNL     1       7.744  52.422   2.128  1.00  0.00     0.121 A
HETATM    2  N2  UNL     1       9.052  52.196   1.830  1.00  0.00    -0.338 N
ATOM      3  H2  UNL     1       9.526  51.326   2.076  1.00  0.00     0.168 HD
HETATM    4  C5  UNL     1       9.672  53.194   1.192  1.00  0.00     0.182 A
HETATM    5  N3  UNL     1       9.111  54.355   0.842  1.00  0.00    -0.349 N
ATOM      6  H3  UNL     1       9.672  55.055   0.357  1.00  0.00     0.166 HD
HETATM    7  C6  UNL     1       7.791  54.626   1.125  1.00  0.00     0.084 A
HETATM    8  C7  UNL     1       7.127  53.634   1.773  1.00  0.00     0.080 A
HETATM    9  S1  UNL     1       5.550  54.275   1.968  1.00  0.00    -0.063 SA
HETATM   10  C8  UNL     1       5.779  55.784   1.221  1.00  0.00     0.119 A
HETATM   11  N4  UNL     1       5.020  56.891   0.957  1.00  0.00    -0.290 N
ATOM     12  H4  UNL     1       4.046  56.889   1.257  1.00  0.00     0.187 HD
HETATM   13  N5  UNL     1       5.476  57.953   0.342  1.00  0.00    -0.285 N
ATOM     14  H5  UNL     1       4.870  58.755   0.167  1.00  0.00     0.188 HD
HETATM   15  C9  UNL     1       6.806  57.963  -0.070  1.00  0.00     0.120 A
HETATM   16  N6  UNL     1       7.508  56.882   0.199  1.00  0.00    -0.337 N
ATOM     17  H6  UNL     1       8.482  56.890  -0.104  1.00  0.00     0.167 HD
HETATM   18  C18 UNL     1       7.084  55.762   0.832  1.00  0.00     0.098 A
ENDROOT
BRANCH  15  19
HETATM   19  C10 UNL     1       7.266  59.180  -0.657  1.00  0.00     0.051 C
HETATM   20  C11 UNL     1       8.280  59.522  -1.365  1.00  0.00     0.015 C
BRANCH  20  21
HETATM   21  C12 UNL     1       9.399  58.822  -1.892  1.00  0.00    -0.036 A
HETATM   22  C13 UNL     1      10.286  59.542  -2.721  1.00  0.00     0.014 A
HETATM   23  C14 UNL     1      11.335  58.963  -3.357  1.00  0.00     0.043 A
HETATM   24  C15 UNL     1      11.580  57.629  -3.220  1.00  0.00     0.116 A
HETATM   25  F1  UNL     1      12.624  57.055  -3.853  1.00  0.00    -0.206 F
HETATM   26  C16 UNL     1      10.750  56.885  -2.431  1.00  0.00     0.043 A
HETATM   27  C17 UNL     1       9.668  57.492  -1.777  1.00  0.00     0.014 A
ENDBRANCH  20  21
ENDBRANCH  15  19
BRANCH   1  28
HETATM   28  N1  UNL     1       7.030  51.572   2.728  1.00  0.00    -0.375 N
ATOM     29  H1  UNL     1       6.465  51.959   3.484  1.00  0.00     0.161 HD
BRANCH  28  30
HETATM   30  C3  UNL     1       6.872  50.182   2.540  1.00  0.00     0.123 C
BRANCH  30  31
HETATM   31  C2  UNL     1       5.381  49.839   2.706  1.00  0.00     0.045 C
BRANCH  31  32
HETATM   32  C1  UNL     1       5.266  48.981   3.967  1.00  0.00     0.165 C
BRANCH  32  33
HETATM   33  O1  UNL     1       6.198  49.371   4.916  1.00  0.00    -0.401 OA
ATOM     34  H1  UNL     1       6.158  50.309   5.063  1.00  0.00     0.209 HD
ENDBRANCH  32  33
ENDBRANCH  31  32
ENDBRANCH  30  31
ENDBRANCH  28  30
ENDBRANCH   1  28
TORSDOF 7
ENDMDL