MODEL 5
REMARK VINA RESULT: -8.185615922      1.066      1.232
REMARK  7 active torsions:
REMARK  status: ('A' for Active; 'I' for Inactive)
REMARK    1  A    between atoms: N1_1  and  C1_4
REMARK    2  A    between atoms: C2_9  and  S1_10
REMARK    3  A    between atoms: S1_10  and  C3_11
REMARK    4  A    between atoms: C3_11  and  C4_12
REMARK    5  A    between atoms: C7_15  and  S2_16
REMARK    6  A    between atoms: S2_16  and  N4_18
REMARK    7  A    between atoms: N4_18  and  C8_20
ROOT
HETATM    1  C4  UNL     1       6.415  53.216   2.459  1.00  0.00    -0.033 A
HETATM    2  C5  UNL     1       5.627  53.472   1.356  1.00  0.00     0.012 A
HETATM    3  C6  UNL     1       5.230  54.738   1.055  1.00  0.00     0.042 A
HETATM    4  C7  UNL     1       5.611  55.809   1.854  1.00  0.00     0.121 A
HETATM    5  N5  UNL     1       6.378  55.558   2.926  1.00  0.00    -0.357 N
ATOM      6  H5  UNL     1       6.667  56.332   3.524  1.00  0.00     0.166 HD
HETATM    7  C14 UNL     1       6.777  54.296   3.233  1.00  0.00     0.096 A
ENDROOT
BRANCH   1   8
HETATM    8  C3  UNL     1       6.811  51.834   2.733  1.00  0.00     0.121 C
BRANCH   8   9
HETATM    9  S1  UNL     1       7.980  51.167   1.544  1.00  0.00    -0.099 SA
BRANCH   9  10
HETATM   10  C2  UNL     1       9.195  52.465   1.206  1.00  0.00     0.130 A
HETATM   11  N3  UNL     1      10.398  52.626   1.734  1.00  0.00    -0.286 N
HETATM   12  N2  UNL     1      11.128  53.603   1.379  1.00  0.00    -0.279 N
ATOM     13  H3  UNL     1      10.740  51.963   2.429  1.00  0.00     0.188 HD
HETATM   14  C1  UNL     1      10.652  54.458   0.466  1.00  0.00     0.159 A
ATOM     15  H2  UNL     1      12.056  53.733   1.781  1.00  0.00     0.189 HD
HETATM   16  S3  UNL     1       9.111  53.797   0.139  1.00  0.00    -0.027 SA
BRANCH  14  17
HETATM   17  N1  UNL     1      11.275  55.515  -0.006  1.00  0.00    -0.379 N
ATOM     18  H12 UNL     1      12.185  55.923   0.207  1.00  0.00     0.158 HD
ATOM     19  H11 UNL     1      10.923  56.152  -0.721  1.00  0.00     0.158 HD
ENDBRANCH  14  17
ENDBRANCH   9  10
ENDBRANCH   8   9
ENDBRANCH   1   8
BRANCH   4  20
HETATM   20  S2  UNL     1       5.063  57.472   1.419  1.00  0.00     0.168 S
HETATM   21  O1  UNL     1       3.715  58.113   2.320  1.00  0.00    -0.228 OA
BRANCH  20  22
HETATM   22  N4  UNL     1       5.349  58.033  -0.066  1.00  0.00    -0.298 N
ATOM     23  H4  UNL     1       4.562  58.241  -0.681  1.00  0.00     0.177 HD
BRANCH  22  24
HETATM   24  C8  UNL     1       6.666  58.240  -0.535  1.00  0.00     0.079 A
HETATM   25  C9  UNL     1       7.516  57.180  -0.742  1.00  0.00     0.033 A
HETATM   26  C10 UNL     1       8.804  57.441  -1.205  1.00  0.00     0.002 A
HETATM   27  C11 UNL     1       9.252  58.712  -1.460  1.00  0.00     0.003 A
HETATM   28  C12 UNL     1       8.383  59.761  -1.245  1.00  0.00     0.044 A
HETATM   29  C13 UNL     1       7.111  59.511  -0.789  1.00  0.00     0.143 A
HETATM   30  F1  UNL     1       6.261  60.555  -0.580  1.00  0.00    -0.204 F
ENDBRANCH  22  24
ENDBRANCH  20  22
ENDBRANCH   4  20
TORSDOF 7
ENDMDL