MODEL 4
REMARK VINA RESULT: -7.404395741      1.547      1.951
REMARK  11 active torsions:
REMARK  status: ('A' for Active; 'I' for Inactive)
REMARK    1  A    between atoms: C2_2  and  N1_3
REMARK    2  A    between atoms: N1_3  and  C4_5
REMARK    3  A    between atoms: C5_6  and  N2_8
REMARK    4  A    between atoms: N2_8  and  O1_9
REMARK    5  A    between atoms: N2_8  and  C6_11
REMARK    6  A    between atoms: C6_11  and  C7_12
REMARK    7  A    between atoms: C12_18  and  C13_19
REMARK    8  A    between atoms: C13_19  and  C14_20
REMARK    9  A    between atoms: C14_20  and  C15_21
REMARK   10  A    between atoms: C15_21  and  O3_22
REMARK   11  A    between atoms: N3_24  and  O4_26
ROOT
HETATM    1  C7  UNL     1       9.285  57.651  -1.210  1.00  0.00    -0.016 A
HETATM    2  C8  UNL     1       8.869  59.089  -1.400  1.00  0.00     0.029 A
HETATM    3  C9  UNL     1       7.631  59.513  -0.912  1.00  0.00     0.219 A
HETATM    4  O2  UNL     1       7.482  58.462  -0.552  1.00  0.00    -0.330 OA
HETATM    5  C10 UNL     1       7.258  57.387  -0.150  1.00  0.00     0.088 A
HETATM    6  C11 UNL     1       8.379  56.714  -0.516  1.00  0.00     0.051 A
HETATM    7  C12 UNL     1       5.969  57.768   0.380  1.00  0.00     0.033 A
HETATM    8  S1  UNL     1       5.946  59.616  -0.119  1.00  0.00    -0.091 SA
ENDROOT
BRANCH   1   9
HETATM    9  C6  UNL     1      10.481  57.216  -1.573  1.00  0.00     0.135 C
BRANCH   9  10
HETATM   10  N2  UNL     1      11.016  57.023  -2.757  1.00  0.00    -0.223 N
BRANCH  10  11
HETATM   11  C5  UNL     1      11.866  58.001  -3.212  1.00  0.00     0.146 C
HETATM   12  C4  UNL     1      13.161  57.693  -3.405  1.00  0.00     0.130 C
HETATM   13 CL1  UNL     1      11.312  59.640  -3.551  1.00  0.00    -0.060 Cl
BRANCH  12  14
HETATM   14  N1  UNL     1      14.019  58.701  -3.871  1.00  0.00    -0.392 N
HETATM   15  C3  UNL     1      14.307  58.885  -5.294  1.00  0.00     0.148 C
BRANCH  14  16
HETATM   16  C2  UNL     1      14.691  59.644  -2.974  1.00  0.00     0.117 C
HETATM   17  C1  UNL     1      16.176  59.673  -3.225  1.00  0.00     0.026 C
ENDBRANCH  14  16
ENDBRANCH  12  14
ENDBRANCH  10  11
BRANCH  10  18
HETATM   18  O1  UNL     1      10.859  55.966  -3.530  1.00  0.00    -0.282 OA
ATOM     19  H1  UNL     1      10.072  55.451  -3.395  1.00  0.00     0.245 HD
ENDBRANCH  10  18
ENDBRANCH   9  10
ENDBRANCH   1   9
BRANCH   7  20
HETATM   20  C13 UNL     1       5.317  56.884   0.950  1.00  0.00     0.003 C
BRANCH  20  21
HETATM   21  C14 UNL     1       5.860  55.876   1.880  1.00  0.00     0.114 C
BRANCH  21  22
HETATM   22  C15 UNL     1       4.963  54.733   1.962  1.00  0.00     0.138 C
HETATM   23  N3  UNL     1       5.377  53.534   1.813  1.00  0.00    -0.251 N
ATOM     24  H3  UNL     1       4.699  52.776   1.880  1.00  0.00     0.196 HD
BRANCH  22  25
HETATM   25  O3  UNL     1       3.598  54.921   2.209  1.00  0.00    -0.348 OA
ATOM     26  H3  UNL     1       3.105  55.565   1.714  1.00  0.00     0.219 HD
ENDBRANCH  22  25
BRANCH  23  27
HETATM   27  O4  UNL     1       6.688  53.215   1.568  1.00  0.00    -0.288 OA
ATOM     28  H4  UNL     1       6.955  52.445   1.079  1.00  0.00     0.244 HD
ENDBRANCH  23  27
ENDBRANCH  21  22
ENDBRANCH  20  21
ENDBRANCH   7  20
TORSDOF 11
ENDMDL