MODEL 1
REMARK VINA RESULT: -6.137085438      0.000      0.000
REMARK  9 active torsions:
REMARK  status: ('A' for Active; 'I' for Inactive)
REMARK    1  A    between atoms: N1_2  and  N2_3
REMARK    2  A    between atoms: N1_2  and  S1_29
REMARK    3  A    between atoms: N3_5  and  C2_7
REMARK    4  A    between atoms: C3_8  and  N4_9
REMARK    5  A    between atoms: N4_9  and  C4_11
REMARK    6  A    between atoms: C4_11  and  C5_12
REMARK    7  A    between atoms: C5_12  and  O1_13
REMARK    8  A    between atoms: C6_15  and  C7_16
REMARK    9  A    between atoms: S1_29  and  N8_30
ROOT
HETATM    1  C2  UNL     1       0.089   4.929 -49.191  1.00  0.00     0.145 A
HETATM    2  C3  UNL     1       0.749   6.080 -49.547  1.00  0.00     0.079 A
HETATM    3  C6  UNL     1       0.096   7.317 -49.496  1.00  0.00     0.081 A
HETATM    4  C8  UNL     1      -1.245   7.307 -49.074  1.00  0.00     0.036 A
HETATM    5  N6  UNL     1      -1.831   6.142 -48.742  1.00  0.00    -0.290 N
HETATM    6  C9  UNL     1      -1.216   4.946 -48.783  1.00  0.00     0.280 A
HETATM    7  O3  UNL     1      -1.833   3.888 -48.452  1.00  0.00    -0.265 OA
HETATM    8  C10 UNL     1      -3.211   6.111 -48.304  1.00  0.00     0.364 C
HETATM    9  N7  UNL     1      -3.543   7.362 -47.704  1.00  0.00    -0.059 N
ATOM     10  H71 UNL     1      -2.973   7.545 -46.877  1.00  0.00     0.279 HD
ATOM     11  H72 UNL     1      -4.460   7.335 -47.259  1.00  0.00     0.279 HD
HETATM   12  C11 UNL     1      -3.450   8.444 -48.667  1.00  0.00     0.240 C
HETATM   13  C12 UNL     1      -1.970   8.584 -49.019  1.00  0.00     0.086 C
ENDROOT
BRANCH   1  14
HETATM   14  N3  UNL     1       0.774   3.677 -49.228  1.00  0.00    -0.278 N
HETATM   15  N2  UNL     1       1.162   3.086 -48.166  1.00  0.00    -0.230 N
ATOM     16  H2  UNL     1       0.999   3.486 -47.241  1.00  0.00     0.209 HD
ATOM     17  H3  UNL     1       0.958   3.241 -50.131  1.00  0.00     0.189 HD
BRANCH  15  18
HETATM   18  N1  UNL     1       1.821   1.867 -48.329  1.00  0.00    -0.192 N
HETATM   19  C1  UNL     1       1.594   0.834 -47.350  1.00  0.00     0.194 C
BRANCH  18  20
HETATM   20  S1  UNL     1       2.869   1.644 -49.675  1.00  0.00     0.333 S
HETATM   21  O4  UNL     1       3.438   2.967 -50.102  1.00  0.00    -0.181 OA
HETATM   22  O5  UNL     1       2.082   0.981 -50.760  1.00  0.00    -0.181 OA
BRANCH  20  23
HETATM   23  N8  UNL     1       4.202   0.657 -49.185  1.00  0.00    -0.310 N
ATOM     24  H82 UNL     1       4.279   0.188 -48.282  1.00  0.00     0.170 HD
ATOM     25  H81 UNL     1       4.884   0.626 -49.943  1.00  0.00     0.170 HD
ENDBRANCH  20  23
ENDBRANCH  18  20
ENDBRANCH  15  18
ENDBRANCH   1  14
BRANCH   2  26
HETATM   26  N4  UNL     1       2.096   5.950 -49.960  1.00  0.00    -0.385 N
ATOM     27  H4  UNL     1       2.284   5.791 -50.950  1.00  0.00     0.159 HD
BRANCH  26  28
HETATM   28  C4  UNL     1       3.214   6.030 -49.058  1.00  0.00     0.146 C
BRANCH  28  29
HETATM   29  C5  UNL     1       4.235   7.022 -49.441  1.00  0.00     0.183 C
BRANCH  29  30
HETATM   30  O1  UNL     1       3.837   8.032 -50.264  1.00  0.00    -0.399 OA
ATOM     31  H1  UNL     1       4.458   8.321 -50.922  1.00  0.00     0.209 HD
ENDBRANCH  29  30
ENDBRANCH  28  29
ENDBRANCH  26  28
ENDBRANCH   2  26
BRANCH   3  32
HETATM   32  C7  UNL     1       0.846   8.501 -49.775  1.00  0.00     0.269 C
HETATM   33  N5  UNL     1       0.982   9.124 -51.029  1.00  0.00    -0.057 NA
HETATM   34  O2  UNL     1       1.476   9.094 -48.823  1.00  0.00    -0.271 OA
ENDBRANCH   3  32
TORSDOF 9
ENDMDL