MODEL 5
REMARK VINA RESULT: -7.728547081      2.947      3.571
REMARK  11 active torsions:
REMARK  status: ('A' for Active; 'I' for Inactive)
REMARK    1  A    between atoms: C1_2  and  C2_4
REMARK    2  A    between atoms: C2_4  and  N2_5
REMARK    3  A    between atoms: N2_5  and  C3_7
REMARK    4  A    between atoms: C3_7  and  N3_9
REMARK    5  A    between atoms: N3_9  and  N4_11
REMARK    6  A    between atoms: C4_13  and  C5_14
REMARK    7  A    between atoms: C7_16  and  O2_17
REMARK    8  A    between atoms: C8_19  and  O3_20
REMARK    9  A    between atoms: O3_20  and  S2_21
REMARK   10  A    between atoms: S2_21  and  N5_22
REMARK   11  A    between atoms: C9_27  and  N6_28
ROOT
HETATM    1  C5  UNL     1       2.548   7.497 -49.341  1.00  0.00    -0.014 A
HETATM    2  C6  UNL     1       1.735   8.581 -49.680  1.00  0.00     0.052 A
HETATM    3  C7  UNL     1       0.505   8.290 -50.209  1.00  0.00     0.103 A
HETATM    4  C8  UNL     1       0.056   6.976 -50.411  1.00  0.00     0.157 A
HETATM    5  C9  UNL     1       0.870   5.928 -50.068  1.00  0.00     0.141 A
HETATM    6  C10 UNL     1       2.114   6.209 -49.534  1.00  0.00     0.052 A
ENDROOT
BRANCH   1   7
HETATM    7  C4  UNL     1       3.862   7.728 -48.771  1.00  0.00     0.118 C
HETATM    8  N4  UNL     1       4.194   8.920 -48.432  1.00  0.00    -0.309 N
ATOM      9  H4  UNL     1       3.508   9.660 -48.581  1.00  0.00     0.186 HD
BRANCH   8  10
HETATM   10  N3  UNL     1       5.418   9.282 -47.876  1.00  0.00    -0.277 N
ATOM     11  H3  UNL     1       5.456   9.697 -46.945  1.00  0.00     0.189 HD
BRANCH  10  12
HETATM   12  C3  UNL     1       6.598   9.072 -48.602  1.00  0.00     0.186 C
HETATM   13  S1  UNL     1       7.085  10.171 -49.688  1.00  0.00    -0.040 SA
BRANCH  12  14
HETATM   14  N2  UNL     1       7.374   7.913 -48.404  1.00  0.00    -0.358 N
ATOM     15  H2  UNL     1       7.258   7.133 -49.051  1.00  0.00     0.162 HD
BRANCH  14  16
HETATM   16  C2  UNL     1       8.330   7.777 -47.324  1.00  0.00     0.221 C
BRANCH  16  17
HETATM   17  C1  UNL     1       9.674   7.610 -47.888  1.00  0.00     0.248 C
HETATM   18  N1  UNL     1      10.435   8.727 -48.282  1.00  0.00    -0.061 NA
HETATM   19  O1  UNL     1      10.155   6.469 -48.025  1.00  0.00    -0.275 OA
ENDBRANCH  16  17
ENDBRANCH  14  16
ENDBRANCH  12  14
ENDBRANCH  10  12
ENDBRANCH   8  10
ENDBRANCH   1   7
BRANCH   3  20
HETATM   20  O2  UNL     1      -0.386   9.304 -50.583  1.00  0.00    -0.358 OA
ATOM     21  H2  UNL     1      -0.920   9.229 -51.365  1.00  0.00     0.217 HD
ENDBRANCH   3  20
BRANCH   5  22
HETATM   22  N6  UNL     1       0.526   4.561 -50.183  1.00  0.00    -0.113 N
HETATM   23  O6  UNL     1       0.421   3.904 -51.216  1.00  0.00    -0.532 OA
HETATM   24  O7  UNL     1       0.264   3.822 -49.013  1.00  0.00    -0.532 OA
ENDBRANCH   5  22
BRANCH   4  25
HETATM   25  O3  UNL     1      -1.206   6.757 -50.951  1.00  0.00    -0.211 OA
BRANCH  25  26
HETATM   26  S2  UNL     1      -2.579   6.627 -49.974  1.00  0.00     0.360 S
HETATM   27  O4  UNL     1      -3.740   6.201 -50.805  1.00  0.00    -0.176 OA
HETATM   28  O5  UNL     1      -2.900   8.012 -49.448  1.00  0.00    -0.176 OA
BRANCH  26  29
HETATM   29  N5  UNL     1      -2.379   5.559 -48.637  1.00  0.00    -0.305 N
ATOM     30  H52 UNL     1      -2.112   5.890 -47.710  1.00  0.00     0.171 HD
ATOM     31  H51 UNL     1      -2.552   4.580 -48.865  1.00  0.00     0.171 HD
ENDBRANCH  26  29
ENDBRANCH  25  26
ENDBRANCH   4  25
TORSDOF 11
ENDMDL