MODEL 3
REMARK VINA RESULT: -6.764819832      2.756      5.159
REMARK  10 active torsions:
REMARK  status: ('A' for Active; 'I' for Inactive)
REMARK    1  A    between atoms: C2_2  and  N1_3
REMARK    2  A    between atoms: N1_3  and  C3_4
REMARK    3  A    between atoms: N1_3  and  C10_18
REMARK    4  A    between atoms: C3_4  and  C4_5
REMARK    5  A    between atoms: C6_9  and  N3_10
REMARK    6  A    between atoms: N3_10  and  O1_12
REMARK    7  A    between atoms: C11_21  and  O3_22
REMARK    8  A    between atoms: C13_26  and  N7_27
REMARK    9  A    between atoms: C14_30  and  C15_31
REMARK       I    between atoms: C15_31  and  N8_33
REMARK   10  A    between atoms: N8_33  and  N9_34
ROOT
HETATM    1  C10 UNL     1      -0.125   7.019 -49.291  1.00  0.00     0.127 A
HETATM    2  N5  UNL     1       1.084   7.697 -49.416  1.00  0.00    -0.307 N
ATOM      3  H5  UNL     1       1.083   8.667 -49.734  1.00  0.00     0.171 HD
HETATM    4  C11 UNL     1       2.243   7.105 -49.127  1.00  0.00     0.226 A
HETATM    5  N6  UNL     1       2.293   5.834 -48.703  1.00  0.00    -0.307 N
ATOM      6  H6  UNL     1       3.187   5.397 -48.484  1.00  0.00     0.171 HD
HETATM    7  C13 UNL     1       1.139   5.140 -48.570  1.00  0.00     0.122 A
HETATM    8  C14 UNL     1      -0.094   5.731 -48.868  1.00  0.00     0.136 A
ENDROOT
BRANCH   1   9
HETATM    9  N1  UNL     1      -1.299   7.780 -49.542  1.00  0.00    -0.361 N
BRANCH   9  10
HETATM   10  C2  UNL     1      -2.006   8.604 -48.631  1.00  0.00     0.120 C
HETATM   11  C1  UNL     1      -3.351   7.996 -48.193  1.00  0.00     0.026 C
ENDBRANCH   9  10
BRANCH   9  12
HETATM   12  C3  UNL     1      -1.749   7.748 -50.920  1.00  0.00     0.183 C
BRANCH  12  13
HETATM   13  C4  UNL     1      -1.648   8.977 -51.694  1.00  0.00     0.047 A
HETATM   14  C5  UNL     1      -0.694   9.935 -51.587  1.00  0.00     0.117 A
HETATM   15  N2  UNL     1      -0.710  11.024 -52.355  1.00  0.00    -0.344 N
HETATM   16  C6  UNL     1      -1.689  11.216 -53.275  1.00  0.00     0.195 A
ATOM     17  H2  UNL     1       0.024  11.724 -52.251  1.00  0.00     0.167 HD
HETATM   18  C8  UNL     1      -2.669  10.252 -53.394  1.00  0.00     0.293 A
HETATM   19  O2  UNL     1      -3.603  10.410 -54.259  1.00  0.00    -0.264 OA
HETATM   20  N4  UNL     1      -2.641   9.166 -52.619  1.00  0.00    -0.316 N
HETATM   21  C9  UNL     1      -3.725   8.186 -52.782  1.00  0.00     0.159 C
BRANCH  16  22
HETATM   22  N3  UNL     1      -1.740  12.262 -54.039  1.00  0.00    -0.246 N
ATOM     23  H3  UNL     1      -1.966  12.168 -55.029  1.00  0.00     0.196 HD
BRANCH  22  24
HETATM   24  O1  UNL     1      -1.484  13.499 -53.498  1.00  0.00    -0.284 OA
HETATM   25  C7  UNL     1      -0.378  14.284 -53.824  1.00  0.00     0.237 C
ENDBRANCH  22  24
ENDBRANCH  16  22
ENDBRANCH  12  13
ENDBRANCH   9  12
ENDBRANCH   1   9
BRANCH   8  26
HETATM   26  C15 UNL     1      -1.257   4.819 -48.833  1.00  0.00     0.352 C
HETATM   27  O4  UNL     1      -1.506   4.231 -49.947  1.00  0.00    -0.249 OA
HETATM   28  N8  UNL     1      -1.984   4.645 -47.694  1.00  0.00    -0.288 NA
BRANCH  28  29
HETATM   29  N9  UNL     1      -2.698   4.474 -46.582  1.00  0.00    -0.276 N
ATOM     30  H92 UNL     1      -2.157   4.454 -47.447  1.00  0.00     0.191 HD
ATOM     31  H91 UNL     1      -3.244   4.345 -45.730  1.00  0.00     0.191 HD
ENDBRANCH  28  29
ENDBRANCH   8  26
BRANCH   4  32
HETATM   32  O3  UNL     1       3.403   7.872 -49.289  1.00  0.00    -0.327 OA
HETATM   33  C12 UNL     1       4.659   7.509 -48.764  1.00  0.00     0.213 C
ENDBRANCH   4  32
BRANCH   7  34
HETATM   34  N7  UNL     1       1.220   3.933 -48.158  1.00  0.00    -0.384 N
ATOM     35  H72 UNL     1       2.028   3.350 -48.373  1.00  0.00     0.157 HD
ATOM     36  H71 UNL     1       0.442   3.570 -47.608  1.00  0.00     0.157 HD
ENDBRANCH   7  34
TORSDOF 10
ENDMDL