MODEL 5
REMARK VINA RESULT: -7.415385165      1.961      2.633
REMARK  9 active torsions:
REMARK  status: ('A' for Active; 'I' for Inactive)
REMARK    1  A    between atoms: O1_2  and  N1_3
REMARK    2  A    between atoms: N1_3  and  C2_5
REMARK    3  A    between atoms: C4_12  and  O3_13
REMARK    4  A    between atoms: C5_15  and  C6_16
REMARK    5  A    between atoms: C6_16  and  C7_18
REMARK    6  A    between atoms: C7_18  and  N4_19
REMARK    7  A    between atoms: N4_19  and  S1_21
REMARK    8  A    between atoms: S1_21  and  C8_23
REMARK    9  A    between atoms: C10_29  and  O7_30
ROOT
HETATM    1  C6  UNL     1       5.601   8.523 -48.387  1.00  0.00     0.185 C
HETATM    2  O4  UNL     1       4.789   9.055 -47.575  1.00  0.00    -0.290 OA
ENDROOT
BRANCH   1   3
HETATM    3  C5  UNL     1       6.998   8.929 -48.328  1.00  0.00     0.108 A
HETATM    4  C2  UNL     1       7.902   8.180 -47.604  1.00  0.00     0.147 A
HETATM    5  N2  UNL     1       9.174   8.538 -47.536  1.00  0.00    -0.292 N
HETATM    6  C3  UNL     1       9.652   9.621 -48.151  1.00  0.00     0.327 A
ATOM      7  H2  UNL     1       9.815   7.962 -46.991  1.00  0.00     0.172 HD
HETATM    8  O2  UNL     1      10.880   9.920 -48.053  1.00  0.00    -0.247 OA
HETATM    9  N3  UNL     1       8.809  10.381 -48.867  1.00  0.00    -0.288 N
HETATM   10  C4  UNL     1       7.511  10.041 -48.953  1.00  0.00     0.162 A
ATOM     11  H3  UNL     1       9.153  11.214 -49.346  1.00  0.00     0.172 HD
BRANCH   4  12
HETATM   12  N1  UNL     1       7.503   7.125 -46.989  1.00  0.00    -0.250 N
ATOM     13  H1  UNL     1       6.507   6.986 -46.821  1.00  0.00     0.196 HD
BRANCH  12  14
HETATM   14  O1  UNL     1       8.391   6.195 -46.561  1.00  0.00    -0.284 OA
HETATM   15  C1  UNL     1       9.612   5.910 -47.187  1.00  0.00     0.237 C
ENDBRANCH  12  14
ENDBRANCH   4  12
BRANCH  10  16
HETATM   16  O3  UNL     1       6.695  10.851 -49.698  1.00  0.00    -0.345 OA
ATOM     17  H3  UNL     1       6.940  11.767 -49.773  1.00  0.00     0.219 HD
ENDBRANCH  10  16
ENDBRANCH   1   3
BRANCH   1  18
HETATM   18  C7  UNL     1       5.062   7.541 -49.322  1.00  0.00     0.214 C
BRANCH  18  19
HETATM   19  N4  UNL     1       4.010   6.787 -48.677  1.00  0.00    -0.329 N
ATOM     20  H4  UNL     1       4.160   6.100 -47.939  1.00  0.00     0.170 HD
BRANCH  19  21
HETATM   21  S1  UNL     1       2.430   7.219 -49.341  1.00  0.00     0.158 S
HETATM   22  O5  UNL     1       2.585   7.519 -50.802  1.00  0.00    -0.230 OA
BRANCH  21  23
HETATM   23  C8  UNL     1       1.388   5.792 -49.063  1.00  0.00     0.148 A
HETATM   24  S2  UNL     1      -0.212   5.710 -48.471  1.00  0.00    -0.013 SA
HETATM   25  C9  UNL     1      -0.411   4.017 -48.530  1.00  0.00     0.291 A
HETATM   26  O6  UNL     1      -1.422   3.296 -48.207  1.00  0.00    -0.260 OA
HETATM   27  N5  UNL     1       0.761   3.592 -49.000  1.00  0.00    -0.296 N
HETATM   28  C10 UNL     1       1.680   4.471 -49.276  1.00  0.00     0.173 A
ATOM     29  H5  UNL     1       0.934   2.596 -49.142  1.00  0.00     0.171 HD
BRANCH  28  30
HETATM   30  O7  UNL     1       2.965   4.124 -49.783  1.00  0.00    -0.339 OA
HETATM   31  C11 UNL     1       3.311   2.763 -49.958  1.00  0.00     0.211 C
ENDBRANCH  28  30
ENDBRANCH  21  23
ENDBRANCH  19  21
ENDBRANCH  18  19
ENDBRANCH   1  18
TORSDOF 9
ENDMDL