MODEL 5
REMARK VINA RESULT: -6.867936812      2.425      5.766
REMARK  11 active torsions:
REMARK  status: ('A' for Active; 'I' for Inactive)
REMARK    1  A    between atoms: O1_2  and  C2_3
REMARK       I    between atoms: C2_3  and  N1_5
REMARK    2  A    between atoms: N1_5  and  C3_7
REMARK    3  A    between atoms: C5_14  and  O4_15
REMARK    4  A    between atoms: C6_17  and  C7_18
REMARK    5  A    between atoms: C7_18  and  N4_19
REMARK    6  A    between atoms: C10_22  and  O5_23
REMARK    7  A    between atoms: O5_23  and  N5_24
REMARK    8  A    between atoms: N5_24  and  O6_26
REMARK    9  A    between atoms: N7_31  and  C12_33
REMARK   10  A    between atoms: C12_33  and  C13_34
REMARK   11  A    between atoms: C13_34  and  O7_35
ROOT
HETATM    1  N4  UNL     1       1.299   7.050 -49.218  1.00  0.00    -0.157 N
HETATM    2  C8  UNL     1       0.319   7.424 -50.055  1.00  0.00     0.083 A
HETATM    3  C9  UNL     1      -0.927   6.712 -50.477  1.00  0.00     0.074 C
HETATM    4  C10 UNL     1       0.620   8.650 -50.627  1.00  0.00     0.210 A
HETATM    5  N6  UNL     1       1.809   9.021 -50.126  1.00  0.00    -0.166 N
ATOM      6  H6  UNL     1       2.310   9.881 -50.351  1.00  0.00     0.186 HD
HETATM    7  C11 UNL     1       2.232   8.058 -49.269  1.00  0.00     0.690 A
HETATM    8  N7  UNL     1       3.302   8.103 -48.640  1.00  0.00    -0.203 N
ATOM      9  H7  UNL     1       3.387   7.264 -48.067  1.00  0.00     0.183 HD
ENDROOT
BRANCH   1  10
HETATM   10  C7  UNL     1       1.364   5.901 -48.385  1.00  0.00     0.135 C
BRANCH  10  11
HETATM   11  C6  UNL     1       1.532   4.576 -48.938  1.00  0.00     0.076 A
HETATM   12  C3  UNL     1       0.701   3.523 -48.697  1.00  0.00     0.129 A
HETATM   13  N2  UNL     1       0.948   2.339 -49.310  1.00  0.00    -0.293 N
HETATM   14  C4  UNL     1       1.985   2.173 -50.142  1.00  0.00     0.327 A
ATOM     15  H2  UNL     1       0.326   1.551 -49.131  1.00  0.00     0.172 HD
HETATM   16  O3  UNL     1       2.206   1.078 -50.700  1.00  0.00    -0.247 OA
HETATM   17  N3  UNL     1       2.812   3.197 -50.389  1.00  0.00    -0.288 N
HETATM   18  C5  UNL     1       2.619   4.378 -49.822  1.00  0.00     0.159 A
ATOM     19  H3  UNL     1       3.601   3.065 -51.023  1.00  0.00     0.172 HD
BRANCH  12  20
HETATM   20  N1  UNL     1      -0.321   3.550 -47.939  1.00  0.00    -0.287 N
HETATM   21  C2  UNL     1      -0.598   2.601 -46.932  1.00  0.00     0.365 C
HETATM   22  O2  UNL     1      -0.322   2.898 -45.742  1.00  0.00    -0.238 OA
ATOM     23  H1  UNL     1      -0.986   4.312 -48.068  1.00  0.00     0.172 HD
BRANCH  21  24
HETATM   24  O1  UNL     1      -1.158   1.352 -47.159  1.00  0.00    -0.309 OA
HETATM   25  C1  UNL     1      -2.497   1.043 -46.816  1.00  0.00     0.215 C
ENDBRANCH  21  24
ENDBRANCH  12  20
BRANCH  18  26
HETATM   26  O4  UNL     1       3.511   5.408 -50.125  1.00  0.00    -0.345 OA
ATOM     27  H4  UNL     1       3.167   6.290 -50.207  1.00  0.00     0.219 HD
ENDBRANCH  18  26
ENDBRANCH  10  11
ENDBRANCH   1  10
BRANCH   4  28
HETATM   28  O5  UNL     1      -0.119   9.403 -51.548  1.00  0.00    -0.196 OA
BRANCH  28  29
HETATM   29  N5  UNL     1      -1.138  10.234 -51.228  1.00  0.00    -0.167 N
ATOM     30  H5  UNL     1      -1.870   9.871 -50.618  1.00  0.00     0.224 HD
BRANCH  29  31
HETATM   31  O6  UNL     1      -1.246  11.416 -51.627  1.00  0.00    -0.269 OA
ATOM     32  H6  UNL     1      -2.070  11.873 -51.748  1.00  0.00     0.246 HD
ENDBRANCH  29  31
ENDBRANCH  28  29
ENDBRANCH   4  28
BRANCH   8  33
HETATM   33  C12 UNL     1       4.412   8.891 -48.448  1.00  0.00     0.105 C
BRANCH  33  34
HETATM   34  C13 UNL     1       5.783   8.327 -48.618  1.00  0.00     0.209 C
BRANCH  34  35
HETATM   35  O7  UNL     1       5.812   7.213 -49.455  1.00  0.00    -0.396 OA
ATOM     36  H7  UNL     1       6.429   7.304 -50.171  1.00  0.00     0.209 HD
ENDBRANCH  34  35
ENDBRANCH  33  34
ENDBRANCH   8  33
TORSDOF 11
ENDMDL