MODEL 2
REMARK VINA RESULT: -8.303285276      3.705      6.131
REMARK  11 active torsions:
REMARK  status: ('A' for Active; 'I' for Inactive)
REMARK    1  A    between atoms: C3_3  and  C4_4
REMARK    2  A    between atoms: C4_4  and  S1_5
REMARK    3  A    between atoms: S1_5  and  N1_6
REMARK    4  A    between atoms: S1_5  and  C5_10
REMARK    5  A    between atoms: C5_10  and  C6_11
REMARK    6  A    between atoms: C6_11  and  C7_12
REMARK    7  A    between atoms: C7_12  and  C8_13
REMARK    8  A    between atoms: C8_13  and  C9_14
REMARK    9  A    between atoms: N4_20  and  N5_22
REMARK   10  A    between atoms: N7_28  and  N8_30
REMARK   11  A    between atoms: C12_33  and  N9_34
ROOT
HETATM    1  C1  UNL     1      -2.233   5.773 -49.438  1.00  0.00     0.053 C
HETATM    2  C2  UNL     1      -0.941   5.033 -49.327  1.00  0.00    -0.003 C
HETATM    3  C3  UNL     1       0.229   5.369 -49.891  1.00  0.00    -0.008 C
HETATM    4  C11 UNL     1       1.241   4.393 -49.543  1.00  0.00     0.091 C
HETATM    5  N7  UNL     1       2.384   4.182 -50.096  1.00  0.00    -0.307 N
ATOM      6  H7  UNL     1       2.643   4.766 -50.890  1.00  0.00     0.186 HD
HETATM    7  C12 UNL     1       0.700   3.642 -48.382  1.00  0.00     0.317 C
HETATM    8  C13 UNL     1       1.065   2.227 -48.414  1.00  0.00     0.114 C
HETATM    9  N10 UNL     1       1.335   1.098 -48.434  1.00  0.00    -0.194 NA
HETATM   10  C14 UNL     1      -0.767   3.822 -48.576  1.00  0.00     0.212 C
HETATM   11  O2  UNL     1      -1.618   3.003 -48.125  1.00  0.00    -0.288 OA
ENDROOT
BRANCH   7  12
HETATM   12  N9  UNL     1       1.046   4.266 -47.125  1.00  0.00    -0.044 N
ATOM     13  H93 UNL     1       1.320   3.571 -46.430  1.00  0.00     0.277 HD
ATOM     14  H92 UNL     1       1.924   4.779 -47.196  1.00  0.00     0.277 HD
ATOM     15  H91 UNL     1       0.296   4.862 -46.776  1.00  0.00     0.277 HD
ENDBRANCH   7  12
BRANCH   3  16
HETATM   16  C4  UNL     1       0.413   6.564 -50.734  1.00  0.00     0.158 C
BRANCH  16  17
HETATM   17  S1  UNL     1       0.780   8.031 -49.819  1.00  0.00     0.023 S
HETATM   18  O1  UNL     1      -0.340   8.508 -48.975  1.00  0.00    -0.250 OA
BRANCH  17  19
HETATM   19  N1  UNL     1       1.171   9.210 -50.778  1.00  0.00    -0.360 N
ATOM     20  H12 UNL     1       2.120   9.374 -51.115  1.00  0.00     0.165 HD
ATOM     21  H11 UNL     1       0.357   9.778 -51.010  1.00  0.00     0.165 HD
ENDBRANCH  17  19
BRANCH  17  22
HETATM   22  C5  UNL     1       2.147   7.658 -48.737  1.00  0.00     0.117 C
BRANCH  22  23
HETATM   23  C6  UNL     1       3.407   7.580 -49.576  1.00  0.00     0.013 C
BRANCH  23  24
HETATM   24  C7  UNL     1       4.634   7.434 -48.707  1.00  0.00     0.005 C
BRANCH  24  25
HETATM   25  C8  UNL     1       4.883   8.692 -47.939  1.00  0.00     0.048 C
BRANCH  25  26
HETATM   26  C9  UNL     1       6.070   8.592 -47.000  1.00  0.00     0.200 A
HETATM   27  N2  UNL     1       6.870   7.436 -47.257  1.00  0.00    -0.310 N
HETATM   28  N3  UNL     1       8.048   7.769 -47.540  1.00  0.00    -0.273 N
ATOM     29  H2  UNL     1       6.532   6.475 -47.216  1.00  0.00     0.182 HD
HETATM   30  C10 UNL     1       8.238   9.166 -47.522  1.00  0.00     0.210 A
ATOM     31  H3  UNL     1       8.787   7.101 -47.759  1.00  0.00     0.189 HD
HETATM   32  N4  UNL     1       9.315   9.858 -47.762  1.00  0.00    -0.277 N
HETATM   33  N6  UNL     1       6.973   9.707 -47.176  1.00  0.00    -0.338 N
ATOM     34  H4  UNL     1       9.291  10.876 -47.708  1.00  0.00     0.189 HD
ATOM     35  H6  UNL     1       6.745  10.696 -47.071  1.00  0.00     0.164 HD
BRANCH  32  36
HETATM   36  N5  UNL     1      10.501   9.202 -48.093  1.00  0.00    -0.342 N
ATOM     37  H52 UNL     1      11.214   9.072 -47.374  1.00  0.00     0.176 HD
ATOM     38  H51 UNL     1      10.645   8.862 -49.044  1.00  0.00     0.176 HD
ENDBRANCH  32  36
ENDBRANCH  25  26
ENDBRANCH  24  25
ENDBRANCH  23  24
ENDBRANCH  22  23
ENDBRANCH  17  22
ENDBRANCH  16  17
ENDBRANCH   3  16
BRANCH   5  39
HETATM   39  N8  UNL     1       3.275   3.227 -49.690  1.00  0.00    -0.345 N
ATOM     40  H82 UNL     1       3.144   2.845 -48.753  1.00  0.00     0.176 HD
ATOM     41  H81 UNL     1       4.049   2.879 -50.258  1.00  0.00     0.176 HD
ENDBRANCH   5  39
TORSDOF 11
ENDMDL