MODEL 4
REMARK VINA RESULT: -6.738308120      1.128      1.286
REMARK  9 active torsions:
REMARK  status: ('A' for Active; 'I' for Inactive)
REMARK    1  A    between atoms: C2_3  and  C3_4
REMARK    2  A    between atoms: C4_5  and  C5_6
REMARK    3  A    between atoms: N4_11  and  C6_12
REMARK    4  A    between atoms: C7_13  and  C8_14
REMARK    5  A    between atoms: C8_14  and  S1_15
REMARK    6  A    between atoms: S1_15  and  N5_16
REMARK    7  A    between atoms: C9_23  and  N7_24
REMARK    8  A    between atoms: C11_31  and  N9_32
REMARK    9  A    between atoms: N9_32  and  C12_34
ROOT
HETATM    1  N1  UNL     1       7.216   7.143 -46.756  1.00  0.00    -0.197 NA
HETATM    2  C1  UNL     1       6.439   7.722 -47.420  1.00  0.00     0.062 C
HETATM    3  C2  UNL     1       5.465   8.454 -48.228  1.00  0.00     0.151 C
ENDROOT
BRANCH   3   4
HETATM    4  C3  UNL     1       4.329   7.536 -48.572  1.00  0.00    -0.010 C
HETATM    5  C4  UNL     1       3.385   7.849 -49.401  1.00  0.00     0.032 C
BRANCH   5   6
HETATM    6  C5  UNL     1       2.228   7.106 -49.852  1.00  0.00     0.095 A
HETATM    7  N2  UNL     1       1.689   7.444 -51.101  1.00  0.00    -0.282 N
HETATM    8  N3  UNL     1       0.636   6.716 -51.307  1.00  0.00    -0.233 N
ATOM      9  H2  UNL     1       2.061   8.145 -51.740  1.00  0.00     0.188 HD
HETATM   10  N4  UNL     1       0.404   5.906 -50.316  1.00  0.00    -0.216 N
ATOM     11  H3  UNL     1       0.059   6.771 -52.146  1.00  0.00     0.209 HD
HETATM   12  C11 UNL     1       1.423   6.141 -49.375  1.00  0.00     0.159 A
BRANCH  10  13
HETATM   13  C6  UNL     1      -0.605   4.951 -50.103  1.00  0.00     0.152 A
HETATM   14  C7  UNL     1      -0.347   3.615 -50.406  1.00  0.00     0.076 A
HETATM   15  N6  UNL     1      -1.310   2.702 -50.204  1.00  0.00    -0.192 N
HETATM   16  C9  UNL     1      -2.526   3.075 -49.709  1.00  0.00     0.679 A
ATOM     17  H6  UNL     1      -1.133   1.721 -50.422  1.00  0.00     0.184 HD
HETATM   18  N8  UNL     1      -2.793   4.353 -49.412  1.00  0.00    -0.154 N
HETATM   19  C10 UNL     1      -1.856   5.294 -49.601  1.00  0.00     0.290 A
ATOM     20  H8  UNL     1      -3.708   4.611 -49.044  1.00  0.00     0.187 HD
HETATM   21  O3  UNL     1      -2.062   6.520 -49.334  1.00  0.00    -0.265 OA
BRANCH  14  22
HETATM   22  C8  UNL     1       0.980   3.296 -50.939  1.00  0.00     0.223 C
BRANCH  22  23
HETATM   23  S1  UNL     1       1.143   1.699 -51.642  1.00  0.00     0.229 S
HETATM   24  O1  UNL     1       2.249   1.639 -52.663  1.00  0.00    -0.206 OA
HETATM   25  O2  UNL     1      -0.123   1.343 -52.385  1.00  0.00    -0.206 OA
BRANCH  23  26
HETATM   26  N5  UNL     1       1.484   0.499 -50.463  1.00  0.00    -0.328 N
ATOM     27  H52 UNL     1       1.754   0.722 -49.505  1.00  0.00     0.168 HD
ATOM     28  H51 UNL     1       1.386  -0.447 -50.833  1.00  0.00     0.168 HD
ENDBRANCH  23  26
ENDBRANCH  22  23
ENDBRANCH  14  22
BRANCH  16  29
HETATM   29  N7  UNL     1      -3.394   2.128 -49.546  1.00  0.00    -0.234 N
ATOM     30  H72 UNL     1      -3.125   1.148 -49.461  1.00  0.00     0.174 HD
ATOM     31  H71 UNL     1      -4.372   2.414 -49.507  1.00  0.00     0.174 HD
ENDBRANCH  16  29
ENDBRANCH  10  13
BRANCH  12  32
HETATM   32  N9  UNL     1       1.579   5.266 -48.283  1.00  0.00    -0.317 N
ATOM     33  H9  UNL     1       2.457   4.749 -48.328  1.00  0.00     0.169 HD
BRANCH  32  34
HETATM   34  C12 UNL     1       0.842   4.935 -47.171  1.00  0.00     0.354 C
HETATM   35  O4  UNL     1       0.134   3.940 -46.922  1.00  0.00    -0.283 OA
ENDBRANCH  32  34
ENDBRANCH  12  32
ENDBRANCH   5   6
ENDBRANCH   3   4
TORSDOF 9
ENDMDL