MODEL 3
REMARK VINA RESULT: -8.834877052      0.938      1.147
REMARK  14 active torsions:
REMARK  status: ('A' for Active; 'I' for Inactive)
REMARK    1  A    between atoms: O1_2  and  C2_3
REMARK    2  A    between atoms: C2_3  and  C3_5
REMARK    3  A    between atoms: C6_8  and  N1_9
REMARK       I    between atoms: N1_9  and  C7_11
REMARK    4  A    between atoms: C7_11  and  O4_13
REMARK    5  A    between atoms: O4_13  and  C8_14
REMARK    6  A    between atoms: C8_14  and  C9_15
REMARK    7  A    between atoms: C9_15  and  O5_16
REMARK    8  A    between atoms: C9_15  and  C10_18
REMARK    9  A    between atoms: C10_18  and  C11_20
REMARK   10  A    between atoms: C11_20  and  N2_21
REMARK   11  A    between atoms: C11_20  and  C12_25
REMARK       I    between atoms: C12_25  and  N3_27
REMARK   12  A    between atoms: N3_27  and  N4_29
REMARK   13  A    between atoms: N4_29  and  C13_30
REMARK   14  A    between atoms: C13_30  and  O8_32
ROOT
HETATM    1  C9  UNL     1       0.458   8.209 -50.505  1.00  0.00     0.214 C
ENDROOT
BRANCH   1   2
HETATM    2  C8  UNL     1       1.040   7.505 -49.308  1.00  0.00     0.220 C
BRANCH   2   3
HETATM    3  O4  UNL     1       1.959   8.317 -48.649  1.00  0.00    -0.301 OA
BRANCH   3   4
HETATM    4  C7  UNL     1       3.358   8.126 -48.700  1.00  0.00     0.365 C
HETATM    5  N1  UNL     1       4.217   8.984 -47.977  1.00  0.00    -0.303 N
ATOM      6  H1  UNL     1       3.824   9.767 -47.453  1.00  0.00     0.171 HD
HETATM    7  O3  UNL     1       3.774   7.196 -49.386  1.00  0.00    -0.238 OA
BRANCH   5   8
HETATM    8  C6  UNL     1       5.603   8.773 -47.972  1.00  0.00     0.036 A
HETATM    9  C5  UNL     1       6.150   7.884 -47.090  1.00  0.00     0.030 A
HETATM   10  C4  UNL     1       7.536   7.609 -47.099  1.00  0.00     0.020 A
HETATM   11  C3  UNL     1       8.336   8.253 -48.016  1.00  0.00     0.039 A
HETATM   12  C16 UNL     1       7.766   9.140 -48.890  1.00  0.00     0.020 A
HETATM   13  C15 UNL     1       6.388   9.425 -48.894  1.00  0.00     0.030 A
BRANCH  11  14
HETATM   14  C2  UNL     1       9.768   7.957 -48.060  1.00  0.00     0.292 C
HETATM   15  O2  UNL     1      10.661   8.807 -47.933  1.00  0.00    -0.259 OA
BRANCH  14  16
HETATM   16  O1  UNL     1      10.143   6.621 -48.258  1.00  0.00    -0.323 OA
HETATM   17  C1  UNL     1      10.270   5.697 -47.180  1.00  0.00     0.213 C
ENDBRANCH  14  16
ENDBRANCH  11  14
ENDBRANCH   5   8
ENDBRANCH   3   4
ENDBRANCH   2   3
ENDBRANCH   1   2
BRANCH   1  18
HETATM   18  O5  UNL     1       1.136   9.347 -50.889  1.00  0.00    -0.386 OA
ATOM     19  H5  UNL     1       0.615   9.972 -51.378  1.00  0.00     0.210 HD
ENDBRANCH   1  18
BRANCH   1  20
HETATM   20  C10 UNL     1      -0.954   8.595 -50.173  1.00  0.00     0.197 C
HETATM   21  O6  UNL     1      -1.238   8.954 -49.039  1.00  0.00    -0.292 OA
BRANCH  20  22
HETATM   22  C11 UNL     1      -2.038   8.560 -51.189  1.00  0.00     0.348 C
BRANCH  22  23
HETATM   23  N2  UNL     1      -3.358   8.673 -50.658  1.00  0.00    -0.059 N
ATOM     24  H23 UNL     1      -3.373   8.382 -49.681  1.00  0.00     0.275 HD
ATOM     25  H22 UNL     1      -3.614   9.655 -50.554  1.00  0.00     0.275 HD
ATOM     26  H21 UNL     1      -4.075   8.176 -51.186  1.00  0.00     0.275 HD
ENDBRANCH  22  23
BRANCH  22  27
HETATM   27  C12 UNL     1      -1.856   9.669 -52.148  1.00  0.00     0.284 C
HETATM   28  O7  UNL     1      -2.170   9.510 -53.366  1.00  0.00    -0.268 OA
HETATM   29  N3  UNL     1      -1.315  10.917 -51.669  1.00  0.00    -0.199 N
ATOM     30  H3  UNL     1      -1.073  11.007 -50.682  1.00  0.00     0.205 HD
BRANCH  29  31
HETATM   31  N4  UNL     1      -1.115  11.988 -52.507  1.00  0.00    -0.302 NA
BRANCH  31  32
HETATM   32  C13 UNL     1      -0.928  12.993 -53.291  1.00  0.00     0.210 C
HETATM   33  C14 UNL     1      -1.948  13.218 -54.456  1.00  0.00     0.117 C
BRANCH  32  34
HETATM   34  O8  UNL     1      -0.043  13.941 -53.387  1.00  0.00    -0.338 OA
ATOM     35  H8  UNL     1       0.521  14.274 -54.076  1.00  0.00     0.220 HD
ENDBRANCH  32  34
ENDBRANCH  31  32
ENDBRANCH  29  31
ENDBRANCH  22  27
ENDBRANCH  20  22
ENDBRANCH   1  20
TORSDOF 14
ENDMDL