MODEL 5
REMARK VINA RESULT: -8.348287954      1.836      5.849
REMARK  8 active torsions:
REMARK  status: ('A' for Active; 'I' for Inactive)
REMARK    1  A    between atoms: O1_2  and  C2_3
REMARK    2  A    between atoms: C3_4  and  C4_5
REMARK       I    between atoms: C4_5  and  N1_7
REMARK    3  A    between atoms: C8_11  and  N2_12
REMARK    4  A    between atoms: N2_12  and  C9_14
REMARK    5  A    between atoms: C9_14  and  C10_15
REMARK    6  A    between atoms: C11_24  and  N7_25
REMARK    7  A    between atoms: N7_25  and  C12_27
REMARK    8  A    between atoms: C14_36  and  O4_37
ROOT
HETATM    1  C2  UNL     1      -0.079   5.658 -50.118  1.00  0.00     0.119 A
HETATM    2  C3  UNL     1       0.290   6.969 -49.921  1.00  0.00     0.070 A
HETATM    3  C7  UNL     1       1.646   7.224 -49.719  1.00  0.00     0.051 A
HETATM    4  C8  UNL     1       2.589   6.230 -49.713  1.00  0.00     0.060 A
HETATM    5  C11 UNL     1       2.187   4.928 -49.913  1.00  0.00     0.111 A
HETATM    6  C14 UNL     1       0.856   4.613 -50.120  1.00  0.00     0.132 A
ENDROOT
BRANCH   4   7
HETATM    7  N2  UNL     1       3.946   6.561 -49.495  1.00  0.00    -0.381 N
ATOM      8  H2  UNL     1       4.619   6.244 -50.191  1.00  0.00     0.160 HD
BRANCH   7   9
HETATM    9  C9  UNL     1       4.459   7.302 -48.383  1.00  0.00     0.199 C
BRANCH   9  10
HETATM   10  C10 UNL     1       5.301   8.456 -48.758  1.00  0.00     0.131 A
HETATM   11  N3  UNL     1       5.871   8.776 -49.928  1.00  0.00    -0.271 N
HETATM   12  N4  UNL     1       6.524   9.902 -49.760  1.00  0.00    -0.227 N
ATOM     13  H3  UNL     1       5.808   8.241 -50.795  1.00  0.00     0.190 HD
HETATM   14  N5  UNL     1       6.383  10.311 -48.500  1.00  0.00    -0.227 N
ATOM     15  H4  UNL     1       7.057  10.388 -50.482  1.00  0.00     0.210 HD
HETATM   16  N6  UNL     1       5.637   9.428 -47.894  1.00  0.00    -0.271 N
ATOM     17  H5  UNL     1       6.782  11.155 -48.088  1.00  0.00     0.210 HD
ATOM     18  H6  UNL     1       5.354   9.469 -46.915  1.00  0.00     0.190 HD
ENDBRANCH   9  10
ENDBRANCH   7   9
ENDBRANCH   4   7
BRANCH   5  19
HETATM   19  N7  UNL     1       3.191   3.894 -49.903  1.00  0.00    -0.185 N
ATOM     20  H7  UNL     1       4.127   4.092 -50.256  1.00  0.00     0.184 HD
BRANCH  19  21
HETATM   21  C12 UNL     1       2.909   2.710 -49.445  1.00  0.00     0.701 A
HETATM   22  N8  UNL     1       3.157   1.526 -50.049  1.00  0.00    -0.128 N
HETATM   23  N9  UNL     1       2.720   0.528 -49.264  1.00  0.00    -0.237 N
ATOM     24  H8  UNL     1       3.605   1.409 -50.957  1.00  0.00     0.205 HD
HETATM   25  C13 UNL     1       2.185   1.055 -48.144  1.00  0.00     0.353 A
ATOM     26  H9  UNL     1       2.784  -0.467 -49.480  1.00  0.00     0.192 HD
HETATM   27  O3  UNL     1       1.686   0.382 -47.206  1.00  0.00    -0.245 OA
HETATM   28  N10 UNL     1       2.316   2.384 -48.287  1.00  0.00    -0.139 N
ATOM     29  H10 UNL     1       2.001   3.064 -47.596  1.00  0.00     0.189 HD
ENDBRANCH  19  21
ENDBRANCH   5  19
BRANCH   2  30
HETATM   30  C4  UNL     1      -0.679   8.071 -49.931  1.00  0.00     0.256 C
HETATM   31  O2  UNL     1      -1.191   8.416 -48.808  1.00  0.00    -0.267 OA
HETATM   32  N1  UNL     1      -1.079   8.768 -51.074  1.00  0.00    -0.357 N
HETATM   33  C5  UNL     1      -0.510   8.411 -52.357  1.00  0.00     0.152 C
HETATM   34  C6  UNL     1      -2.052   9.831 -50.966  1.00  0.00     0.152 C
ENDBRANCH   2  30
BRANCH   6  35
HETATM   35  O4  UNL     1       0.464   3.297 -50.322  1.00  0.00    -0.351 OA
HETATM   36  C15 UNL     1       0.281   2.758 -51.617  1.00  0.00     0.210 C
ENDBRANCH   6  35
BRANCH   1  37
HETATM   37  O1  UNL     1      -1.397   5.298 -50.327  1.00  0.00    -0.352 OA
HETATM   38  C1  UNL     1      -2.323   4.930 -49.351  1.00  0.00     0.210 C
ENDBRANCH   1  37
TORSDOF 8
ENDMDL