MODEL 1
REMARK VINA RESULT: -8.411512463      0.000      0.000
REMARK  10 active torsions:
REMARK  status: ('A' for Active; 'I' for Inactive)
REMARK    1  A    between atoms: C3_5  and  C4_6
REMARK    2  A    between atoms: N2_7  and  N3_9
REMARK       I    between atoms: N3_9  and  C6_11
REMARK    3  A    between atoms: C6_11  and  O2_13
REMARK    4  A    between atoms: O2_13  and  C7_14
REMARK    5  A    between atoms: C7_14  and  C8_15
REMARK       I    between atoms: C8_15  and  N4_17
REMARK    6  A    between atoms: N4_17  and  C9_19
REMARK    7  A    between atoms: C9_19  and  C10_20
REMARK    8  A    between atoms: C10_20  and  O4_21
REMARK    9  A    between atoms: O4_21  and  N5_22
REMARK   10  A    between atoms: C13_30  and  N7_31
ROOT
HETATM    1  C1  UNL     1       0.667   3.364 -45.390  1.00  0.00     0.089 C
HETATM    2  C2  UNL     1       0.494   3.119 -46.869  1.00  0.00     0.079 A
HETATM    3  N1  UNL     1       1.474   3.387 -47.722  1.00  0.00    -0.344 N
ATOM      4  H1  UNL     1       2.340   3.764 -47.336  1.00  0.00     0.167 HD
HETATM    5  C3  UNL     1       1.420   3.202 -49.073  1.00  0.00     0.070 A
HETATM    6  C11 UNL     1       0.210   2.689 -49.519  1.00  0.00     0.105 A
HETATM    7  C12 UNL     1      -0.012   2.444 -50.839  1.00  0.00     0.276 A
HETATM    8  O5  UNL     1       0.877   2.679 -51.679  1.00  0.00    -0.267 OA
HETATM    9  N6  UNL     1      -1.210   1.942 -51.231  1.00  0.00    -0.155 N
ATOM     10  H6  UNL     1      -1.348   1.767 -52.227  1.00  0.00     0.187 HD
HETATM   11  C13 UNL     1      -2.219   1.660 -50.407  1.00  0.00     0.680 A
HETATM   12  N8  UNL     1      -2.026   1.891 -49.104  1.00  0.00    -0.176 N
ATOM     13  H8  UNL     1      -2.773   1.688 -48.439  1.00  0.00     0.186 HD
HETATM   14  C14 UNL     1      -0.846   2.393 -48.659  1.00  0.00     0.140 A
HETATM   15  N9  UNL     1      -0.656   2.625 -47.348  1.00  0.00    -0.331 N
ATOM     16  H9  UNL     1      -1.413   2.418 -46.697  1.00  0.00     0.168 HD
ENDROOT
BRANCH   5  17
HETATM   17  C4  UNL     1       2.551   3.530 -49.904  1.00  0.00     0.138 C
HETATM   18  N2  UNL     1       2.841   4.730 -50.186  1.00  0.00    -0.304 N
ATOM     19  H2  UNL     1       3.662   4.847 -50.780  1.00  0.00     0.186 HD
BRANCH  18  20
HETATM   20  N3  UNL     1       2.232   5.876 -49.820  1.00  0.00    -0.241 N
HETATM   21  C5  UNL     1       0.828   6.159 -50.167  1.00  0.00     0.183 C
HETATM   22  C6  UNL     1       2.880   6.899 -49.042  1.00  0.00     0.381 C
HETATM   23  O1  UNL     1       2.328   7.964 -48.698  1.00  0.00    -0.236 OA
BRANCH  22  24
HETATM   24  O2  UNL     1       4.185   6.696 -48.654  1.00  0.00    -0.293 OA
BRANCH  24  25
HETATM   25  C7  UNL     1       5.205   7.635 -48.869  1.00  0.00     0.283 C
BRANCH  25  26
HETATM   26  C8  UNL     1       5.884   7.910 -47.548  1.00  0.00     0.242 C
HETATM   27  O3  UNL     1       6.658   7.050 -47.134  1.00  0.00    -0.271 OA
HETATM   28  N4  UNL     1       5.607   9.105 -46.873  1.00  0.00    -0.357 N
ATOM     29  H4  UNL     1       4.951   9.736 -47.334  1.00  0.00     0.162 HD
BRANCH  28  30
HETATM   30  C9  UNL     1       6.124   9.546 -45.627  1.00  0.00     0.151 C
BRANCH  30  31
HETATM   31  C10 UNL     1       7.516  10.105 -45.652  1.00  0.00     0.220 C
BRANCH  31  32
HETATM   32  O4  UNL     1       7.568  11.469 -45.659  1.00  0.00    -0.286 OA
BRANCH  32  33
HETATM   33  N5  UNL     1       7.795  11.958 -46.879  1.00  0.00    -0.311 N
ATOM     34  H52 UNL     1       8.709  11.926 -47.330  1.00  0.00     0.184 HD
ATOM     35  H51 UNL     1       6.956  12.361 -47.296  1.00  0.00     0.184 HD
ENDBRANCH  32  33
ENDBRANCH  31  32
ENDBRANCH  30  31
ENDBRANCH  28  30
ENDBRANCH  25  26
ENDBRANCH  24  25
ENDBRANCH  22  24
ENDBRANCH  18  20
ENDBRANCH   5  17
BRANCH  11  36
HETATM   36  N7  UNL     1      -3.354   1.176 -50.845  1.00  0.00    -0.234 N
ATOM     37  H72 UNL     1      -3.756   1.496 -51.727  1.00  0.00     0.174 HD
ATOM     38  H71 UNL     1      -3.875   0.469 -50.325  1.00  0.00     0.174 HD
ENDBRANCH  11  36
TORSDOF 10
ENDMDL