MODEL 1
REMARK VINA RESULT: -8.797698373      0.000      0.000
REMARK  9 active torsions:
REMARK  status: ('A' for Active; 'I' for Inactive)
REMARK    1  A    between atoms: C3_3  and  C4_4
REMARK    2  A    between atoms: C4_4  and  N1_5
REMARK    3  A    between atoms: C10_12  and  O1_13
REMARK    4  A    between atoms: O1_13  and  C11_14
REMARK    5  A    between atoms: C11_14  and  C12_15
REMARK    6  A    between atoms: C12_15  and  C13_16
REMARK    7  A    between atoms: C13_16  and  N2_17
REMARK    8  A    between atoms: N3_23  and  C19_24
REMARK    9  A    between atoms: C19_24  and  C20_25
ROOT
HETATM    1  C12 UNL     1      42.804  37.806 -56.212  1.00  0.00     0.057 C
ENDROOT
BRANCH   1   2
HETATM    2  C11 UNL     1      41.436  37.354 -56.701  1.00  0.00     0.177 C
BRANCH   2   3
HETATM    3  O1  UNL     1      40.408  38.143 -56.119  1.00  0.00    -0.351 OA
BRANCH   3   4
HETATM    4  C10 UNL     1      39.644  37.700 -55.059  1.00  0.00     0.069 A
HETATM    5  C9  UNL     1      38.878  38.502 -54.244  1.00  0.00     0.045 A
HETATM    6  C3  UNL     1      38.129  38.044 -53.199  1.00  0.00    -0.028 A
HETATM    7  C2  UNL     1      38.161  36.671 -52.967  1.00  0.00     0.009 A
HETATM    8  C1  UNL     1      38.906  35.811 -53.742  1.00  0.00     0.003 A
HETATM    9  C25 UNL     1      39.636  36.357 -54.781  1.00  0.00     0.037 A
BRANCH   6  10
HETATM   10  C4  UNL     1      37.279  38.866 -52.319  1.00  0.00     0.311 C
BRANCH  10  11
HETATM   11  N1  UNL     1      37.411  38.474 -50.913  1.00  0.00     0.094 N
HETATM   12  C5  UNL     1      36.190  38.885 -50.198  1.00  0.00     0.283 C
HETATM   13  C6  UNL     1      36.011  37.846 -49.095  1.00  0.00     0.104 C
HETATM   14  S1  UNL     1      37.457  37.968 -48.010  1.00  0.00    -0.166 SA
HETATM   15  C7  UNL     1      38.851  38.550 -48.973  1.00  0.00     0.104 C
HETATM   16  C8  UNL     1      38.479  39.216 -50.270  1.00  0.00     0.283 C
ENDBRANCH  10  11
ENDBRANCH   6  10
ENDBRANCH   3   4
ENDBRANCH   2   3
ENDBRANCH   1   2
BRANCH   1  17
HETATM   17  C13 UNL     1      43.192  38.991 -57.051  1.00  0.00     0.277 C
BRANCH  17  18
HETATM   18  N2  UNL     1      43.640  40.128 -56.320  1.00  0.00     0.108 N
HETATM   19  C14 UNL     1      43.360  41.392 -56.968  1.00  0.00     0.306 C
HETATM   20  C15 UNL     1      44.704  42.109 -57.122  1.00  0.00     0.153 C
HETATM   21  C16 UNL     1      45.864  41.164 -57.009  1.00  0.00     0.071 C
HETATM   22  O3  UNL     1      44.991  42.677 -55.905  1.00  0.00    -0.373 OA
HETATM   23  C17 UNL     1      45.975  41.772 -55.603  1.00  0.00     0.163 C
HETATM   24  C18 UNL     1      45.564  40.688 -54.632  1.00  0.00     0.097 C
HETATM   25  N3  UNL     1      44.281  40.770 -54.098  1.00  0.00    -0.343 N
HETATM   26  C24 UNL     1      43.257  40.137 -54.923  1.00  0.00     0.401 C
BRANCH  25  27
HETATM   27  C19 UNL     1      43.819  41.800 -53.292  1.00  0.00     0.097 C
BRANCH  27  28
HETATM   28  C20 UNL     1      42.365  42.084 -53.175  1.00  0.00     0.160 C
HETATM   29  C21 UNL     1      41.760  42.028 -51.811  1.00  0.00     0.039 C
HETATM   30  C22 UNL     1      42.489  43.156 -51.107  1.00  0.00     0.029 C
HETATM   31  C23 UNL     1      42.712  44.113 -52.265  1.00  0.00     0.168 C
HETATM   32  O2  UNL     1      42.241  43.501 -53.398  1.00  0.00    -0.381 OA
ENDBRANCH  27  28
ENDBRANCH  25  27
ENDBRANCH  17  18
ENDBRANCH   1  17
TORSDOF 9
ENDMDL