MODEL 3
REMARK VINA RESULT: -8.223038194      2.025      6.547
REMARK  10 active torsions:
REMARK  status: ('A' for Active; 'I' for Inactive)
REMARK    1  A    between atoms: C2_2  and  C3_3
REMARK    2  A    between atoms: C3_3  and  C4_4
REMARK    3  A    between atoms: C4_4  and  C5_5
REMARK    4  A    between atoms: C5_5  and  C6_6
REMARK    5  A    between atoms: C6_6  and  O2_8
REMARK    6  A    between atoms: O2_8  and  C7_9
REMARK    7  A    between atoms: N1_14  and  C11_15
REMARK    8  A    between atoms: C11_15  and  C12_16
REMARK    9  A    between atoms: C12_16  and  C13_17
REMARK   10  A    between atoms: C13_17  and  C14_18
ROOT
HETATM    1  C5  UNL     1      41.899  40.394 -53.691  1.00  0.00     0.089 C
HETATM    2  C9  UNL     1      43.252  40.973 -53.904  1.00  0.00     0.126 C
HETATM    3  C10 UNL     1      42.937  41.928 -55.029  1.00  0.00     0.222 C
HETATM    4  O3  UNL     1      43.502  43.052 -55.098  1.00  0.00    -0.273 OA
HETATM    5  N1  UNL     1      41.982  41.328 -55.871  1.00  0.00    -0.333 N
HETATM    6  C19 UNL     1      41.356  40.264 -55.119  1.00  0.00     0.126 C
HETATM    7  C20 UNL     1      41.945  39.013 -55.709  1.00  0.00     0.180 C
HETATM    8  S1  UNL     1      40.866  37.692 -56.047  1.00  0.00     0.147 S
HETATM    9  O4  UNL     1      40.612  36.740 -54.948  1.00  0.00    -0.228 OA
HETATM   10  O5  UNL     1      41.388  36.865 -57.216  1.00  0.00    -0.228 OA
HETATM   11  C21 UNL     1      39.283  38.382 -56.527  1.00  0.00     0.148 C
HETATM   12  C22 UNL     1      38.925  39.231 -55.298  1.00  0.00     0.096 C
HETATM   13  C23 UNL     1      39.895  40.310 -55.095  1.00  0.00     0.158 C
HETATM   14  O6  UNL     1      39.382  41.411 -54.871  1.00  0.00    -0.295 OA
ENDROOT
BRANCH   1  15
HETATM   15  C4  UNL     1      41.075  41.377 -52.888  1.00  0.00     0.023 C
BRANCH  15  16
HETATM   16  C3  UNL     1      41.952  42.003 -51.834  1.00  0.00     0.001 C
BRANCH  16  17
HETATM   17  C2  UNL     1      41.825  43.529 -51.878  1.00  0.00    -0.005 C
HETATM   18  C1  UNL     1      42.221  44.160 -50.587  1.00  0.00     0.005 C
ENDBRANCH  16  17
ENDBRANCH  15  16
ENDBRANCH   1  15
BRANCH   1  19
HETATM   19  C6  UNL     1      41.854  39.135 -52.922  1.00  0.00     0.271 C
HETATM   20  O1  UNL     1      42.849  38.367 -52.852  1.00  0.00    -0.264 OA
BRANCH  19  21
HETATM   21  O2  UNL     1      40.719  38.752 -52.248  1.00  0.00    -0.321 OA
BRANCH  21  22
HETATM   22  C7  UNL     1      40.814  38.357 -50.895  1.00  0.00     0.174 C
HETATM   23  C8  UNL     1      39.798  39.183 -50.119  1.00  0.00     0.034 C
ENDBRANCH  21  22
ENDBRANCH  19  21
ENDBRANCH   1  19
BRANCH   5  24
HETATM   24  C11 UNL     1      41.822  41.786 -57.226  1.00  0.00     0.127 C
BRANCH  24  25
HETATM   25  C12 UNL     1      42.828  41.444 -58.230  1.00  0.00     0.020 C
BRANCH  25  26
HETATM   26  C13 UNL     1      43.729  42.642 -58.476  1.00  0.00     0.006 C
BRANCH  26  27
HETATM   27  C14 UNL     1      45.183  42.340 -58.355  1.00  0.00    -0.014 C
HETATM   28  C15 UNL     1      45.950  43.287 -57.463  1.00  0.00     0.004 C
HETATM   29  C16 UNL     1      46.448  42.493 -56.276  1.00  0.00     0.000 C
HETATM   30  C17 UNL     1      46.597  41.115 -56.825  1.00  0.00     0.000 C
HETATM   31  C18 UNL     1      45.382  40.978 -57.711  1.00  0.00     0.004 C
ENDBRANCH  26  27
ENDBRANCH  25  26
ENDBRANCH  24  25
ENDBRANCH   5  24
TORSDOF 10
ENDMDL