MODEL 2
REMARK VINA RESULT: -8.197483208      1.442      5.553
REMARK  11 active torsions:
REMARK  status: ('A' for Active; 'I' for Inactive)
REMARK    1  A    between atoms: N1_2  and  C2_3
REMARK    2  A    between atoms: N1_2  and  C10_12
REMARK    3  A    between atoms: C2_3  and  C3_4
REMARK    4  A    between atoms: C3_4  and  C4_5
REMARK    5  A    between atoms: C4_5  and  N2_6
REMARK    6  A    between atoms: C10_12  and  C11_13
REMARK    7  A    between atoms: C10_12  and  C17_21
REMARK    8  A    between atoms: C11_13  and  C12_14
REMARK    9  A    between atoms: C12_14  and  O2_16
REMARK   10  A    between atoms: O2_16  and  C13_17
REMARK   11  A    between atoms: C17_21  and  N3_22
ROOT
HETATM    1  C10 UNL     1      41.625  39.466 -55.013  1.00  0.00     0.250 C
ENDROOT
BRANCH   1   2
HETATM    2  N1  UNL     1      41.149  38.554 -54.029  1.00  0.00     0.091 N
HETATM    3  C1  UNL     1      41.524  37.172 -54.352  1.00  0.00     0.310 C
BRANCH   2   4
HETATM    4  C2  UNL     1      41.672  38.870 -52.695  1.00  0.00     0.274 C
BRANCH   4   5
HETATM    5  C3  UNL     1      40.597  39.306 -51.755  1.00  0.00     0.060 C
BRANCH   5   6
HETATM    6  C4  UNL     1      40.822  38.950 -50.310  1.00  0.00     0.274 C
BRANCH   6   7
HETATM    7  N2  UNL     1      39.532  38.546 -49.761  1.00  0.00     0.088 N
HETATM    8  C5  UNL     1      38.995  39.547 -48.861  1.00  0.00     0.272 C
HETATM    9  C6  UNL     1      37.821  38.853 -48.152  1.00  0.00     0.030 C
HETATM   10  C7  UNL     1      36.711  38.646 -49.189  1.00  0.00     0.003 C
HETATM   11  C8  UNL     1      37.225  38.909 -50.579  1.00  0.00     0.030 C
HETATM   12  C9  UNL     1      38.584  38.296 -50.831  1.00  0.00     0.272 C
ENDBRANCH   6   7
ENDBRANCH   5   6
ENDBRANCH   4   5
ENDBRANCH   2   4
ENDBRANCH   1   2
BRANCH   1  13
HETATM   13  C11 UNL     1      40.628  40.208 -55.844  1.00  0.00     0.148 C
BRANCH  13  14
HETATM   14  C12 UNL     1      39.735  41.153 -55.205  1.00  0.00     0.261 C
HETATM   15  O1  UNL     1      40.196  41.859 -54.241  1.00  0.00    -0.265 OA
BRANCH  14  16
HETATM   16  O2  UNL     1      38.412  41.380 -55.526  1.00  0.00    -0.311 OA
BRANCH  16  17
HETATM   17  C13 UNL     1      37.353  40.509 -55.259  1.00  0.00     0.060 C
HETATM   18  C14 UNL     1      36.935  39.894 -56.597  1.00  0.00     0.045 C
HETATM   19  C15 UNL     1      37.672  39.407 -54.276  1.00  0.00     0.045 C
HETATM   20  C16 UNL     1      36.169  41.275 -54.731  1.00  0.00     0.045 C
ENDBRANCH  16  17
ENDBRANCH  14  16
ENDBRANCH  13  14
ENDBRANCH   1  13
BRANCH   1  21
HETATM   21  C17 UNL     1      42.629  38.899 -55.933  1.00  0.00     0.171 C
BRANCH  21  22
HETATM   22  N3  UNL     1      43.358  39.752 -56.789  1.00  0.00    -0.286 N
HETATM   23  C18 UNL     1      43.478  39.785 -58.209  1.00  0.00     0.227 C
HETATM   24  O3  UNL     1      42.576  39.398 -58.971  1.00  0.00    -0.273 OA
HETATM   25  C19 UNL     1      44.841  40.355 -58.494  1.00  0.00     0.122 C
HETATM   26  C20 UNL     1      44.902  41.413 -57.411  1.00  0.00     0.050 C
HETATM   27  C21 UNL     1      44.207  42.694 -57.808  1.00  0.00     0.020 C
HETATM   28  C24 UNL     1      46.321  41.758 -57.109  1.00  0.00     0.020 C
HETATM   29  C25 UNL     1      44.182  40.826 -56.255  1.00  0.00     0.235 C
HETATM   30  C22 UNL     1      44.936  43.699 -56.921  1.00  0.00     0.001 C
HETATM   31  C23 UNL     1      46.364  43.265 -57.054  1.00  0.00     0.001 C
HETATM   32  O4  UNL     1      44.273  41.191 -55.049  1.00  0.00    -0.272 OA
ENDBRANCH  21  22
ENDBRANCH   1  21
TORSDOF 11
ENDMDL