MODEL 1
REMARK VINA RESULT: -8.835462674      0.000      0.000
REMARK  8 active torsions:
REMARK  status: ('A' for Active; 'I' for Inactive)
REMARK    1  A    between atoms: C2_2  and  C3_3
REMARK    2  A    between atoms: C3_3  and  C4_4
REMARK    3  A    between atoms: C4_4  and  C5_5
REMARK    4  A    between atoms: C5_5  and  C6_6
REMARK    5  A    between atoms: C6_6  and  C7_7
REMARK    6  A    between atoms: C7_7  and  N1_8
REMARK    7  A    between atoms: C8_11  and  C9_12
REMARK       I    between atoms: C9_12  and  N3_14
REMARK    8  A    between atoms: C14_21  and  C15_22
ROOT
HETATM    1  N1  UNL     1      41.988  41.029 -52.414  1.00  0.00    -0.278 N
HETATM    2  N2  UNL     1      43.180  41.482 -52.837  1.00  0.00    -0.277 N
ATOM      3  H2  UNL     1      43.710  42.222 -52.376  1.00  0.00     0.189 HD
HETATM    4  C8  UNL     1      43.578  40.845 -53.926  1.00  0.00     0.191 A
HETATM    5  N4  UNL     1      42.625  39.966 -54.211  1.00  0.00    -0.325 N
ATOM      6  H4  UNL     1      42.633  39.317 -54.998  1.00  0.00     0.169 HD
HETATM    7  C14 UNL     1      41.627  40.072 -53.276  1.00  0.00     0.106 A
ENDROOT
BRANCH   7   8
HETATM    8  C15 UNL     1      40.393  39.260 -53.301  1.00  0.00     0.079 C
HETATM    9  C16 UNL     1      40.454  38.096 -54.255  1.00  0.00     0.020 C
HETATM   10  C17 UNL     1      39.193  37.304 -54.102  1.00  0.00     0.000 C
HETATM   11  C18 UNL     1      39.495  36.015 -53.377  1.00  0.00     0.011 C
HETATM   12  C19 UNL     1      38.145  38.039 -53.310  1.00  0.00     0.127 C
HETATM   13  N5  UNL     1      38.007  39.422 -53.694  1.00  0.00    -0.374 N
HETATM   14  C20 UNL     1      37.148  39.638 -54.772  1.00  0.00     0.196 C
HETATM   15  C22 UNL     1      39.179  40.150 -53.647  1.00  0.00     0.109 C
HETATM   16  S1  UNL     1      37.748  41.155 -55.476  1.00  0.00     0.181 S
HETATM   17  O2  UNL     1      37.714  41.125 -56.970  1.00  0.00    -0.222 OA
HETATM   18  O3  UNL     1      37.077  42.326 -54.877  1.00  0.00    -0.222 OA
HETATM   19  C21 UNL     1      39.429  40.953 -54.869  1.00  0.00     0.172 C
ENDBRANCH   7   8
BRANCH   1  20
HETATM   20  C7  UNL     1      41.282  41.492 -51.237  1.00  0.00     0.150 C
BRANCH  20  21
HETATM   21  C6  UNL     1      41.129  40.466 -50.155  1.00  0.00     0.022 C
BRANCH  21  22
HETATM   22  C5  UNL     1      40.363  40.910 -48.964  1.00  0.00     0.002 C
BRANCH  22  23
HETATM   23  C4  UNL     1      39.183  40.049 -48.644  1.00  0.00     0.000 C
BRANCH  23  24
HETATM   24  C3  UNL     1      38.849  39.087 -49.772  1.00  0.00    -0.000 C
BRANCH  24  25
HETATM   25  C2  UNL     1      37.399  38.667 -49.659  1.00  0.00    -0.005 C
HETATM   26  C1  UNL     1      37.154  38.244 -48.209  1.00  0.00     0.005 C
ENDBRANCH  24  25
ENDBRANCH  23  24
ENDBRANCH  22  23
ENDBRANCH  21  22
ENDBRANCH  20  21
ENDBRANCH   1  20
BRANCH   4  27
HETATM   27  C9  UNL     1      44.826  41.088 -54.634  1.00  0.00     0.289 C
HETATM   28  O1  UNL     1      45.882  40.442 -54.294  1.00  0.00    -0.264 OA
HETATM   29  N3  UNL     1      44.963  42.014 -55.705  1.00  0.00    -0.345 N
HETATM   30  C10 UNL     1      43.921  42.841 -56.237  1.00  0.00     0.126 C
HETATM   31  C13 UNL     1      46.194  42.237 -56.426  1.00  0.00     0.126 C
HETATM   32  C11 UNL     1      44.645  43.885 -57.049  1.00  0.00     0.021 C
HETATM   33  C12 UNL     1      45.847  43.171 -57.567  1.00  0.00     0.021 C
ENDBRANCH   4  27
TORSDOF 8
ENDMDL