MODEL 5
REMARK VINA RESULT: -8.290782571      3.193      4.824
REMARK  10 active torsions:
REMARK  status: ('A' for Active; 'I' for Inactive)
REMARK    1  A    between atoms: C4_4  and  C5_5
REMARK    2  A    between atoms: C5_5  and  C6_6
REMARK    3  A    between atoms: C6_6  and  C7_7
REMARK    4  A    between atoms: C7_7  and  C8_8
REMARK    5  A    between atoms: C8_8  and  C9_9
REMARK    6  A    between atoms: C9_9  and  C10_10
REMARK    7  A    between atoms: C10_10  and  C11_11
REMARK       I    between atoms: C11_11  and  N1_13
REMARK    8  A    between atoms: N2_16  and  C14_17
REMARK    9  A    between atoms: C17_20  and  N3_21
REMARK   10  A    between atoms: C22_27  and  N4_28
ROOT
HETATM    1  C1  UNL     1      42.407  43.803 -50.901  1.00  0.00     0.027 C
HETATM    2  C2  UNL     1      41.842  42.769 -50.617  1.00  0.00    -0.026 C
HETATM    3  C3  UNL     1      41.194  41.552 -50.294  1.00  0.00    -0.016 C
HETATM    4  C4  UNL     1      40.660  40.501 -50.018  1.00  0.00    -0.093 C
ENDROOT
BRANCH   4   5
HETATM    5  C5  UNL     1      40.036  39.220 -49.696  1.00  0.00     0.095 C
BRANCH   5   6
HETATM    6  C6  UNL     1      38.908  39.478 -48.689  1.00  0.00     0.012 C
BRANCH   6   7
HETATM    7  C7  UNL     1      37.900  38.394 -48.906  1.00  0.00     0.001 C
BRANCH   7   8
HETATM    8  C8  UNL     1      36.617  38.843 -49.534  1.00  0.00     0.000 C
BRANCH   8   9
HETATM    9  C9  UNL     1      36.431  38.156 -50.884  1.00  0.00     0.009 C
BRANCH   9  10
HETATM   10  C10 UNL     1      36.985  39.060 -51.962  1.00  0.00     0.103 C
BRANCH  10  11
HETATM   11  C11 UNL     1      37.702  38.287 -52.992  1.00  0.00     0.219 C
HETATM   12  O1  UNL     1      38.057  37.103 -52.693  1.00  0.00    -0.273 OA
HETATM   13  N1  UNL     1      37.997  38.824 -54.275  1.00  0.00    -0.349 N
HETATM   14  C12 UNL     1      37.566  40.171 -54.565  1.00  0.00     0.145 C
HETATM   15  C25 UNL     1      38.708  38.061 -55.258  1.00  0.00     0.145 C
HETATM   16  C13 UNL     1      36.826  40.122 -55.888  1.00  0.00     0.143 C
HETATM   17  N2  UNL     1      37.755  39.552 -56.833  1.00  0.00    -0.378 N
HETATM   18  C24 UNL     1      38.016  38.132 -56.578  1.00  0.00     0.143 C
BRANCH  17  19
HETATM   19  C14 UNL     1      38.354  40.276 -57.882  1.00  0.00     0.032 A
HETATM   20  C15 UNL     1      39.509  39.834 -58.477  1.00  0.00     0.031 A
HETATM   21  C16 UNL     1      40.093  40.545 -59.506  1.00  0.00     0.034 A
HETATM   22  C17 UNL     1      39.551  41.741 -59.998  1.00  0.00     0.064 A
HETATM   23  C22 UNL     1      38.402  42.171 -59.398  1.00  0.00     0.131 A
HETATM   24  C23 UNL     1      37.813  41.433 -58.344  1.00  0.00     0.067 A
BRANCH  22  25
HETATM   25  N3  UNL     1      40.161  42.403 -61.066  1.00  0.00    -0.375 N
HETATM   26  C18 UNL     1      41.243  43.377 -60.863  1.00  0.00     0.149 C
HETATM   27  C19 UNL     1      40.643  44.703 -61.309  1.00  0.00     0.187 C
HETATM   28  O2  UNL     1      39.952  44.592 -62.488  1.00  0.00    -0.388 OA
HETATM   29  C20 UNL     1      40.243  43.439 -63.208  1.00  0.00     0.187 C
HETATM   30  C21 UNL     1      39.789  42.202 -62.465  1.00  0.00     0.149 C
ENDBRANCH  22  25
BRANCH  23  31
HETATM   31  N4  UNL     1      37.767  43.363 -59.789  1.00  0.00    -0.113 N
HETATM   32  O3  UNL     1      37.995  44.408 -59.163  1.00  0.00    -0.532 OA
HETATM   33  O4  UNL     1      36.910  43.383 -60.841  1.00  0.00    -0.532 OA
ENDBRANCH  23  31
ENDBRANCH  17  19
ENDBRANCH  10  11
ENDBRANCH   9  10
ENDBRANCH   8   9
ENDBRANCH   7   8
ENDBRANCH   6   7
ENDBRANCH   5   6
ENDBRANCH   4   5
TORSDOF 10
ENDMDL