MODEL 2
REMARK VINA RESULT: -8.010234926      3.742      6.080
REMARK  12 active torsions:
REMARK  status: ('A' for Active; 'I' for Inactive)
REMARK    1  A    between atoms: C2_2  and  N1_3
REMARK    2  A    between atoms: N1_3  and  C3_4
REMARK    3  A    between atoms: N1_3  and  C5_6
REMARK    4  A    between atoms: C5_6  and  C6_7
REMARK    5  A    between atoms: C6_7  and  O1_8
REMARK    6  A    between atoms: O1_8  and  N2_9
REMARK    7  A    between atoms: N3_17  and  C13_18
REMARK    8  A    between atoms: C13_18  and  O2_19
REMARK    9  A    between atoms: C13_18  and  C14_21
REMARK   10  A    between atoms: C14_21  and  C15_22
REMARK   11  A    between atoms: C19_26  and  O3_27
REMARK   12  A    between atoms: C23_32  and  C24_33
ROOT
HETATM    1  N2  UNL     1      43.699  43.189 -56.280  1.00  0.00    -0.271 N
ATOM      2  H2  UNL     1      44.611  43.595 -56.073  1.00  0.00     0.193 HD
HETATM    3  C7  UNL     1      43.674  42.215 -57.119  1.00  0.00     0.053 C
HETATM    4  C8  UNL     1      42.507  41.481 -57.572  1.00  0.00     0.078 C
HETATM    5  C9  UNL     1      42.979  40.513 -58.605  1.00  0.00     0.008 C
HETATM    6  C10 UNL     1      42.377  41.035 -59.859  1.00  0.00     0.015 C
HETATM    7  C11 UNL     1      40.996  41.500 -59.364  1.00  0.00     0.041 C
HETATM    8  C12 UNL     1      40.487  42.484 -60.390  1.00  0.00     0.132 C
HETATM    9  N3  UNL     1      41.019  43.744 -60.038  1.00  0.00    -0.359 N
HETATM   10  C18 UNL     1      41.763  43.598 -58.733  1.00  0.00     0.164 C
HETATM   11  C19 UNL     1      41.384  42.306 -58.156  1.00  0.00     0.090 C
HETATM   12  C21 UNL     1      44.479  40.495 -58.581  1.00  0.00     0.055 C
HETATM   13  C22 UNL     1      45.193  41.230 -59.659  1.00  0.00     0.178 C
HETATM   14  O4  UNL     1      45.331  42.368 -58.861  1.00  0.00    -0.373 OA
HETATM   15  C23 UNL     1      44.910  41.673 -57.739  1.00  0.00     0.110 C
ENDROOT
BRANCH   1  16
HETATM   16  O1  UNL     1      42.628  43.732 -55.644  1.00  0.00    -0.279 OA
BRANCH  16  17
HETATM   17  C6  UNL     1      42.048  43.113 -54.511  1.00  0.00     0.231 C
BRANCH  17  18
HETATM   18  C5  UNL     1      42.939  43.134 -53.300  1.00  0.00     0.301 C
BRANCH  18  19
HETATM   19  N1  UNL     1      42.621  42.143 -52.314  1.00  0.00     0.089 N
BRANCH  19  20
HETATM   20  C2  UNL     1      41.936  41.049 -52.934  1.00  0.00     0.268 C
HETATM   21  C1  UNL     1      41.216  40.176 -51.941  1.00  0.00     0.037 C
ENDBRANCH  19  20
BRANCH  19  22
HETATM   22  C3  UNL     1      41.968  42.666 -51.157  1.00  0.00     0.268 C
HETATM   23  C4  UNL     1      42.206  44.124 -50.901  1.00  0.00     0.037 C
ENDBRANCH  19  22
ENDBRANCH  18  19
ENDBRANCH  17  18
ENDBRANCH  16  17
ENDBRANCH   1  16
BRANCH  15  24
HETATM   24  C24 UNL     1      46.009  41.363 -56.746  1.00  0.00     0.018 C
HETATM   25  C25 UNL     1      46.817  42.579 -56.392  1.00  0.00     0.013 C
HETATM   26  C26 UNL     1      45.492  40.746 -55.471  1.00  0.00     0.013 C
ENDBRANCH  15  24
BRANCH  11  27
HETATM   27  O3  UNL     1      40.346  42.337 -57.255  1.00  0.00    -0.382 OA
HETATM   28  C20 UNL     1      39.784  41.151 -56.894  1.00  0.00     0.202 C
ENDBRANCH  11  27
BRANCH   9  29
HETATM   29  C13 UNL     1      40.947  44.978 -60.687  1.00  0.00     0.138 C
BRANCH  29  30
HETATM   30  O2  UNL     1      40.508  45.983 -59.897  1.00  0.00    -0.346 OA
ATOM     31  H2  UNL     1      39.561  46.022 -59.821  1.00  0.00     0.219 HD
ENDBRANCH  29  30
BRANCH  29  32
HETATM   32  C14 UNL     1      41.225  45.444 -61.995  1.00  0.00     0.057 C
BRANCH  32  33
HETATM   33  C15 UNL     1      41.582  44.994 -63.141  1.00  0.00    -0.084 C
HETATM   34  C16 UNL     1      42.709  44.183 -63.600  1.00  0.00     0.043 C
HETATM   35  C17 UNL     1      40.617  45.388 -64.294  1.00  0.00     0.043 C
ENDBRANCH  32  33
ENDBRANCH  29  32
ENDBRANCH   9  29
TORSDOF 12
ENDMDL