MODEL 5
REMARK VINA RESULT: -9.312767002      2.176      3.541
REMARK  9 active torsions:
REMARK  status: ('A' for Active; 'I' for Inactive)
REMARK    1  A    between atoms: N1_2  and  C2_3
REMARK       I    between atoms: N1_2  and  C8_10
REMARK    2  A    between atoms: C2_3  and  C3_4
REMARK    3  A    between atoms: C8_10  and  C9_12
REMARK       I    between atoms: N2_16  and  C13_17
REMARK    4  A    between atoms: C13_17  and  C14_19
REMARK    5  A    between atoms: C14_19  and  C15_20
REMARK    6  A    between atoms: C15_20  and  C16_21
REMARK    7  A    between atoms: C17_26  and  C18_27
REMARK    8  A    between atoms: C18_27  and  C19_28
REMARK    9  A    between atoms: C19_28  and  C20_29
ROOT
HETATM    1  C9  UNL     1      42.937  41.428 -54.430  1.00  0.00     0.179 C
HETATM    2  C10 UNL     1      41.760  42.089 -53.788  1.00  0.00     0.037 C
HETATM    3  C11 UNL     1      41.426  41.243 -52.561  1.00  0.00     0.022 C
HETATM    4  C12 UNL     1      42.028  39.908 -52.902  1.00  0.00     0.127 C
HETATM    5  N2  UNL     1      42.628  40.000 -54.199  1.00  0.00    -0.339 N
HETATM    6  C13 UNL     1      42.894  38.943 -55.104  1.00  0.00     0.220 C
HETATM    7  O3  UNL     1      43.431  39.130 -56.223  1.00  0.00    -0.273 OA
ENDROOT
BRANCH   6   8
HETATM    8  C14 UNL     1      42.529  37.553 -54.733  1.00  0.00     0.110 C
BRANCH   8   9
HETATM    9  C15 UNL     1      41.169  37.164 -55.330  1.00  0.00     0.087 C
BRANCH   9  10
HETATM   10  C16 UNL     1      40.117  37.241 -54.305  1.00  0.00     0.099 A
HETATM   11  N3  UNL     1      39.876  36.310 -53.372  1.00  0.00    -0.287 N
HETATM   12  N4  UNL     1      38.843  36.730 -52.641  1.00  0.00    -0.287 N
ATOM     13  H3  UNL     1      40.390  35.438 -53.244  1.00  0.00     0.188 HD
HETATM   14  C17 UNL     1      38.418  37.921 -53.097  1.00  0.00     0.099 A
ATOM     15  H4  UNL     1      38.436  36.224 -51.854  1.00  0.00     0.188 HD
HETATM   16  N5  UNL     1      39.222  38.218 -54.126  1.00  0.00    -0.329 N
HETATM   17  C25 UNL     1      39.141  39.413 -54.930  1.00  0.00     0.159 C
BRANCH  14  18
HETATM   18  C18 UNL     1      37.290  38.765 -52.592  1.00  0.00     0.078 C
BRANCH  18  19
HETATM   19  C19 UNL     1      36.760  38.109 -51.361  1.00  0.00     0.012 C
BRANCH  19  20
HETATM   20  C20 UNL     1      36.830  38.971 -50.132  1.00  0.00    -0.014 C
HETATM   21  C21 UNL     1      36.325  38.280 -48.904  1.00  0.00     0.004 C
HETATM   22  C22 UNL     1      37.499  38.153 -47.955  1.00  0.00     0.000 C
HETATM   23  C23 UNL     1      38.672  38.189 -48.894  1.00  0.00     0.000 C
HETATM   24  C24 UNL     1      38.286  39.284 -49.863  1.00  0.00     0.004 C
ENDBRANCH  19  20
ENDBRANCH  18  19
ENDBRANCH  14  18
ENDBRANCH   9  10
ENDBRANCH   8   9
ENDBRANCH   6   8
BRANCH   1  25
HETATM   25  C8  UNL     1      44.250  41.739 -53.815  1.00  0.00     0.242 C
HETATM   26  N1  UNL     1      45.497  41.343 -54.319  1.00  0.00    -0.352 N
HETATM   27  C1  UNL     1      46.686  41.684 -53.497  1.00  0.00     0.152 C
HETATM   28  O2  UNL     1      44.266  42.420 -52.712  1.00  0.00    -0.271 OA
BRANCH  26  29
HETATM   29  C2  UNL     1      45.776  40.689 -55.544  1.00  0.00     0.157 C
BRANCH  29  30
HETATM   30  C3  UNL     1      46.447  41.467 -56.604  1.00  0.00     0.139 C
HETATM   31  C4  UNL     1      46.468  42.938 -56.548  1.00  0.00     0.034 C
HETATM   32  C5  UNL     1      45.426  43.592 -57.418  1.00  0.00     0.005 C
HETATM   33  C6  UNL     1      44.248  42.691 -57.605  1.00  0.00     0.026 C
HETATM   34  C7  UNL     1      44.679  41.350 -58.085  1.00  0.00     0.168 C
HETATM   35  O1  UNL     1      46.017  41.060 -57.872  1.00  0.00    -0.384 OA
ENDBRANCH  29  30
ENDBRANCH  26  29
ENDBRANCH   1  25
TORSDOF 9
ENDMDL