MODEL 1
REMARK VINA RESULT: -8.892083441      0.000      0.000
REMARK  9 active torsions:
REMARK  status: ('A' for Active; 'I' for Inactive)
REMARK    1  A    between atoms: O1_2  and  C2_3
REMARK    2  A    between atoms: C4_5  and  O2_6
REMARK    3  A    between atoms: C9_11  and  N1_12
REMARK    4  A    between atoms: N3_20  and  C16_21
REMARK    5  A    between atoms: C16_21  and  C17_22
REMARK    6  A    between atoms: C17_22  and  C18_23
REMARK    7  A    between atoms: C18_23  and  O3_24
REMARK    8  A    between atoms: O3_24  and  C19_25
REMARK    9  A    between atoms: C19_25  and  C20_26
ROOT
HETATM    1  C2  UNL     1      37.412  38.239 -51.565  1.00  0.00     0.071 A
HETATM    2  C3  UNL     1      38.250  38.602 -50.532  1.00  0.00     0.074 A
HETATM    3  C4  UNL     1      39.454  39.259 -50.759  1.00  0.00     0.079 A
HETATM    4  C6  UNL     1      39.793  39.543 -52.060  1.00  0.00     0.012 A
HETATM    5  C7  UNL     1      38.969  39.189 -53.105  1.00  0.00    -0.010 A
HETATM    6  C8  UNL     1      37.793  38.545 -52.863  1.00  0.00     0.047 A
HETATM    7  C9  UNL     1      39.485  39.574 -54.441  1.00  0.00     0.284 C
HETATM    8  C15 UNL     1      39.913  41.011 -54.272  1.00  0.00     0.313 C
HETATM    9  N3  UNL     1      41.159  40.980 -53.515  1.00  0.00     0.095 N
HETATM   10  C27 UNL     1      41.087  40.254 -52.289  1.00  0.00     0.314 C
ENDROOT
BRANCH   9  11
HETATM   11  C16 UNL     1      41.527  42.381 -53.344  1.00  0.00     0.275 C
BRANCH  11  12
HETATM   12  C17 UNL     1      42.298  42.599 -52.085  1.00  0.00     0.056 C
BRANCH  12  13
HETATM   13  C18 UNL     1      43.761  42.728 -52.486  1.00  0.00     0.169 C
BRANCH  13  14
HETATM   14  O3  UNL     1      43.804  42.778 -53.878  1.00  0.00    -0.391 OA
BRANCH  14  15
HETATM   15  C19 UNL     1      44.704  41.810 -54.362  1.00  0.00     0.172 C
BRANCH  15  16
HETATM   16  C20 UNL     1      44.570  41.781 -55.855  1.00  0.00     0.014 C
HETATM   17  C21 UNL     1      44.213  43.171 -56.403  1.00  0.00     0.011 C
HETATM   18  C22 UNL     1      45.298  43.412 -57.401  1.00  0.00    -0.014 C
HETATM   19  C23 UNL     1      45.160  42.415 -58.535  1.00  0.00     0.005 C
HETATM   20  C26 UNL     1      46.502  42.798 -56.664  1.00  0.00     0.010 C
HETATM   21  C24 UNL     1      45.596  41.067 -57.947  1.00  0.00     0.005 C
HETATM   22  C25 UNL     1      45.872  41.402 -56.515  1.00  0.00    -0.008 C
ENDBRANCH  15  16
ENDBRANCH  14  15
ENDBRANCH  13  14
ENDBRANCH  12  13
ENDBRANCH  11  12
ENDBRANCH   9  11
BRANCH   7  23
HETATM   23  N1  UNL     1      38.614  39.392 -55.531  1.00  0.00     0.102 N
HETATM   24  C10 UNL     1      39.008  38.313 -56.420  1.00  0.00     0.303 C
HETATM   25  C11 UNL     1      37.785  37.969 -57.233  1.00  0.00     0.302 C
HETATM   26  N2  UNL     1      37.399  39.168 -57.947  1.00  0.00     0.087 N
HETATM   27  C12 UNL     1      36.114  39.674 -57.497  1.00  0.00     0.310 C
HETATM   28  C13 UNL     1      38.349  40.245 -57.816  1.00  0.00     0.302 C
HETATM   29  C14 UNL     1      38.647  40.589 -56.365  1.00  0.00     0.303 C
ENDBRANCH   7  23
BRANCH   3  30
HETATM   30  O2  UNL     1      40.262  39.602 -49.686  1.00  0.00    -0.355 OA
HETATM   31  C5  UNL     1      40.122  40.723 -48.877  1.00  0.00     0.210 C
ENDBRANCH   3  30
BRANCH   1  32
HETATM   32  O1  UNL     1      36.211  37.584 -51.341  1.00  0.00    -0.356 OA
HETATM   33  C1  UNL     1      35.515  37.872 -50.144  1.00  0.00     0.210 C
ENDBRANCH   1  32
TORSDOF 9
ENDMDL