MODEL 1
REMARK VINA RESULT: -8.657986665      0.000      0.000
REMARK  10 active torsions:
REMARK  status: ('A' for Active; 'I' for Inactive)
REMARK    1  A    between atoms: N1_2  and  C2_3
REMARK    2  A    between atoms: N1_2  and  C18_21
REMARK    3  A    between atoms: C2_3  and  C3_4
REMARK    4  A    between atoms: C3_4  and  C4_5
REMARK    5  A    between atoms: C4_5  and  N2_6
REMARK    6  A    between atoms: N3_9  and  C7_10
REMARK    7  A    between atoms: C7_10  and  C8_11
REMARK    8  A    between atoms: C8_11  and  C11_14
REMARK    9  A    between atoms: N4_24  and  C21_25
REMARK   10  A    between atoms: C21_25  and  C22_26
ROOT
HETATM    1  C2  UNL     1      42.688  41.224 -59.600  1.00  0.00     0.277 C
ENDROOT
BRANCH   1   2
HETATM    2  N1  UNL     1      43.673  42.229 -59.359  1.00  0.00     0.089 N
HETATM    3  C1  UNL     1      44.856  41.913 -60.110  1.00  0.00     0.310 C
BRANCH   2   4
HETATM    4  C18 UNL     1      43.879  42.352 -57.955  1.00  0.00     0.225 C
HETATM    5  C19 UNL     1      43.061  43.462 -57.322  1.00  0.00     0.055 C
HETATM    6  C20 UNL     1      43.040  43.169 -55.819  1.00  0.00     0.119 C
HETATM    7  N4  UNL     1      44.089  42.271 -55.485  1.00  0.00    -0.406 N
HETATM    8  C26 UNL     1      45.375  42.579 -56.003  1.00  0.00     0.119 C
HETATM    9  C27 UNL     1      45.319  42.580 -57.540  1.00  0.00     0.055 C
BRANCH   7  10
HETATM   10  C21 UNL     1      44.018  41.666 -54.211  1.00  0.00     0.193 C
BRANCH  10  11
HETATM   11  C22 UNL     1      43.231  42.407 -53.219  1.00  0.00     0.100 A
HETATM   12  N5  UNL     1      43.593  43.582 -52.679  1.00  0.00    -0.353 N
HETATM   13  C23 UNL     1      42.659  43.999 -51.801  1.00  0.00     0.106 A
ATOM     14  H5  UNL     1      44.451  44.087 -52.901  1.00  0.00     0.166 HD
HETATM   15  C24 UNL     1      41.687  43.031 -51.810  1.00  0.00     0.108 A
HETATM   16  N6  UNL     1      42.048  42.062 -52.681  1.00  0.00    -0.348 N
HETATM   17  C25 UNL     1      41.262  40.867 -52.963  1.00  0.00     0.157 C
ENDBRANCH  10  11
ENDBRANCH   7  10
ENDBRANCH   2   4
ENDBRANCH   1   2
BRANCH   1  18
HETATM   18  C3  UNL     1      42.639  40.089 -58.649  1.00  0.00     0.075 C
BRANCH  18  19
HETATM   19  C4  UNL     1      41.478  39.137 -58.849  1.00  0.00     0.065 C
BRANCH  19  20
HETATM   20  N2  UNL     1      40.683  39.009 -57.693  1.00  0.00    -0.370 N
HETATM   21  C5  UNL     1      39.895  37.870 -57.633  1.00  0.00     0.093 C
HETATM   22  C6  UNL     1      38.842  37.848 -56.554  1.00  0.00     0.317 C
HETATM   23  N3  UNL     1      39.301  38.617 -55.349  1.00  0.00     0.095 N
HETATM   24  C16 UNL     1      39.438  39.968 -55.931  1.00  0.00     0.293 C
HETATM   25  C17 UNL     1      40.809  39.904 -56.633  1.00  0.00     0.157 C
BRANCH  23  26
HETATM   26  C7  UNL     1      38.241  38.526 -54.395  1.00  0.00     0.282 C
BRANCH  26  27
HETATM   27  C8  UNL     1      38.645  37.843 -53.155  1.00  0.00    -0.018 C
HETATM   28  C9  UNL     1      37.905  36.501 -53.122  1.00  0.00     0.017 C
HETATM   29  C10 UNL     1      40.105  37.515 -53.049  1.00  0.00     0.017 C
BRANCH  27  30
HETATM   30  C11 UNL     1      38.289  38.593 -51.893  1.00  0.00    -0.005 C
HETATM   31  C12 UNL     1      39.114  38.256 -50.701  1.00  0.00     0.005 C
HETATM   32  C13 UNL     1      38.366  39.033 -49.607  1.00  0.00     0.000 C
HETATM   33  C14 UNL     1      36.914  38.930 -49.998  1.00  0.00     0.000 C
HETATM   34  C15 UNL     1      36.891  38.313 -51.402  1.00  0.00     0.005 C
ENDBRANCH  27  30
ENDBRANCH  26  27
ENDBRANCH  23  26
ENDBRANCH  19  20
ENDBRANCH  18  19
ENDBRANCH   1  18
TORSDOF 10
ENDMDL