MODEL 2
REMARK VINA RESULT: -8.029406376      3.023      7.273
REMARK  12 active torsions:
REMARK  status: ('A' for Active; 'I' for Inactive)
REMARK    1  A    between atoms: C2_2  and  C3_3
REMARK    2  A    between atoms: C3_3  and  N1_4
REMARK    3  A    between atoms: C9_10  and  O1_11
REMARK    4  A    between atoms: C13_15  and  C14_16
REMARK    5  A    between atoms: C14_16  and  O2_17
REMARK    6  A    between atoms: O2_17  and  C15_18
REMARK    7  A    between atoms: C15_18  and  C16_20
REMARK    8  A    between atoms: C18_22  and  C19_23
REMARK    9  A    between atoms: C20_24  and  C21_25
REMARK   10  A    between atoms: C22_26  and  C23_27
REMARK   11  A    between atoms: C23_27  and  C24_29
REMARK   12  A    between atoms: C24_29  and  C25_31
ROOT
HETATM    1  O2  UNL     1      41.380  37.334 -55.613  1.00  0.00    -0.317 OA
ENDROOT
BRANCH   1   2
HETATM    2  C14 UNL     1      42.615  37.894 -55.902  1.00  0.00     0.189 C
BRANCH   2   3
HETATM    3  C13 UNL     1      42.644  39.226 -56.537  1.00  0.00    -0.008 A
HETATM    4  C6  UNL     1      42.720  40.458 -55.626  1.00  0.00     0.006 C
HETATM    5  C5  UNL     1      43.729  40.241 -54.550  1.00  0.00     0.036 C
HETATM    6  C7  UNL     1      43.049  41.562 -56.575  1.00  0.00     0.048 C
HETATM    7  C4  UNL     1      44.089  41.498 -53.828  1.00  0.00     0.273 C
HETATM    8  N1  UNL     1      43.827  42.697 -54.535  1.00  0.00     0.092 N
HETATM    9  C8  UNL     1      43.964  42.604 -55.966  1.00  0.00     0.280 C
HETATM   10  C9  UNL     1      43.807  40.884 -57.679  1.00  0.00     0.132 C
HETATM   11  C11 UNL     1      43.085  39.554 -57.861  1.00  0.00     0.027 A
HETATM   12  C12 UNL     1      41.617  39.488 -57.634  1.00  0.00     0.020 A
BRANCH   8  13
HETATM   13  C3  UNL     1      42.660  43.394 -54.099  1.00  0.00     0.299 C
BRANCH  13  14
HETATM   14  C2  UNL     1      42.335  43.033 -52.690  1.00  0.00    -0.007 C
HETATM   15  C1  UNL     1      42.314  43.948 -51.731  1.00  0.00     0.008 C
ENDBRANCH  13  14
ENDBRANCH   8  13
BRANCH  10  16
HETATM   16  O1  UNL     1      43.837  41.610 -58.860  1.00  0.00    -0.390 OA
HETATM   17  C10 UNL     1      44.984  41.238 -59.557  1.00  0.00     0.202 C
ENDBRANCH  10  16
ENDBRANCH   2   3
ENDBRANCH   1   2
BRANCH   1  18
HETATM   18  C15 UNL     1      40.884  37.244 -54.300  1.00  0.00     0.288 C
HETATM   19  O3  UNL     1      40.554  36.077 -53.962  1.00  0.00    -0.260 OA
BRANCH  18  20
HETATM   20  C16 UNL     1      40.784  38.408 -53.456  1.00  0.00     0.013 C
HETATM   21  C17 UNL     1      41.732  38.449 -52.279  1.00  0.00     0.054 C
HETATM   22  C18 UNL     1      39.971  39.390 -53.625  1.00  0.00     0.013 C
BRANCH  22  23
HETATM   23  C19 UNL     1      38.984  39.571 -54.664  1.00  0.00     0.010 C
HETATM   24  C20 UNL     1      37.691  39.439 -54.393  1.00  0.00     0.065 C
BRANCH  24  25
HETATM   25  C21 UNL     1      37.318  39.115 -53.046  1.00  0.00    -0.070 C
HETATM   26  C22 UNL     1      36.983  38.841 -51.912  1.00  0.00    -0.016 C
BRANCH  26  27
HETATM   27  C23 UNL     1      36.563  38.512 -50.582  1.00  0.00     0.271 C
HETATM   28  O4  UNL     1      35.466  37.901 -50.361  1.00  0.00    -0.274 OA
BRANCH  27  29
HETATM   29  C24 UNL     1      37.385  38.869 -49.437  1.00  0.00     0.211 C
HETATM   30  O5  UNL     1      36.851  38.882 -48.303  1.00  0.00    -0.288 OA
BRANCH  29  31
HETATM   31  C25 UNL     1      38.834  39.213 -49.594  1.00  0.00     0.056 C
HETATM   32  C26 UNL     1      39.211  40.311 -48.649  1.00  0.00     0.018 C
HETATM   33  C27 UNL     1      39.631  37.950 -49.375  1.00  0.00     0.018 C
ENDBRANCH  29  31
ENDBRANCH  27  29
ENDBRANCH  26  27
ENDBRANCH  24  25
ENDBRANCH  22  23
ENDBRANCH  18  20
ENDBRANCH   1  18
TORSDOF 12
ENDMDL