MODEL 4
REMARK VINA RESULT: -4.945103494      5.195      9.893
REMARK  6 active torsions:
REMARK  status: ('A' for Active; 'I' for Inactive)
REMARK    1  A    between atoms: O1_2  and  C2_3
REMARK    2  A    between atoms: C5_6  and  N1_7
REMARK    3  A    between atoms: C8_12  and  O4_13
REMARK    4  A    between atoms: C10_16  and  O5_17
REMARK    5  A    between atoms: C12_19  and  O6_20
REMARK    6  A    between atoms: C14_22  and  O7_23
ROOT
HETATM    1  C2  UNL     1      24.369 -28.445 -14.026  1.00  0.00     0.105 A
HETATM    2  C3  UNL     1      24.134 -28.289 -15.375  1.00  0.00     0.054 A
HETATM    3  C4  UNL     1      22.998 -27.602 -15.756  1.00  0.00     0.016 A
HETATM    4  C5  UNL     1      22.793 -27.448 -17.110  1.00  0.00     0.122 A
HETATM    5  C6  UNL     1      21.690 -26.764 -17.530  1.00  0.00     0.005 A
HETATM    6  C7  UNL     1      20.775 -26.223 -16.600  1.00  0.00     0.017 A
HETATM    7  C8  UNL     1      20.968 -26.369 -15.270  1.00  0.00     0.089 A
HETATM    8  C9  UNL     1      22.114 -27.081 -14.833  1.00  0.00     0.047 A
HETATM    9  C10 UNL     1      22.368 -27.250 -13.494  1.00  0.00     0.118 A
HETATM   10  C12 UNL     1      23.514 -27.943 -13.074  1.00  0.00     0.136 A
HETATM   11  C14 UNL     1      19.659 -25.524 -17.224  1.00  0.00     0.174 C
HETATM   12  C16 UNL     1      19.202 -26.470 -18.373  1.00  0.00     0.153 C
HETATM   13  N2  UNL     1      20.178 -26.332 -19.404  1.00  0.00    -0.410 N
HETATM   14  C17 UNL     1      19.809 -26.850 -20.680  1.00  0.00     0.143 C
HETATM   15  C18 UNL     1      21.515 -26.609 -18.995  1.00  0.00     0.158 C
ENDROOT
BRANCH   4  16
HETATM   16  N1  UNL     1      23.736 -28.019 -18.043  1.00  0.00    -0.114 N
HETATM   17  O2  UNL     1      24.720 -27.356 -18.439  1.00  0.00    -0.532 OA
HETATM   18  O3  UNL     1      23.590 -29.289 -18.525  1.00  0.00    -0.532 OA
ENDBRANCH   4  16
BRANCH   1  19
HETATM   19  O1  UNL     1      25.512 -29.136 -13.651  1.00  0.00    -0.353 OA
HETATM   20  C1  UNL     1      26.775 -28.556 -13.725  1.00  0.00     0.210 C
ENDBRANCH   1  19
BRANCH   7  21
HETATM   21  O4  UNL     1      20.152 -25.886 -14.289  1.00  0.00    -0.359 OA
ATOM     22  H4  UNL     1      19.294 -25.500 -14.422  1.00  0.00     0.217 HD
ENDBRANCH   7  21
BRANCH   9  23
HETATM   23  O5  UNL     1      21.524 -26.764 -12.510  1.00  0.00    -0.352 OA
HETATM   24  C11 UNL     1      20.743 -27.735 -11.797  1.00  0.00     0.210 C
ENDBRANCH   9  23
BRANCH  11  25
HETATM   25  O7  UNL     1      18.596 -25.130 -16.487  1.00  0.00    -0.384 OA
HETATM   26  C15 UNL     1      17.504 -24.884 -17.357  1.00  0.00     0.202 C
ENDBRANCH  11  25
BRANCH  10  27
HETATM   27  O6  UNL     1      23.806 -28.132 -11.730  1.00  0.00    -0.351 OA
HETATM   28  C13 UNL     1      24.515 -27.099 -11.067  1.00  0.00     0.210 C
ENDBRANCH  10  27
TORSDOF 6
ENDMDL