MODEL 3
REMARK VINA RESULT: -6.961409157      1.899      2.317
REMARK  8 active torsions:
REMARK  status: ('A' for Active; 'I' for Inactive)
REMARK    1  A    between atoms: C2_2  and  N1_3
REMARK    2  A    between atoms: N1_3  and  C3_4
REMARK    3  A    between atoms: N1_3  and  N2_13
REMARK    4  A    between atoms: C3_4  and  C4_5
REMARK    5  A    between atoms: C6_7  and  O1_8
REMARK    6  A    between atoms: N3_15  and  C9_17
REMARK    7  A    between atoms: C15_23  and  O3_25
REMARK    8  A    between atoms: C17_28  and  O5_29
ROOT
HETATM    1  N2  UNL     1      20.791 -20.929 -22.280  1.00  0.00    -0.241 N
ATOM      2  H2  UNL     1      19.902 -21.429 -22.238  1.00  0.00     0.208 HD
HETATM    3  N3  UNL     1      20.850 -19.712 -21.920  1.00  0.00    -0.286 N
ATOM      4  H3  UNL     1      21.747 -19.228 -21.969  1.00  0.00     0.188 HD
ENDROOT
BRANCH   3   5
HETATM    5  C9  UNL     1      19.714 -19.003 -21.452  1.00  0.00     0.050 A
HETATM    6  C10 UNL     1      18.483 -19.616 -21.609  1.00  0.00     0.031 A
HETATM    7  C11 UNL     1      17.354 -18.976 -21.174  1.00  0.00     0.015 A
HETATM    8  C12 UNL     1      17.401 -17.734 -20.582  1.00  0.00     0.008 A
HETATM    9  C13 UNL     1      18.621 -17.110 -20.420  1.00  0.00     0.016 A
HETATM   10  C17 UNL     1      16.359 -16.827 -20.029  1.00  0.00     0.298 C
HETATM   11  C14 UNL     1      19.761 -17.758 -20.859  1.00  0.00     0.044 A
HETATM   12  C15 UNL     1      18.335 -15.811 -19.763  1.00  0.00     0.191 C
HETATM   13  C16 UNL     1      19.090 -14.681 -20.431  1.00  0.00     0.085 C
HETATM   14  O4  UNL     1      16.985 -15.608 -19.927  1.00  0.00    -0.317 OA
BRANCH  12  15
HETATM   15  O3  UNL     1      18.589 -15.845 -18.389  1.00  0.00    -0.362 OA
ATOM     16  H3  UNL     1      17.793 -15.782 -17.874  1.00  0.00     0.213 HD
ENDBRANCH  12  15
BRANCH  10  17
HETATM   17  O5  UNL     1      15.895 -17.235 -18.804  1.00  0.00    -0.362 OA
HETATM   18  C18 UNL     1      15.084 -16.283 -18.190  1.00  0.00     0.205 C
ENDBRANCH  10  17
ENDBRANCH   3   5
BRANCH   1  19
HETATM   19  N1  UNL     1      21.960 -21.600 -22.744  1.00  0.00    -0.291 N
BRANCH  19  20
HETATM   20  C2  UNL     1      22.824 -22.115 -21.738  1.00  0.00     0.145 C
HETATM   21  C1  UNL     1      22.285 -23.403 -21.118  1.00  0.00     0.028 C
ENDBRANCH  19  20
BRANCH  19  22
HETATM   22  C3  UNL     1      22.165 -21.697 -24.126  1.00  0.00     0.116 C
BRANCH  22  23
HETATM   23  C4  UNL     1      23.508 -21.850 -24.715  1.00  0.00     0.163 C
HETATM   24  C5  UNL     1      23.788 -22.951 -25.654  1.00  0.00     0.069 C
HETATM   25  C6  UNL     1      23.097 -22.782 -26.996  1.00  0.00     0.123 C
HETATM   26  C7  UNL     1      23.117 -21.314 -27.398  1.00  0.00     0.058 C
HETATM   27  C8  UNL     1      24.173 -20.634 -26.590  1.00  0.00     0.171 C
HETATM   28  O2  UNL     1      23.849 -20.602 -25.272  1.00  0.00    -0.380 OA
BRANCH  25  29
HETATM   29  O1  UNL     1      23.783 -23.540 -27.923  1.00  0.00    -0.395 OA
ATOM     30  H1  UNL     1      23.271 -23.554 -28.723  1.00  0.00     0.210 HD
ENDBRANCH  25  29
ENDBRANCH  22  23
ENDBRANCH  19  22
ENDBRANCH   1  19
TORSDOF 8
ENDMDL