MODEL 2
REMARK VINA RESULT: -6.770002082      1.830      2.911
REMARK  5 active torsions:
REMARK  status: ('A' for Active; 'I' for Inactive)
REMARK    1  A    between atoms: C2_2  and  C3_3
REMARK    2  A    between atoms: C3_3  and  N1_4
REMARK    3  A    between atoms: C4_5  and  S1_6
REMARK    4  A    between atoms: S1_6  and  C5_7
REMARK    5  A    between atoms: C5_7  and  C6_8
REMARK       I    between atoms: C6_8  and  N2_10
ROOT
HETATM    1  N1  UNL     1      18.261 -23.066 -21.016  1.00  0.00    -0.321 N
HETATM    2  C4  UNL     1      19.195 -22.204 -21.472  1.00  0.00     0.149 A
HETATM    3  N3  UNL     1      20.371 -22.673 -21.057  1.00  0.00    -0.321 N
ATOM      4  H3  UNL     1      21.272 -22.234 -21.247  1.00  0.00     0.169 HD
HETATM    5  C12 UNL     1      20.198 -23.832 -20.337  1.00  0.00     0.136 A
HETATM    6  C13 UNL     1      18.859 -24.077 -20.310  1.00  0.00     0.138 A
HETATM    7  C14 UNL     1      18.286 -25.229 -19.626  1.00  0.00     0.241 C
HETATM    8  O2  UNL     1      17.077 -25.391 -19.470  1.00  0.00    -0.278 OA
HETATM    9  S2  UNL     1      19.409 -26.479 -18.981  1.00  0.00    -0.060 SA
HETATM   10  C15 UNL     1      20.964 -25.565 -18.664  1.00  0.00     0.149 C
HETATM   11  C16 UNL     1      22.050 -26.620 -18.622  1.00  0.00     0.044 C
HETATM   12  N4  UNL     1      21.183 -24.662 -19.746  1.00  0.00    -0.361 N
ATOM     13  H4  UNL     1      22.127 -24.609 -20.126  1.00  0.00     0.162 HD
ENDROOT
BRANCH   2  14
HETATM   14  S1  UNL     1      18.867 -20.741 -22.451  1.00  0.00    -0.084 SA
BRANCH  14  15
HETATM   15  C5  UNL     1      17.941 -19.515 -21.547  1.00  0.00     0.185 C
BRANCH  15  16
HETATM   16  C6  UNL     1      18.851 -18.428 -21.150  1.00  0.00     0.229 C
HETATM   17  O1  UNL     1      20.083 -18.692 -21.210  1.00  0.00    -0.273 OA
HETATM   18  N2  UNL     1      18.459 -17.156 -20.717  1.00  0.00    -0.351 N
HETATM   19  C7  UNL     1      19.485 -16.163 -20.367  1.00  0.00     0.125 C
HETATM   20  C11 UNL     1      17.095 -16.696 -20.556  1.00  0.00     0.125 C
HETATM   21  C8  UNL     1      18.845 -15.116 -19.479  1.00  0.00     0.020 C
HETATM   22  C9  UNL     1      17.919 -15.714 -18.449  1.00  0.00     0.003 C
HETATM   23  C10 UNL     1      16.879 -16.607 -19.051  1.00  0.00     0.020 C
ENDBRANCH  15  16
ENDBRANCH  14  15
ENDBRANCH   2  14
BRANCH   1  24
HETATM   24  C3  UNL     1      16.853 -22.998 -21.245  1.00  0.00     0.131 C
BRANCH  24  25
HETATM   25  C2  UNL     1      16.290 -23.727 -22.398  1.00  0.00     0.016 C
HETATM   26  C1  UNL     1      14.875 -24.169 -22.347  1.00  0.00     0.006 C
ENDBRANCH  24  25
ENDBRANCH   1  24
TORSDOF 5
ENDMDL