MODEL 2
REMARK VINA RESULT: -6.508866174      2.531      3.617
REMARK  6 active torsions:
REMARK  status: ('A' for Active; 'I' for Inactive)
REMARK    1  A    between atoms: C3_7  and  S1_8
REMARK    2  A    between atoms: S1_8  and  C4_9
REMARK    3  A    between atoms: C4_9  and  C5_10
REMARK       I    between atoms: C5_10  and  N3_12
REMARK    4  A    between atoms: N3_12  and  C6_14
REMARK    5  A    between atoms: C7_19  and  S2_20
REMARK    6  A    between atoms: S2_20  and  C8_21
ROOT
HETATM    1  C6  UNL     1      18.164 -22.362 -21.583  1.00  0.00     0.168 A
HETATM    2  N4  UNL     1      17.015 -23.045 -21.600  1.00  0.00    -0.278 N
ATOM      3  H4  UNL     1      16.158 -22.611 -21.943  1.00  0.00     0.189 HD
HETATM    4  N5  UNL     1      17.010 -24.241 -21.183  1.00  0.00    -0.286 N
ATOM      5  H5  UNL     1      16.142 -24.776 -21.189  1.00  0.00     0.188 HD
HETATM    6  C7  UNL     1      18.124 -24.802 -20.740  1.00  0.00     0.130 A
HETATM    7  S3  UNL     1      19.243 -23.529 -20.936  1.00  0.00    -0.026 SA
ENDROOT
BRANCH   1   8
HETATM    8  N3  UNL     1      18.371 -21.127 -21.969  1.00  0.00    -0.305 N
HETATM    9  C5  UNL     1      17.876 -20.080 -21.150  1.00  0.00     0.233 C
HETATM   10  O1  UNL     1      17.058 -20.313 -20.210  1.00  0.00    -0.272 OA
ATOM     11  H3  UNL     1      18.872 -20.924 -22.834  1.00  0.00     0.171 HD
BRANCH   9  12
HETATM   12  C4  UNL     1      18.325 -18.700 -21.401  1.00  0.00     0.184 C
BRANCH  12  13
HETATM   13  S1  UNL     1      17.151 -17.537 -20.662  1.00  0.00    -0.094 SA
BRANCH  13  14
HETATM   14  C3  UNL     1      18.087 -16.354 -19.664  1.00  0.00     0.128 A
HETATM   15  N2  UNL     1      19.218 -15.734 -19.983  1.00  0.00    -0.287 N
HETATM   16  N1  UNL     1      19.749 -14.930 -19.169  1.00  0.00    -0.297 N
ATOM     17  H2  UNL     1      19.657 -15.909 -20.887  1.00  0.00     0.188 HD
HETATM   18  C2  UNL     1      19.174 -14.704 -17.991  1.00  0.00     0.065 A
ATOM     19  H1  UNL     1      20.616 -14.454 -19.414  1.00  0.00     0.187 HD
HETATM   20  C1  UNL     1      19.624 -13.800 -16.883  1.00  0.00     0.078 C
HETATM   21  S4  UNL     1      17.796 -15.725 -18.102  1.00  0.00    -0.050 SA
ENDBRANCH  13  14
ENDBRANCH  12  13
ENDBRANCH   9  12
ENDBRANCH   1   8
BRANCH   6  22
HETATM   22  S2  UNL     1      18.323 -26.476 -20.112  1.00  0.00    -0.098 SA
BRANCH  22  23
HETATM   23  C8  UNL     1      18.106 -26.458 -18.330  1.00  0.00     0.059 C
HETATM   24  C9  UNL     1      17.863 -24.993 -17.908  1.00  0.00     0.020 C
HETATM   25  C10 UNL     1      19.029 -24.819 -16.981  1.00  0.00    -0.013 C
HETATM   26  C11 UNL     1      20.163 -25.441 -17.797  1.00  0.00     0.010 C
HETATM   27  C13 UNL     1      19.030 -26.128 -16.207  1.00  0.00     0.010 C
HETATM   28  C12 UNL     1      19.356 -26.729 -17.575  1.00  0.00     0.000 C
ENDBRANCH  22  23
ENDBRANCH   6  22
TORSDOF 6
ENDMDL