MODEL 2
REMARK VINA RESULT: -5.029441670      3.680      7.032
REMARK  7 active torsions:
REMARK  status: ('A' for Active; 'I' for Inactive)
REMARK    1  A    between atoms: C6_6  and  C7_7
REMARK    2  A    between atoms: C7_7  and  O2_9
REMARK    3  A    between atoms: O2_9  and  C8_10
REMARK    4  A    between atoms: C8_10  and  N1_11
REMARK    5  A    between atoms: C9_15  and  S1_16
REMARK    6  A    between atoms: S1_16  and  C10_17
REMARK    7  A    between atoms: N3_20  and  C12_21
ROOT
HETATM    1  C10 UNL     1      17.485 -21.062 -20.788  1.00  0.00     0.204 C
HETATM    2  C11 UNL     1      17.815 -19.665 -21.017  1.00  0.00     0.069 C
HETATM    3  N2  UNL     1      18.057 -18.550 -21.186  1.00  0.00    -0.197 NA
ENDROOT
BRANCH   1   4
HETATM    4  S1  UNL     1      18.150 -22.182 -22.035  1.00  0.00    -0.097 SA
BRANCH   4   5
HETATM    5  C9  UNL     1      19.675 -22.879 -21.414  1.00  0.00     0.090 A
HETATM    6  C6  UNL     1      20.902 -22.445 -21.888  1.00  0.00     0.081 A
HETATM    7  C5  UNL     1      21.842 -23.159 -21.204  1.00  0.00    -0.011 A
HETATM    8  C4  UNL     1      23.323 -23.280 -21.144  1.00  0.00     0.079 C
HETATM    9  C17 UNL     1      21.165 -24.016 -20.324  1.00  0.00     0.044 A
HETATM   10  C2  UNL     1      23.753 -24.729 -21.113  1.00  0.00     0.058 C
HETATM   11  C1  UNL     1      23.654 -25.248 -22.546  1.00  0.00     0.046 C
HETATM   12  C3  UNL     1      25.209 -24.792 -20.719  1.00  0.00     0.046 C
HETATM   13  O4  UNL     1      22.927 -25.529 -20.346  1.00  0.00    -0.375 OA
HETATM   14  C18 UNL     1      22.069 -24.852 -19.509  1.00  0.00     0.226 C
HETATM   15  N3  UNL     1      19.854 -23.826 -20.471  1.00  0.00    -0.337 N
BRANCH   6  16
HETATM   16  C7  UNL     1      21.211 -21.444 -22.899  1.00  0.00     0.298 C
HETATM   17  O1  UNL     1      21.617 -20.296 -22.608  1.00  0.00    -0.259 OA
BRANCH  16  18
HETATM   18  O2  UNL     1      21.053 -21.765 -24.240  1.00  0.00    -0.290 OA
BRANCH  18  19
HETATM   19  C8  UNL     1      22.055 -22.399 -25.015  1.00  0.00     0.407 C
BRANCH  19  20
HETATM   20  N1  UNL     1      23.172 -21.463 -25.078  1.00  0.00    -0.058 N
ATOM     21  H13 UNL     1      23.548 -21.343 -26.019  1.00  0.00     0.276 HD
ATOM     22  H12 UNL     1      22.898 -20.493 -24.929  1.00  0.00     0.276 HD
ATOM     23  H11 UNL     1      23.862 -21.798 -24.406  1.00  0.00     0.276 HD
ENDBRANCH  19  20
ENDBRANCH  18  19
ENDBRANCH  16  18
ENDBRANCH   6  16
BRANCH  15  24
HETATM   24  C12 UNL     1      18.828 -24.507 -19.744  1.00  0.00     0.094 C
HETATM   25  C13 UNL     1      18.896 -24.212 -18.243  1.00  0.00     0.052 C
HETATM   26  C14 UNL     1      17.586 -24.776 -17.682  1.00  0.00     0.169 C
HETATM   27  O3  UNL     1      17.524 -26.147 -17.832  1.00  0.00    -0.391 OA
HETATM   28  C15 UNL     1      18.587 -26.689 -18.537  1.00  0.00     0.169 C
HETATM   29  C16 UNL     1      18.782 -25.986 -19.888  1.00  0.00     0.052 C
ENDBRANCH  15  24
ENDBRANCH   4   5
ENDBRANCH   1   4
TORSDOF 7
ENDMDL