MODEL 5
REMARK VINA RESULT: -5.892389474      2.020      4.183
REMARK  7 active torsions:
REMARK  status: ('A' for Active; 'I' for Inactive)
REMARK    1  A    between atoms: O1_2  and  C2_3
REMARK    2  A    between atoms: C2_3  and  C3_5
REMARK    3  A    between atoms: C3_5  and  O3_7
REMARK    4  A    between atoms: O3_7  and  C5_8
REMARK    5  A    between atoms: C5_8  and  C6_12
REMARK    6  A    between atoms: C11_17  and  N2_18
REMARK    7  A    between atoms: C15_25  and  C16_26
ROOT
HETATM    1  C6  UNL     1      19.569 -21.944 -21.610  1.00  0.00     0.048 A
HETATM    2  C7  UNL     1      20.937 -21.871 -21.969  1.00  0.00     0.027 A
HETATM    3  C8  UNL     1      21.883 -22.801 -21.596  1.00  0.00    -0.028 A
HETATM    4  C9  UNL     1      21.426 -23.842 -20.831  1.00  0.00     0.010 A
HETATM    5  C10 UNL     1      20.125 -23.959 -20.461  1.00  0.00     0.056 A
HETATM    6  C11 UNL     1      19.162 -22.991 -20.857  1.00  0.00     0.118 A
HETATM    7  S1  UNL     1      22.621 -25.082 -20.312  1.00  0.00    -0.125 SA
HETATM    8  C12 UNL     1      24.201 -24.657 -21.059  1.00  0.00     0.049 C
HETATM    9  C13 UNL     1      25.320 -25.142 -20.159  1.00  0.00     0.021 C
HETATM   10  C14 UNL     1      24.304 -23.157 -21.158  1.00  0.00     0.033 C
HETATM   11  C15 UNL     1      23.254 -22.573 -22.056  1.00  0.00     0.110 C
ENDROOT
BRANCH   1  12
HETATM   12  C5  UNL     1      18.735 -20.829 -21.962  1.00  0.00     0.149 C
HETATM   13  N1  UNL     1      18.287 -20.723 -23.162  1.00  0.00    -0.379 N
ATOM     14  H12 UNL     1      17.694 -19.932 -23.411  1.00  0.00     0.158 HD
ATOM     15  H11 UNL     1      18.556 -21.466 -23.806  1.00  0.00     0.158 HD
BRANCH  12  16
HETATM   16  O3  UNL     1      18.368 -19.816 -21.081  1.00  0.00    -0.320 OA
BRANCH  16  17
HETATM   17  C3  UNL     1      18.619 -18.461 -21.295  1.00  0.00     0.226 C
HETATM   18  C4  UNL     1      20.093 -18.126 -21.212  1.00  0.00     0.051 C
BRANCH  17  19
HETATM   19  C2  UNL     1      17.789 -17.549 -20.516  1.00  0.00     0.287 C
HETATM   20  O2  UNL     1      18.347 -16.459 -20.146  1.00  0.00    -0.262 OA
BRANCH  19  21
HETATM   21  O1  UNL     1      16.479 -17.733 -20.139  1.00  0.00    -0.324 OA
HETATM   22  C1  UNL     1      15.886 -16.869 -19.165  1.00  0.00     0.213 C
ENDBRANCH  19  21
ENDBRANCH  17  19
ENDBRANCH  16  17
ENDBRANCH  12  16
ENDBRANCH   1  12
BRANCH   6  23
HETATM   23  N2  UNL     1      17.846 -23.271 -20.417  1.00  0.00    -0.115 N
HETATM   24  O4  UNL     1      17.693 -23.358 -19.132  1.00  0.00    -0.532 OA
HETATM   25  O5  UNL     1      16.760 -23.436 -21.203  1.00  0.00    -0.532 OA
ENDBRANCH   6  23
BRANCH  11  26
HETATM   26  C16 UNL     1      23.404 -22.997 -23.465  1.00  0.00     0.239 C
HETATM   27  N3  UNL     1      22.706 -24.075 -24.056  1.00  0.00    -0.062 NA
HETATM   28  O6  UNL     1      24.206 -22.361 -24.193  1.00  0.00    -0.276 OA
ENDBRANCH  11  26
TORSDOF 7
ENDMDL