MODEL 3
REMARK VINA RESULT: -5.775903839      5.793      9.109
REMARK  5 active torsions:
REMARK  status: ('A' for Active; 'I' for Inactive)
REMARK    1  A    between atoms: O1_2  and  C2_3
REMARK    2  A    between atoms: C10_13  and  O4_14
REMARK    3  A    between atoms: C12_17  and  S1_18
REMARK    4  A    between atoms: C14_20  and  O6_21
REMARK    5  A    between atoms: C16_23  and  O7_24
ROOT
HETATM    1  C2  UNL     1      22.251 -27.751 -14.195  1.00  0.00     0.104 A
HETATM    2  C3  UNL     1      22.832 -27.767 -15.441  1.00  0.00     0.078 A
HETATM    3  C4  UNL     1      22.215 -27.055 -16.452  1.00  0.00     0.095 A
HETATM    4  O2  UNL     1      22.736 -27.041 -17.662  1.00  0.00    -0.274 OA
HETATM    5  C5  UNL     1      22.188 -26.385 -18.637  1.00  0.00     0.297 A
HETATM    6  O3  UNL     1      22.704 -26.379 -19.810  1.00  0.00    -0.259 OA
HETATM    7  C6  UNL     1      21.024 -25.672 -18.426  1.00  0.00     0.054 A
HETATM    8  C7  UNL     1      20.428 -25.643 -17.186  1.00  0.00     0.096 A
HETATM    9  C8  UNL     1      21.053 -26.359 -16.187  1.00  0.00     0.035 A
HETATM   10  C9  UNL     1      20.487 -26.358 -14.922  1.00  0.00     0.056 A
HETATM   11  C10 UNL     1      21.091 -27.064 -13.907  1.00  0.00     0.102 A
HETATM   12  O5  UNL     1      19.274 -24.995 -16.784  1.00  0.00    -0.331 OA
HETATM   13  C12 UNL     1      18.131 -24.680 -17.511  1.00  0.00     0.221 C
HETATM   14  C14 UNL     1      18.505 -24.001 -18.798  1.00  0.00     0.189 C
HETATM   15  C16 UNL     1      19.102 -24.931 -19.815  1.00  0.00     0.155 C
HETATM   16  C17 UNL     1      20.602 -25.018 -19.671  1.00  0.00     0.082 C
ENDROOT
BRANCH   1  17
HETATM   17  O1  UNL     1      22.829 -28.451 -13.141  1.00  0.00    -0.353 OA
HETATM   18  C1  UNL     1      23.976 -27.942 -12.486  1.00  0.00     0.210 C
ENDBRANCH   1  17
BRANCH  11  19
HETATM   19  O4  UNL     1      20.521 -27.058 -12.649  1.00  0.00    -0.353 OA
HETATM   20  C11 UNL     1      19.464 -27.926 -12.366  1.00  0.00     0.210 C
ENDBRANCH  11  19
BRANCH  13  21
HETATM   21  S1  UNL     1      17.089 -26.111 -17.709  1.00  0.00    -0.139 SA
HETATM   22  C13 UNL     1      17.619 -27.529 -16.751  1.00  0.00     0.092 C
ENDBRANCH  13  21
BRANCH  15  23
HETATM   23  O7  UNL     1      18.516 -26.170 -19.867  1.00  0.00    -0.393 OA
ATOM     24  H7  UNL     1      18.964 -26.794 -20.425  1.00  0.00     0.210 HD
ENDBRANCH  15  23
BRANCH  14  25
HETATM   25  O6  UNL     1      17.439 -23.314 -19.368  1.00  0.00    -0.385 OA
HETATM   26  C15 UNL     1      17.833 -22.648 -20.546  1.00  0.00     0.202 C
ENDBRANCH  14  25
TORSDOF 5
ENDMDL