MODEL 1
REMARK VINA RESULT: -7.042653273      0.000      0.000
REMARK  6 active torsions:
REMARK  status: ('A' for Active; 'I' for Inactive)
REMARK    1  A    between atoms: C2_2  and  C4_4
REMARK    2  A    between atoms: C9_9  and  C10_10
REMARK    3  A    between atoms: N1_11  and  N2_13
REMARK    4  A    between atoms: N2_13  and  C11_14
REMARK    5  A    between atoms: N2_13  and  C13_16
REMARK    6  A    between atoms: N6_29  and  O2_30
ROOT
HETATM    1  C13 UNL     1      18.327 -20.120 -21.441  1.00  0.00     0.730 A
HETATM    2  N3  UNL     1      17.306 -19.417 -20.863  1.00  0.00    -0.170 N
ATOM      3  H3  UNL     1      16.397 -19.866 -20.744  1.00  0.00     0.186 HD
HETATM    4  C14 UNL     1      17.471 -18.152 -20.450  1.00  0.00     0.155 A
HETATM    5  C15 UNL     1      18.727 -17.605 -20.639  1.00  0.00     0.104 A
HETATM    6  C16 UNL     1      18.631 -16.317 -20.136  1.00  0.00     0.042 A
HETATM    7  C17 UNL     1      19.774 -15.367 -20.143  1.00  0.00     0.071 C
HETATM    8  N4  UNL     1      17.371 -16.150 -19.681  1.00  0.00    -0.301 N
ATOM      9  H4  UNL     1      17.018 -15.294 -19.254  1.00  0.00     0.187 HD
HETATM   10  N5  UNL     1      16.658 -17.249 -19.864  1.00  0.00    -0.280 N
HETATM   11  C18 UNL     1      15.249 -17.456 -19.497  1.00  0.00     0.179 C
HETATM   12  C19 UNL     1      19.751 -18.327 -21.224  1.00  0.00     0.304 A
HETATM   13  O1  UNL     1      20.899 -17.807 -21.392  1.00  0.00    -0.264 OA
HETATM   14  N6  UNL     1      19.552 -19.592 -21.627  1.00  0.00    -0.011 N
ENDROOT
BRANCH   1  15
HETATM   15  N2  UNL     1      18.113 -21.459 -21.858  1.00  0.00    -0.122 N
BRANCH  15  16
HETATM   16  N1  UNL     1      17.516 -22.364 -21.035  1.00  0.00    -0.299 N
HETATM   17  C10 UNL     1      17.946 -23.220 -20.230  1.00  0.00     0.086 C
ATOM     18  H1  UNL     1      16.497 -22.340 -21.086  1.00  0.00     0.186 HD
BRANCH  17  19
HETATM   19  C9  UNL     1      19.388 -23.505 -19.925  1.00  0.00     0.034 C
HETATM   20  C4  UNL     1      19.859 -24.544 -20.896  1.00  0.00     0.022 C
HETATM   21  C5  UNL     1      19.474 -25.895 -20.319  1.00  0.00     0.010 C
HETATM   22  C6  UNL     1      20.240 -26.215 -19.074  1.00  0.00     0.001 C
HETATM   23  C7  UNL     1      20.364 -25.042 -18.162  1.00  0.00     0.001 C
HETATM   24  C8  UNL     1      19.427 -23.939 -18.500  1.00  0.00     0.010 C
BRANCH  20  25
HETATM   25  C2  UNL     1      21.260 -24.468 -21.298  1.00  0.00    -0.088 C
HETATM   26  C1  UNL     1      22.073 -23.491 -20.956  1.00  0.00     0.014 C
HETATM   27  C3  UNL     1      21.802 -25.561 -22.150  1.00  0.00     0.043 C
ENDBRANCH  20  25
ENDBRANCH  17  19
ENDBRANCH  15  16
BRANCH  15  28
HETATM   28  C11 UNL     1      18.555 -21.841 -23.175  1.00  0.00     0.163 C
HETATM   29  C12 UNL     1      17.786 -23.099 -23.607  1.00  0.00     0.029 C
ENDBRANCH  15  28
ENDBRANCH   1  15
BRANCH  14  30
HETATM   30  O2  UNL     1      20.576 -20.335 -22.215  1.00  0.00    -0.266 OA
ATOM     31  H2  UNL     1      20.580 -20.516 -23.147  1.00  0.00     0.246 HD
ENDBRANCH  14  30
TORSDOF 6
ENDMDL