MODEL 4
REMARK VINA RESULT: -5.781358193      1.783      5.412
REMARK  7 active torsions:
REMARK  status: ('A' for Active; 'I' for Inactive)
REMARK    1  A    between atoms: C2_2  and  N1_3
REMARK    2  A    between atoms: N1_3  and  C3_5
REMARK    3  A    between atoms: C4_7  and  C5_8
REMARK    4  A    between atoms: N4_17  and  C9_18
REMARK    5  A    between atoms: N5_21  and  C12_22
REMARK    6  A    between atoms: C12_22  and  C13_23
REMARK    7  A    between atoms: C13_23  and  O1_25
ROOT
HETATM    1  C3  UNL     1      19.149 -22.936 -21.446  1.00  0.00     0.164 A
HETATM    2  S1  UNL     1      19.099 -23.923 -22.845  1.00  0.00    -0.031 SA
HETATM    3  C4  UNL     1      18.674 -22.727 -23.969  1.00  0.00     0.126 A
HETATM    4  N3  UNL     1      18.596 -21.658 -23.210  1.00  0.00    -0.287 N
ATOM      5  H3  UNL     1      18.350 -20.758 -23.622  1.00  0.00     0.188 HD
HETATM    6  N4  UNL     1      18.830 -21.742 -21.947  1.00  0.00    -0.265 N
ENDROOT
BRANCH   6   7
HETATM    7  C9  UNL     1      18.741 -20.527 -21.104  1.00  0.00     0.114 C
HETATM    8  C10 UNL     1      19.464 -19.444 -21.898  1.00  0.00     0.057 C
HETATM    9  C11 UNL     1      19.545 -18.158 -21.103  1.00  0.00     0.274 C
HETATM   10  N5  UNL     1      18.280 -17.913 -20.416  1.00  0.00     0.091 N
HETATM   11  C15 UNL     1      17.195 -18.660 -21.036  1.00  0.00     0.274 C
HETATM   12  C16 UNL     1      17.363 -20.151 -20.733  1.00  0.00     0.057 C
BRANCH  10  13
HETATM   13  C12 UNL     1      17.973 -16.512 -20.639  1.00  0.00     0.303 C
BRANCH  13  14
HETATM   14  C13 UNL     1      18.557 -15.635 -19.557  1.00  0.00     0.142 C
HETATM   15  C14 UNL     1      17.777 -15.819 -18.252  1.00  0.00     0.041 C
BRANCH  14  16
HETATM   16  O1  UNL     1      18.487 -14.291 -19.879  1.00  0.00    -0.394 OA
ATOM     17  H1  UNL     1      17.598 -14.014 -20.066  1.00  0.00     0.210 HD
ENDBRANCH  14  16
ENDBRANCH  13  14
ENDBRANCH  10  13
ENDBRANCH   6   7
BRANCH   1  18
HETATM   18  N1  UNL     1      19.426 -23.268 -20.205  1.00  0.00    -0.370 N
ATOM     19  H1  UNL     1      20.370 -23.182 -19.828  1.00  0.00     0.161 HD
BRANCH  18  20
HETATM   20  C2  UNL     1      18.317 -23.768 -19.386  1.00  0.00     0.117 C
HETATM   21  C1  UNL     1      18.791 -24.237 -18.041  1.00  0.00     0.026 C
ENDBRANCH  18  20
ENDBRANCH   1  18
BRANCH   3  22
HETATM   22  C5  UNL     1      18.427 -22.746 -25.424  1.00  0.00     0.110 A
HETATM   23  N2  UNL     1      17.266 -22.608 -26.053  1.00  0.00    -0.352 N
HETATM   24  C6  UNL     1      17.223 -22.649 -27.345  1.00  0.00     0.012 A
ATOM     25  H2  UNL     1      16.409 -22.469 -25.518  1.00  0.00     0.166 HD
HETATM   26  C7  UNL     1      15.911 -22.498 -28.110  1.00  0.00     0.068 C
HETATM   27  C8  UNL     1      18.411 -22.840 -28.013  1.00  0.00     0.076 A
HETATM   28  S2  UNL     1      19.519 -22.947 -26.718  1.00  0.00    -0.079 SA
ENDBRANCH   3  22
TORSDOF 7
ENDMDL