MODEL 4
REMARK VINA RESULT: -5.090292352      1.727      7.402
REMARK  8 active torsions:
REMARK  status: ('A' for Active; 'I' for Inactive)
REMARK    1  A    between atoms: C2_2  and  O1_3
REMARK    2  A    between atoms: O1_3  and  C3_4
REMARK    3  A    between atoms: C8_9  and  O2_10
REMARK    4  A    between atoms: O2_10  and  C9_11
REMARK    5  A    between atoms: C9_11  and  O3_12
REMARK    6  A    between atoms: C9_11  and  C10_14
REMARK    7  A    between atoms: C14_19  and  C15_20
REMARK    8  A    between atoms: C15_20  and  O6_22
ROOT
HETATM    1  C3  UNL     1      18.454 -21.700 -21.504  1.00  0.00     0.104 A
HETATM    2  C4  UNL     1      17.849 -22.244 -20.400  1.00  0.00     0.079 A
HETATM    3  C5  UNL     1      18.213 -23.498 -19.913  1.00  0.00     0.106 A
HETATM    4  C6  UNL     1      19.196 -24.250 -20.518  1.00  0.00     0.106 A
HETATM    5  C7  UNL     1      19.812 -23.702 -21.639  1.00  0.00     0.079 A
HETATM    6  C8  UNL     1      19.454 -22.462 -22.122  1.00  0.00     0.108 A
HETATM    7  O4  UNL     1      19.514 -25.471 -20.002  1.00  0.00    -0.330 OA
HETATM    8  C14 UNL     1      18.791 -26.142 -18.994  1.00  0.00     0.262 C
HETATM    9  C17 UNL     1      17.966 -25.207 -18.147  1.00  0.00     0.096 C
HETATM   10  C18 UNL     1      18.748 -24.942 -16.874  1.00  0.00     0.049 C
HETATM   11  C19 UNL     1      16.665 -25.923 -17.758  1.00  0.00     0.049 C
HETATM   12  O7  UNL     1      17.597 -24.032 -18.803  1.00  0.00    -0.335 OA
ENDROOT
BRANCH   6  13
HETATM   13  O2  UNL     1      20.059 -21.915 -23.229  1.00  0.00    -0.317 OA
BRANCH  13  14
HETATM   14  C9  UNL     1      20.119 -22.410 -24.517  1.00  0.00     0.271 C
BRANCH  14  15
HETATM   15  O3  UNL     1      19.633 -21.429 -25.409  1.00  0.00    -0.370 OA
ATOM     16  H3  UNL     1      20.219 -21.373 -26.154  1.00  0.00     0.212 HD
ENDBRANCH  14  15
BRANCH  14  17
HETATM   17  C10 UNL     1      21.557 -22.737 -24.879  1.00  0.00    -0.001 C
HETATM   18  C11 UNL     1      22.502 -21.977 -23.986  1.00  0.00     0.019 C
HETATM   19  C12 UNL     1      21.767 -22.359 -26.324  1.00  0.00     0.019 C
HETATM   20  C13 UNL     1      21.753 -24.223 -24.727  1.00  0.00     0.019 C
ENDBRANCH  14  17
ENDBRANCH  13  14
ENDBRANCH   6  13
BRANCH   1  21
HETATM   21  O1  UNL     1      18.147 -20.476 -22.036  1.00  0.00    -0.349 OA
BRANCH  21  22
HETATM   22  C2  UNL     1      17.964 -19.269 -21.375  1.00  0.00     0.171 C
HETATM   23  C1  UNL     1      19.232 -18.477 -21.188  1.00  0.00     0.034 C
ENDBRANCH  21  22
ENDBRANCH   1  21
BRANCH   8  24
HETATM   24  C15 UNL     1      19.770 -26.924 -18.193  1.00  0.00     0.291 C
HETATM   25  O5  UNL     1      19.444 -27.957 -17.547  1.00  0.00    -0.262 OA
BRANCH  24  26
HETATM   26  O6  UNL     1      21.116 -26.557 -18.109  1.00  0.00    -0.324 OA
HETATM   27  C16 UNL     1      21.924 -27.003 -17.033  1.00  0.00     0.213 C
ENDBRANCH  24  26
ENDBRANCH   8  24
TORSDOF 8
ENDMDL