MODEL 2
REMARK VINA RESULT: -7.690235277      2.273      5.424
REMARK  6 active torsions:
REMARK  status: ('A' for Active; 'I' for Inactive)
REMARK    1  A    between atoms: C3_5  and  C4_6
REMARK    2  A    between atoms: C4_6  and  N2_7
REMARK    3  A    between atoms: N2_7  and  C5_8
REMARK    4  A    between atoms: N2_7  and  C13_20
REMARK    5  A    between atoms: C5_8  and  C6_9
REMARK    6  A    between atoms: C13_20  and  C14_21
ROOT
HETATM    1  C1  UNL     1     -11.288  -8.334   3.706  1.00  0.00     0.070 C
HETATM    2  C2  UNL     1      -9.986  -7.797   3.220  1.00  0.00     0.029 A
HETATM    3  N1  UNL     1      -9.470  -8.161   2.020  1.00  0.00    -0.347 N
ATOM      4  H1  UNL     1      -9.984  -8.818   1.433  1.00  0.00     0.167 HD
HETATM    5  C3  UNL     1      -8.303  -7.677   1.591  1.00  0.00     0.100 A
HETATM    6  N5  UNL     1      -7.639  -6.819   2.367  1.00  0.00    -0.347 N
ATOM      7  H5  UNL     1      -6.748  -6.451   2.035  1.00  0.00     0.167 HD
HETATM    8  C17 UNL     1      -8.091  -6.415   3.568  1.00  0.00     0.029 A
HETATM    9  C18 UNL     1      -7.304  -5.449   4.402  1.00  0.00     0.070 C
HETATM   10  C19 UNL     1      -9.293  -6.913   4.011  1.00  0.00     0.088 A
HETATM   11  C20 UNL     1      -9.808  -6.497   5.303  1.00  0.00     0.103 C
HETATM   12  N6  UNL     1     -10.210  -6.146   6.334  1.00  0.00    -0.191 NA
ENDROOT
BRANCH   5  13
HETATM   13  C4  UNL     1      -7.792  -8.122   0.258  1.00  0.00     0.198 C
BRANCH  13  14
HETATM   14  N2  UNL     1      -8.160  -7.241  -0.787  1.00  0.00    -0.381 N
BRANCH  14  15
HETATM   15  C5  UNL     1      -9.232  -7.590  -1.624  1.00  0.00     0.117 C
BRANCH  15  16
HETATM   16  C6  UNL     1     -10.526  -6.897  -1.399  1.00  0.00     0.071 A
HETATM   17  N3  UNL     1     -11.638  -7.365  -0.820  1.00  0.00    -0.299 N
HETATM   18  N4  UNL     1     -12.540  -6.381  -0.805  1.00  0.00    -0.304 N
ATOM     19  H3  UNL     1     -11.773  -8.307  -0.454  1.00  0.00     0.187 HD
HETATM   20  C7  UNL     1     -12.048  -5.274  -1.361  1.00  0.00     0.034 A
ATOM     21  H4  UNL     1     -13.481  -6.465  -0.420  1.00  0.00     0.186 HD
HETATM   22  C8  UNL     1     -10.783  -5.557  -1.748  1.00  0.00    -0.005 A
HETATM   23  C12 UNL     1     -12.560  -3.889  -1.630  1.00  0.00     0.059 C
HETATM   24  C9  UNL     1      -9.905  -4.578  -2.407  1.00  0.00     0.043 C
HETATM   25  C10 UNL     1     -10.591  -3.477  -3.126  1.00  0.00     0.005 C
HETATM   26  C11 UNL     1     -12.066  -3.390  -2.969  1.00  0.00     0.006 C
ENDBRANCH  15  16
ENDBRANCH  14  15
BRANCH  14  27
HETATM   27  C13 UNL     1      -7.119  -6.477  -1.384  1.00  0.00     0.126 C
BRANCH  27  28
HETATM   28  C14 UNL     1      -6.291  -7.323  -2.316  1.00  0.00    -0.005 C
HETATM   29  C15 UNL     1      -4.812  -7.099  -2.114  1.00  0.00     0.011 C
HETATM   30  C16 UNL     1      -6.583  -6.949  -3.780  1.00  0.00     0.011 C
ENDBRANCH  27  28
ENDBRANCH  14  27
ENDBRANCH  13  14
ENDBRANCH   5  13
TORSDOF 6
ENDMDL