MODEL 4
REMARK VINA RESULT: -6.323581141      1.956      3.007
REMARK  7 active torsions:
REMARK  status: ('A' for Active; 'I' for Inactive)
REMARK    1  A    between atoms: C7_7  and  C8_8
REMARK    2  A    between atoms: C8_8  and  O1_9
REMARK    3  A    between atoms: O1_9  and  C9_10
REMARK    4  A    between atoms: C9_10  and  C10_11
REMARK    5  A    between atoms: C10_11  and  C11_12
REMARK    6  A    between atoms: C11_12  and  O2_13
REMARK    7  A    between atoms: C11_12  and  C12_15
ROOT
HETATM    1  C1  UNL     1      -8.637  -6.347   4.427  1.00  0.00     0.040 C
HETATM    2  C2  UNL     1      -7.540  -7.365   4.234  1.00  0.00     0.127 C
HETATM    3  C3  UNL     1      -6.783  -7.229   2.983  1.00  0.00     0.032 C
HETATM    4  C4  UNL     1      -7.284  -6.274   1.956  1.00  0.00     0.006 C
HETATM    5  C5  UNL     1      -7.106  -6.963   0.620  1.00  0.00     0.030 C
HETATM    6  C6  UNL     1      -8.243  -6.753  -0.305  1.00  0.00     0.008 C
HETATM    7  C7  UNL     1      -9.202  -7.594  -0.650  1.00  0.00     0.066 C
HETATM    8  O3  UNL     1      -9.344  -8.890  -0.201  1.00  0.00    -0.353 OA
HETATM    9  C16 UNL     1      -9.459  -9.432   1.076  1.00  0.00     0.176 C
HETATM   10  C17 UNL     1      -8.539 -10.563   1.380  1.00  0.00     0.036 C
HETATM   11  C18 UNL     1      -7.983 -10.620   2.768  1.00  0.00     0.113 C
HETATM   12  C19 UNL     1      -8.581  -9.634   3.714  1.00  0.00     0.259 C
HETATM   13  O4  UNL     1      -9.851  -9.837   3.817  1.00  0.00    -0.265 OA
HETATM   14  O5  UNL     1      -7.996  -8.657   4.401  1.00  0.00    -0.316 OA
ENDROOT
BRANCH   7  15
HETATM   15  C8  UNL     1     -10.241  -7.076  -1.637  1.00  0.00     0.231 C
BRANCH  15  16
HETATM   16  O1  UNL     1     -10.271  -5.686  -1.624  1.00  0.00    -0.385 OA
BRANCH  16  17
HETATM   17  C9  UNL     1     -11.523  -5.156  -1.722  1.00  0.00     0.170 C
BRANCH  17  18
HETATM   18  C10 UNL     1     -11.637  -3.912  -2.536  1.00  0.00     0.058 C
BRANCH  18  19
HETATM   19  C11 UNL     1     -10.571  -3.857  -3.633  1.00  0.00     0.127 C
BRANCH  19  20
HETATM   20  O2  UNL     1      -9.352  -3.456  -3.094  1.00  0.00    -0.395 OA
ATOM     21  H2  UNL     1      -8.723  -4.165  -3.148  1.00  0.00     0.210 HD
ENDBRANCH  19  20
BRANCH  19  22
HETATM   22  C12 UNL     1     -10.970  -2.813  -4.660  1.00  0.00    -0.025 C
HETATM   23  C13 UNL     1      -9.734  -2.060  -5.145  1.00  0.00     0.017 C
HETATM   24  C14 UNL     1     -11.985  -1.850  -4.116  1.00  0.00     0.017 C
HETATM   25  C15 UNL     1     -11.571  -3.472  -5.881  1.00  0.00     0.017 C
ENDBRANCH  19  22
ENDBRANCH  18  19
ENDBRANCH  17  18
ENDBRANCH  16  17
ENDBRANCH  15  16
ENDBRANCH   7  15
TORSDOF 7
ENDMDL