MODEL 3
REMARK VINA RESULT: -6.920446921      3.030      3.945
REMARK  6 active torsions:
REMARK  status: ('A' for Active; 'I' for Inactive)
REMARK    1  A    between atoms: O1_2  and  C2_3
REMARK    2  A    between atoms: C6_7  and  C7_8
REMARK    3  A    between atoms: C9_12  and  N2_13
REMARK    4  A    between atoms: N2_13  and  C10_15
REMARK    5  A    between atoms: C10_15  and  C11_16
REMARK    6  A    between atoms: C17_26  and  O2_27
ROOT
HETATM    1  C7  UNL     1      -8.335  -7.169   0.360  1.00  0.00     0.078 A
HETATM    2  C8  UNL     1      -8.578  -6.356  -0.727  1.00  0.00     0.138 A
HETATM    3  N1  UNL     1      -7.648  -6.239  -1.702  1.00  0.00    -0.199 N
ATOM      4  H1  UNL     1      -7.845  -5.635  -2.499  1.00  0.00     0.183 HD
HETATM    5  C9  UNL     1      -6.465  -6.898  -1.656  1.00  0.00     0.692 A
HETATM    6  N3  UNL     1      -6.266  -7.680  -0.581  1.00  0.00    -0.132 N
ATOM      7  H3  UNL     1      -5.389  -8.194  -0.509  1.00  0.00     0.205 HD
HETATM    8  N4  UNL     1      -7.157  -7.814   0.388  1.00  0.00    -0.284 N
ATOM      9  H4  UNL     1      -6.943  -8.423   1.178  1.00  0.00     0.187 HD
ENDROOT
BRANCH   1  10
HETATM   10  C6  UNL     1      -9.323  -7.321   1.441  1.00  0.00     0.033 A
HETATM   11  C4  UNL     1     -10.642  -7.637   1.191  1.00  0.00    -0.044 A
HETATM   12  C3  UNL     1     -11.532  -7.768   2.260  1.00  0.00     0.044 A
HETATM   13  C5  UNL     1     -11.087  -7.832  -0.213  1.00  0.00     0.049 C
HETATM   14  C2  UNL     1     -11.139  -7.593   3.560  1.00  0.00     0.071 A
HETATM   15  C19 UNL     1      -9.818  -7.277   3.797  1.00  0.00     0.074 A
HETATM   16  C17 UNL     1      -8.917  -7.142   2.763  1.00  0.00     0.084 A
BRANCH  14  17
HETATM   17  O1  UNL     1     -11.977  -7.709   4.660  1.00  0.00    -0.356 OA
HETATM   18  C1  UNL     1     -11.699  -6.876   5.780  1.00  0.00     0.210 C
ENDBRANCH  14  17
BRANCH  16  19
HETATM   19  O2  UNL     1      -7.599  -6.823   3.053  1.00  0.00    -0.355 OA
HETATM   20  C18 UNL     1      -7.244  -5.537   3.481  1.00  0.00     0.210 C
ENDBRANCH  16  19
ENDBRANCH   1  10
BRANCH   5  21
HETATM   21  N2  UNL     1      -5.593  -6.773  -2.596  1.00  0.00    -0.224 N
ATOM     22  H2  UNL     1      -5.855  -6.274  -3.446  1.00  0.00     0.177 HD
BRANCH  21  23
HETATM   23  C10 UNL     1      -4.256  -7.314  -2.488  1.00  0.00     0.142 C
BRANCH  23  24
HETATM   24  C11 UNL     1      -4.137  -8.644  -3.204  1.00  0.00     0.004 C
HETATM   25  C12 UNL     1      -2.708  -9.111  -3.281  1.00  0.00     0.006 C
HETATM   26  C13 UNL     1      -2.088  -8.522  -4.532  1.00  0.00     0.000 C
HETATM   27  C14 UNL     1      -2.679  -9.269  -5.726  1.00  0.00     0.000 C
HETATM   28  C15 UNL     1      -4.139  -9.545  -5.493  1.00  0.00     0.000 C
HETATM   29  C16 UNL     1      -4.765  -8.520  -4.553  1.00  0.00     0.006 C
ENDBRANCH  23  24
ENDBRANCH  21  23
ENDBRANCH   5  21
TORSDOF 6
ENDMDL