MODEL 2
REMARK VINA RESULT: -7.705696791      3.255      5.294
REMARK  8 active torsions:
REMARK  status: ('A' for Active; 'I' for Inactive)
REMARK    1  A    between atoms: C2_2  and  C3_3
REMARK    2  A    between atoms: C3_3  and  C4_4
REMARK    3  A    between atoms: N1_7  and  C7_8
REMARK    4  A    between atoms: C7_8  and  C8_13
REMARK    5  A    between atoms: N2_9  and  O1_11
REMARK    6  A    between atoms: C11_18  and  O2_19
REMARK    7  A    between atoms: O2_19  and  C12_20
REMARK    8  A    between atoms: C12_20  and  C13_21
ROOT
HETATM    1  C8  UNL     1      -9.286  -7.121   0.125  1.00  0.00     0.015 A
HETATM    2  C9  UNL     1      -9.893  -8.102   0.891  1.00  0.00     0.032 A
HETATM    3  C10 UNL     1     -11.252  -8.290   0.758  1.00  0.00     0.091 A
HETATM    4  N3  UNL     1     -11.998  -7.556  -0.086  1.00  0.00    -0.347 N
ATOM      5  H3  UNL     1     -13.001  -7.730  -0.154  1.00  0.00     0.167 HD
HETATM    6  C11 UNL     1     -11.444  -6.608  -0.833  1.00  0.00     0.142 A
HETATM    7  C19 UNL     1     -10.075  -6.385  -0.731  1.00  0.00     0.071 A
ENDROOT
BRANCH   1   8
HETATM    8  C7  UNL     1      -7.865  -6.838   0.175  1.00  0.00     0.133 C
HETATM    9  N2  UNL     1      -7.213  -6.502   1.212  1.00  0.00    -0.252 N
ATOM     10  H2  UNL     1      -6.215  -6.329   1.089  1.00  0.00     0.196 HD
BRANCH   8  11
HETATM   11  N1  UNL     1      -7.182  -6.958  -1.092  1.00  0.00    -0.365 N
HETATM   12  C6  UNL     1      -7.665  -6.537  -2.389  1.00  0.00     0.125 C
HETATM   13  C5  UNL     1      -6.653  -7.093  -3.365  1.00  0.00     0.026 C
HETATM   14  C4  UNL     1      -5.380  -7.083  -2.546  1.00  0.00     0.009 C
HETATM   15  C20 UNL     1      -5.864  -7.547  -1.192  1.00  0.00     0.129 C
BRANCH  14  16
HETATM   16  C3  UNL     1      -4.337  -8.018  -3.103  1.00  0.00     0.032 C
BRANCH  16  17
HETATM   17  C2  UNL     1      -4.754  -8.544  -4.410  1.00  0.00    -0.036 C
HETATM   18  C1  UNL     1      -4.291  -9.702  -4.860  1.00  0.00     0.007 C
ENDBRANCH  16  17
ENDBRANCH  14  16
ENDBRANCH   8  11
BRANCH   9  19
HETATM   19  O1  UNL     1      -7.705  -6.348   2.465  1.00  0.00    -0.288 OA
ATOM     20  H1  UNL     1      -7.270  -5.930   3.199  1.00  0.00     0.244 HD
ENDBRANCH   9  19
ENDBRANCH   1   8
BRANCH   6  21
HETATM   21  O2  UNL     1     -12.213  -5.854  -1.702  1.00  0.00    -0.335 OA
BRANCH  21  22
HETATM   22  C12 UNL     1     -12.116  -4.442  -1.677  1.00  0.00     0.182 C
BRANCH  22  23
HETATM   23  C13 UNL     1     -11.711  -3.880  -3.018  1.00  0.00     0.010 C
HETATM   24  C14 UNL     1     -10.216  -3.639  -3.001  1.00  0.00     0.007 C
HETATM   25  C15 UNL     1      -9.802  -3.202  -4.379  1.00  0.00     0.000 C
HETATM   26  C16 UNL     1     -10.591  -2.060  -4.919  1.00  0.00     0.000 C
HETATM   27  C17 UNL     1     -12.074  -2.183  -4.719  1.00  0.00     0.000 C
HETATM   28  C18 UNL     1     -12.364  -2.534  -3.264  1.00  0.00     0.007 C
ENDBRANCH  22  23
ENDBRANCH  21  22
ENDBRANCH   6  21
TORSDOF 8
ENDMDL