MODEL 5
REMARK VINA RESULT: -6.330656783      4.147      6.500
REMARK  7 active torsions:
REMARK  status: ('A' for Active; 'I' for Inactive)
REMARK    1  A    between atoms: C2_2  and  C3_3
REMARK    2  A    between atoms: C3_3  and  N1_4
REMARK    3  A    between atoms: C6_9  and  C7_10
REMARK    4  A    between atoms: C8_11  and  C9_12
REMARK    5  A    between atoms: C9_12  and  C10_13
REMARK    6  A    between atoms: C11_14  and  C12_15
REMARK    7  A    between atoms: C12_15  and  O2_17
ROOT
HETATM    1  C10 UNL     1      -6.869  -7.636   0.655  1.00  0.00    -0.034 C
HETATM    2  C11 UNL     1      -8.172  -7.001   0.498  1.00  0.00     0.043 C
HETATM    3  C14 UNL     1      -8.697  -6.566   1.682  1.00  0.00     0.020 C
HETATM    4  C15 UNL     1      -7.979  -6.759   2.942  1.00  0.00     0.038 C
HETATM    5  C16 UNL     1      -8.998  -6.870   4.112  1.00  0.00     0.042 C
HETATM    6  C17 UNL     1      -7.161  -5.531   3.239  1.00  0.00     0.042 C
HETATM    7  N3  UNL     1      -7.182  -7.949   3.043  1.00  0.00    -0.398 N
ATOM      8  H3  UNL     1      -6.851  -8.303   3.941  1.00  0.00     0.155 HD
HETATM    9  C18 UNL     1      -6.876  -8.620   1.787  1.00  0.00     0.044 C
HETATM   10  C19 UNL     1      -7.843  -9.744   1.620  1.00  0.00     0.043 C
HETATM   11  C20 UNL     1      -5.470  -9.155   1.944  1.00  0.00     0.043 C
ENDROOT
BRANCH   1  12
HETATM   12  C9  UNL     1      -6.053  -8.012  -0.510  1.00  0.00     0.065 C
BRANCH  12  13
HETATM   13  C8  UNL     1      -5.410  -6.871  -1.214  1.00  0.00    -0.020 C
HETATM   14  C7  UNL     1      -4.882  -6.838  -2.399  1.00  0.00     0.027 C
BRANCH  14  15
HETATM   15  C6  UNL     1      -4.740  -7.839  -3.418  1.00  0.00     0.050 A
HETATM   16  N1  UNL     1      -3.665  -8.655  -3.506  1.00  0.00    -0.338 N
HETATM   17  C4  UNL     1      -3.753  -9.480  -4.560  1.00  0.00     0.183 A
HETATM   18  N2  UNL     1      -4.891  -9.207  -5.171  1.00  0.00    -0.360 N
HETATM   19  C5  UNL     1      -5.520  -8.201  -4.494  1.00  0.00     0.118 A
ATOM     20  H2  UNL     1      -5.242  -9.669  -6.009  1.00  0.00     0.166 HD
BRANCH  16  21
HETATM   21  C3  UNL     1      -2.505  -8.690  -2.617  1.00  0.00     0.156 C
BRANCH  21  22
HETATM   22  C2  UNL     1      -2.717  -9.619  -1.492  1.00  0.00    -0.017 C
HETATM   23  C1  UNL     1      -2.485  -9.289  -0.248  1.00  0.00     0.008 C
ENDBRANCH  21  22
ENDBRANCH  16  21
ENDBRANCH  14  15
ENDBRANCH  12  13
ENDBRANCH   1  12
BRANCH   2  24
HETATM   24  C12 UNL     1      -8.926  -6.873  -0.713  1.00  0.00     0.293 C
HETATM   25  O1  UNL     1      -8.699  -6.013  -1.586  1.00  0.00    -0.259 OA
BRANCH  24  26
HETATM   26  O2  UNL     1     -10.002  -7.755  -0.977  1.00  0.00    -0.323 OA
HETATM   27  C13 UNL     1     -11.261  -7.206  -1.242  1.00  0.00     0.213 C
ENDBRANCH  24  26
ENDBRANCH   2  24
TORSDOF 7
ENDMDL