MODEL 2
REMARK VINA RESULT: -7.531510122      1.425      2.008
REMARK  8 active torsions:
REMARK  status: ('A' for Active; 'I' for Inactive)
REMARK    1  A    between atoms: C2_2  and  C3_3
REMARK    2  A    between atoms: C3_3  and  C4_4
REMARK    3  A    between atoms: C4_4  and  C5_5
REMARK    4  A    between atoms: C7_7  and  C8_8
REMARK    5  A    between atoms: C8_8  and  C9_9
REMARK    6  A    between atoms: C9_9  and  C10_10
REMARK    7  A    between atoms: C10_10  and  C11_11
REMARK    8  A    between atoms: C17_19  and  O3_20
ROOT
HETATM    1  C11 UNL     1      -9.202  -8.330   0.290  1.00  0.00     0.041 C
HETATM    2  C12 UNL     1      -8.110  -8.523   1.363  1.00  0.00     0.175 C
HETATM    3  O1  UNL     1      -6.896  -8.152   0.730  1.00  0.00    -0.382 OA
HETATM    4  C13 UNL     1      -7.311  -7.118   0.002  1.00  0.00     0.157 C
HETATM    5  C14 UNL     1      -8.407  -7.815  -0.828  1.00  0.00     0.157 C
HETATM    6  O2  UNL     1      -8.779  -6.794  -1.602  1.00  0.00    -0.377 OA
HETATM    7  C15 UNL     1      -7.574  -6.313  -2.145  1.00  0.00     0.131 C
HETATM    8  C16 UNL     1      -7.016  -7.142  -3.237  1.00  0.00     0.064 C
HETATM    9  C17 UNL     1      -5.521  -6.939  -3.095  1.00  0.00     0.124 C
HETATM   10  C18 UNL     1      -5.330  -7.049  -1.582  1.00  0.00     0.019 C
HETATM   11  C19 UNL     1      -4.940  -8.419  -1.165  1.00  0.00     0.013 C
HETATM   12  C20 UNL     1      -6.536  -6.463  -1.018  1.00  0.00     0.052 C
ENDROOT
BRANCH   1  13
HETATM   13  C10 UNL     1     -10.218  -7.367   0.774  1.00  0.00     0.010 C
BRANCH  13  14
HETATM   14  C9  UNL     1     -11.644  -7.719   0.607  1.00  0.00     0.007 C
BRANCH  14  15
HETATM   15  C8  UNL     1     -11.968  -7.540  -0.869  1.00  0.00     0.067 C
BRANCH  15  16
HETATM   16  C7  UNL     1     -12.327  -6.159  -1.190  1.00  0.00     0.078 A
HETATM   17  C6  UNL     1     -11.561  -5.291  -1.982  1.00  0.00     0.066 A
HETATM   18  C5  UNL     1     -12.200  -4.082  -2.071  1.00  0.00     0.057 A
HETATM   19  N1  UNL     1     -13.347  -4.296  -1.306  1.00  0.00    -0.261 N
HETATM   20  O4  UNL     1     -13.362  -5.480  -0.838  1.00  0.00    -0.242 OA
ATOM     21  H1  UNL     1     -14.074  -3.599  -1.143  1.00  0.00     0.195 HD
BRANCH  18  22
HETATM   22  C4  UNL     1     -11.911  -2.837  -2.724  1.00  0.00     0.031 C
BRANCH  22  23
HETATM   23  C3  UNL     1     -11.960  -2.505  -3.944  1.00  0.00     0.002 C
BRANCH  23  24
HETATM   24  C2  UNL     1     -11.128  -2.875  -5.052  1.00  0.00    -0.010 C
HETATM   25  C1  UNL     1      -9.780  -2.882  -4.872  1.00  0.00     0.011 C
ENDBRANCH  23  24
ENDBRANCH  22  23
ENDBRANCH  18  22
ENDBRANCH  15  16
ENDBRANCH  14  15
ENDBRANCH  13  14
ENDBRANCH   1  13
BRANCH   9  26
HETATM   26  O3  UNL     1      -4.781  -7.878  -3.778  1.00  0.00    -0.395 OA
ATOM     27  H3  UNL     1      -3.917  -8.014  -3.406  1.00  0.00     0.210 HD
ENDBRANCH   9  26
TORSDOF 8
ENDMDL