MODEL 1
REMARK VINA RESULT: -7.435257421      0.000      0.000
REMARK  7 active torsions:
REMARK  status: ('A' for Active; 'I' for Inactive)
REMARK    1  A    between atoms: C4_4  and  N1_5
REMARK    2  A    between atoms: C6_7  and  C7_8
REMARK    3  A    between atoms: C7_8  and  O1_9
REMARK    4  A    between atoms: C11_16  and  O2_17
REMARK    5  A    between atoms: O2_17  and  C12_18
REMARK    6  A    between atoms: C16_22  and  O3_23
REMARK    7  A    between atoms: O3_23  and  C17_24
ROOT
HETATM    1  C1  UNL     1     -11.661  -7.574   0.204  1.00  0.00     0.049 C
HETATM    2  C2  UNL     1     -10.774  -6.769  -0.640  1.00  0.00    -0.043 A
HETATM    3  C3  UNL     1     -11.259  -5.712  -1.426  1.00  0.00     0.056 A
HETATM    4  C4  UNL     1     -10.455  -4.937  -2.229  1.00  0.00     0.104 A
HETATM    5  N2  UNL     1      -9.161  -5.212  -2.252  1.00  0.00    -0.342 N
ATOM      6  H2  UNL     1      -8.548  -4.648  -2.841  1.00  0.00     0.167 HD
HETATM    7  C9  UNL     1      -8.621  -6.217  -1.521  1.00  0.00     0.050 A
HETATM    8  C10 UNL     1      -7.250  -6.458  -1.587  1.00  0.00     0.067 A
HETATM    9  C11 UNL     1      -6.629  -7.456  -0.877  1.00  0.00     0.074 A
HETATM   10  C15 UNL     1      -7.462  -8.234  -0.066  1.00  0.00     0.074 A
HETATM   11  C16 UNL     1      -8.816  -8.006   0.008  1.00  0.00     0.085 A
HETATM   12  C20 UNL     1      -9.421  -6.997  -0.715  1.00  0.00     0.030 A
ENDROOT
BRANCH   4  13
HETATM   13  N1  UNL     1     -11.024  -3.870  -3.006  1.00  0.00    -0.366 N
HETATM   14  C5  UNL     1     -10.558  -3.084  -4.131  1.00  0.00     0.132 A
HETATM   15  C6  UNL     1     -11.848  -2.321  -4.129  1.00  0.00     0.045 A
HETATM   16  C8  UNL     1     -12.285  -3.166  -2.967  1.00  0.00     0.132 A
BRANCH  15  17
HETATM   17  C7  UNL     1     -12.601  -2.544  -5.418  1.00  0.00     0.172 C
BRANCH  17  18
HETATM   18  O1  UNL     1     -13.088  -1.300  -5.872  1.00  0.00    -0.400 OA
ATOM     19  H1  UNL     1     -12.371  -0.823  -6.273  1.00  0.00     0.209 HD
ENDBRANCH  17  18
ENDBRANCH  15  17
ENDBRANCH   4  13
BRANCH  11  20
HETATM   20  O3  UNL     1      -9.593  -8.785   0.810  1.00  0.00    -0.346 OA
BRANCH  20  21
HETATM   21  C17 UNL     1      -9.223  -9.629   1.847  1.00  0.00     0.120 C
HETATM   22  C18 UNL     1     -10.396  -9.726   2.833  1.00  0.00     0.040 C
HETATM   23  C19 UNL     1      -8.994 -11.066   1.369  1.00  0.00     0.040 C
ENDBRANCH  20  21
ENDBRANCH  11  20
BRANCH   9  24
HETATM   24  O2  UNL     1      -5.270  -7.716  -0.927  1.00  0.00    -0.346 OA
BRANCH  24  25
HETATM   25  C12 UNL     1      -4.396  -7.547  -1.976  1.00  0.00     0.120 C
HETATM   26  C13 UNL     1      -3.004  -8.106  -1.683  1.00  0.00     0.040 C
HETATM   27  C14 UNL     1      -4.916  -8.133  -3.285  1.00  0.00     0.040 C
ENDBRANCH  24  25
ENDBRANCH   9  24
TORSDOF 7
ENDMDL