MODEL 3
REMARK VINA RESULT: -6.974267749      2.365      4.026
REMARK  8 active torsions:
REMARK  status: ('A' for Active; 'I' for Inactive)
REMARK    1  A    between atoms: C2_2  and  C4_4
REMARK    2  A    between atoms: C4_4  and  O1_5
REMARK    3  A    between atoms: C4_4  and  C5_7
REMARK    4  A    between atoms: C5_7  and  O3_9
REMARK    5  A    between atoms: O3_9  and  C6_10
REMARK    6  A    between atoms: C6_10  and  C7_11
REMARK    7  A    between atoms: C7_11  and  O4_12
REMARK    8  A    between atoms: O4_12  and  N1_13
ROOT
HETATM    1  N1  UNL     1     -10.069  -7.624   0.751  1.00  0.00    -0.275 N
ATOM      2  H1  UNL     1     -11.063  -7.466   0.918  1.00  0.00     0.193 HD
HETATM    3  C8  UNL     1      -9.253  -7.407   1.693  1.00  0.00     0.014 C
HETATM    4  C9  UNL     1      -7.806  -7.621   1.509  1.00  0.00     0.056 C
HETATM    5  C10 UNL     1      -6.967  -6.704   2.364  1.00  0.00     0.015 C
HETATM    6  C11 UNL     1      -7.379  -6.675   3.801  1.00  0.00    -0.043 C
HETATM    7  C12 UNL     1      -7.454  -5.260   4.326  1.00  0.00     0.015 C
HETATM    8  C13 UNL     1      -6.318  -7.406   4.592  1.00  0.00     0.015 C
HETATM    9  C14 UNL     1      -8.684  -7.393   4.028  1.00  0.00     0.006 C
HETATM   10  C15 UNL     1      -9.378  -7.000   5.280  1.00  0.00    -0.013 C
HETATM   11  C16 UNL     1      -8.862  -7.705   6.507  1.00  0.00     0.010 C
HETATM   12  C17 UNL     1     -10.825  -7.375   5.010  1.00  0.00     0.005 C
HETATM   13  C18 UNL     1     -10.939  -7.596   3.519  1.00  0.00     0.011 C
HETATM   14  C19 UNL     1      -9.699  -6.940   2.996  1.00  0.00     0.038 C
ENDROOT
BRANCH   1  15
HETATM   15  O4  UNL     1      -9.678  -8.056  -0.464  1.00  0.00    -0.278 OA
BRANCH  15  16
HETATM   16  C7  UNL     1      -9.982  -7.477  -1.709  1.00  0.00     0.228 C
BRANCH  16  17
HETATM   17  C6  UNL     1     -11.377  -6.891  -1.717  1.00  0.00     0.207 C
BRANCH  17  18
HETATM   18  O3  UNL     1     -11.436  -5.571  -1.265  1.00  0.00    -0.317 OA
BRANCH  18  19
HETATM   19  C5  UNL     1     -11.805  -4.528  -2.067  1.00  0.00     0.288 C
HETATM   20  O2  UNL     1     -13.006  -4.346  -2.390  1.00  0.00    -0.262 OA
BRANCH  19  21
HETATM   21  C4  UNL     1     -10.822  -3.544  -2.607  1.00  0.00     0.221 C
BRANCH  21  22
HETATM   22  C2  UNL     1     -11.129  -3.179  -4.056  1.00  0.00     0.016 C
HETATM   23  C1  UNL     1     -11.953  -1.919  -4.037  1.00  0.00     0.012 C
HETATM   24  C3  UNL     1      -9.826  -2.999  -4.823  1.00  0.00     0.012 C
ENDBRANCH  21  22
BRANCH  21  25
HETATM   25  O1  UNL     1      -9.516  -3.935  -2.470  1.00  0.00    -0.385 OA
ATOM     26  H1  UNL     1      -9.102  -4.032  -3.320  1.00  0.00     0.210 HD
ENDBRANCH  21  25
ENDBRANCH  19  21
ENDBRANCH  18  19
ENDBRANCH  17  18
ENDBRANCH  16  17
ENDBRANCH  15  16
ENDBRANCH   1  15
TORSDOF 8
ENDMDL