MODEL 4
REMARK VINA RESULT: -6.187261563      1.891      3.612
REMARK  7 active torsions:
REMARK  status: ('A' for Active; 'I' for Inactive)
REMARK    1  A    between atoms: C2_2  and  C4_4
REMARK    2  A    between atoms: C4_4  and  C6_6
REMARK    3  A    between atoms: C7_7  and  C8_8
REMARK    4  A    between atoms: N1_9  and  N2_11
REMARK    5  A    between atoms: N3_14  and  C11_15
REMARK    6  A    between atoms: C17_21  and  O1_22
REMARK    7  A    between atoms: C18_24  and  O2_25
ROOT
HETATM    1  C6  UNL     1      -8.978  -7.421   2.429  1.00  0.00    -0.003 A
HETATM    2  C7  UNL     1      -7.834  -6.820   1.860  1.00  0.00    -0.009 A
HETATM    3  C15 UNL     1      -7.156  -5.914   2.683  1.00  0.00     0.016 A
HETATM    4  C16 UNL     1      -7.529  -5.595   3.955  1.00  0.00     0.040 A
HETATM    5  C17 UNL     1      -8.640  -6.203   4.457  1.00  0.00     0.099 A
HETATM    6  C18 UNL     1      -9.378  -7.128   3.695  1.00  0.00     0.109 A
ENDROOT
BRANCH   2   7
HETATM    7  C8  UNL     1      -7.337  -7.037   0.535  1.00  0.00     0.119 C
HETATM    8  N1  UNL     1      -7.302  -6.339  -0.516  1.00  0.00    -0.313 N
ATOM      9  H1  UNL     1      -7.697  -5.398  -0.510  1.00  0.00     0.185 HD
BRANCH   8  10
HETATM   10  N2  UNL     1      -6.720  -6.849  -1.704  1.00  0.00    -0.322 N
HETATM   11  C9  UNL     1      -5.456  -7.490  -1.634  1.00  0.00     0.187 C
HETATM   12  C10 UNL     1      -4.760  -7.733  -2.934  1.00  0.00     0.084 C
HETATM   13  N3  UNL     1      -5.588  -7.859  -4.058  1.00  0.00    -0.371 N
HETATM   14  C13 UNL     1      -6.688  -6.981  -4.173  1.00  0.00     0.148 C
HETATM   15  C14 UNL     1      -7.434  -6.700  -2.927  1.00  0.00     0.163 C
BRANCH  13  16
HETATM   16  C11 UNL     1      -5.151  -8.564  -5.188  1.00  0.00     0.059 C
HETATM   17  C12 UNL     1      -4.355  -9.785  -4.747  1.00  0.00     0.055 C
ENDBRANCH  13  16
ENDBRANCH   8  10
ENDBRANCH   2   7
BRANCH   1  18
HETATM   18  C4  UNL     1      -9.695  -8.394   1.603  1.00  0.00     0.046 C
HETATM   19  C5  UNL     1      -8.798  -9.253   0.698  1.00  0.00     0.020 C
BRANCH  18  20
HETATM   20  C2  UNL     1     -10.673  -7.672   0.702  1.00  0.00    -0.085 C
HETATM   21  C1  UNL     1     -11.701  -6.986   1.128  1.00  0.00     0.014 C
HETATM   22  C3  UNL     1     -10.397  -7.744  -0.764  1.00  0.00     0.043 C
ENDBRANCH  18  20
ENDBRANCH   1  18
BRANCH   6  23
HETATM   23  O2  UNL     1     -10.449  -7.648   4.363  1.00  0.00    -0.353 OA
HETATM   24  C19 UNL     1     -10.483  -8.891   5.045  1.00  0.00     0.210 C
ENDBRANCH   6  23
BRANCH   5  25
HETATM   25  O1  UNL     1      -9.026  -5.880   5.751  1.00  0.00    -0.358 OA
ATOM     26  H1  UNL     1      -9.512  -5.074   5.881  1.00  0.00     0.217 HD
ENDBRANCH   5  25
TORSDOF 7
ENDMDL