MODEL 2
REMARK VINA RESULT: -5.639994239      1.408      2.728
REMARK  7 active torsions:
REMARK  status: ('A' for Active; 'I' for Inactive)
REMARK    1  A    between atoms: O1_2  and  C2_3
REMARK    2  A    between atoms: C4_5  and  O2_6
REMARK    3  A    between atoms: C6_8  and  C7_9
REMARK    4  A    between atoms: C9_11  and  O3_13
REMARK    5  A    between atoms: N1_16  and  C12_17
REMARK    6  A    between atoms: C12_17  and  C13_18
REMARK    7  A    between atoms: C18_23  and  O4_24
ROOT
HETATM    1  C7  UNL     1      -9.869  -8.039   1.776  1.00  0.00     0.262 C
HETATM    2  C8  UNL     1     -11.118  -7.322   2.248  1.00  0.00     0.080 C
HETATM    3  C9  UNL     1     -11.529  -8.356   3.273  1.00  0.00     0.083 C
HETATM    4  C10 UNL     1     -12.098  -9.624   2.638  1.00  0.00     0.047 C
HETATM    5  C11 UNL     1     -10.178  -8.720   3.895  1.00  0.00     0.310 C
HETATM    6  N1  UNL     1      -9.168  -7.975   3.080  1.00  0.00     0.101 N
ENDROOT
BRANCH   1   7
HETATM    7  C6  UNL     1      -9.244  -7.547   0.606  1.00  0.00     0.011 A
HETATM    8  C4  UNL     1     -10.029  -7.293  -0.554  1.00  0.00     0.079 A
HETATM    9  C3  UNL     1      -9.492  -6.883  -1.735  1.00  0.00     0.077 A
HETATM   10  C2  UNL     1      -8.147  -6.694  -1.870  1.00  0.00     0.104 A
HETATM   11  C18 UNL     1      -7.330  -6.933  -0.779  1.00  0.00     0.102 A
HETATM   12  C17 UNL     1      -7.903  -7.352   0.437  1.00  0.00     0.051 A
BRANCH   8  13
HETATM   13  O2  UNL     1     -11.369  -7.480  -0.426  1.00  0.00    -0.355 OA
HETATM   14  C5  UNL     1     -12.328  -6.581  -0.948  1.00  0.00     0.210 C
ENDBRANCH   8  13
BRANCH  10  15
HETATM   15  O1  UNL     1      -7.632  -6.255  -3.087  1.00  0.00    -0.353 OA
HETATM   16  C1  UNL     1      -7.097  -7.033  -4.100  1.00  0.00     0.210 C
ENDBRANCH  10  15
BRANCH  11  17
HETATM   17  O4  UNL     1      -5.978  -6.763  -0.904  1.00  0.00    -0.353 OA
HETATM   18  C19 UNL     1      -5.104  -7.832  -1.267  1.00  0.00     0.210 C
ENDBRANCH  11  17
ENDBRANCH   1   7
BRANCH   6  19
HETATM   19  C12 UNL     1      -9.047  -6.665   3.637  1.00  0.00     0.281 C
BRANCH  19  20
HETATM   20  C13 UNL     1      -7.637  -6.303   4.013  1.00  0.00    -0.025 C
HETATM   21  C14 UNL     1      -7.046  -5.139   3.256  1.00  0.00     0.016 C
HETATM   22  C15 UNL     1      -7.679  -5.801   5.503  1.00  0.00     0.016 C
HETATM   23  C16 UNL     1      -6.643  -7.412   4.085  1.00  0.00     0.016 C
ENDBRANCH  19  20
ENDBRANCH   6  19
BRANCH   3  24
HETATM   24  O3  UNL     1     -12.367  -7.843   4.239  1.00  0.00    -0.388 OA
ATOM     25  H3  UNL     1     -12.929  -7.151   3.909  1.00  0.00     0.210 HD
ENDBRANCH   3  24
TORSDOF 7
ENDMDL