MODEL 4
REMARK VINA RESULT: -7.785553184      2.341      6.020
REMARK  3 active torsions:
REMARK  status: ('A' for Active; 'I' for Inactive)
REMARK    1  A    between atoms: C1_2  and  N1_3
REMARK       I    between atoms: N1_3  and  C2_5
REMARK    2  A    between atoms: C2_5  and  O3_7
REMARK    3  A    between atoms: O3_7  and  C3_8
ROOT
HETATM    1  C3  UNL     1      59.085 -28.431  33.969  1.00  0.00     0.204 C
HETATM    2  C4  UNL     1      57.680 -28.884  33.632  1.00  0.00     0.079 C
HETATM    3  C5  UNL     1      57.751 -29.235  32.185  1.00  0.00     0.071 C
HETATM    4  C6  UNL     1      57.641 -28.057  31.260  1.00  0.00     0.038 C
HETATM    5  C7  UNL     1      57.430 -28.621  29.854  1.00  0.00     0.003 C
HETATM    6  C8  UNL     1      55.990 -29.060  29.770  1.00  0.00     0.000 C
HETATM    7  C9  UNL     1      55.569 -29.711  31.062  1.00  0.00     0.003 C
HETATM    8  C10 UNL     1      56.750 -30.302  31.795  1.00  0.00     0.038 C
HETATM    9  O4  UNL     1      59.086 -29.747  32.077  1.00  0.00    -0.330 OA
HETATM   10  C11 UNL     1      59.919 -29.025  32.923  1.00  0.00     0.143 C
HETATM   11  S1  UNL     1      61.531 -28.943  32.669  1.00  0.00    -0.055 SA
ENDROOT
BRANCH   1  12
HETATM   12  O3  UNL     1      59.362 -28.905  35.259  1.00  0.00    -0.291 OA
BRANCH  12  13
HETATM   13  C2  UNL     1      59.772 -30.181  35.565  1.00  0.00     0.367 C
HETATM   14  N1  UNL     1      61.114 -30.422  35.939  1.00  0.00    -0.280 N
ATOM     15  H1  UNL     1      61.786 -29.656  35.984  1.00  0.00     0.173 HD
HETATM   16  O2  UNL     1      58.903 -31.087  35.491  1.00  0.00    -0.238 OA
BRANCH  14  17
HETATM   17  C1  UNL     1      61.512 -31.745  36.249  1.00  0.00     0.357 C
HETATM   18  O1  UNL     1      61.888 -32.063  37.428  1.00  0.00    -0.283 OA
ENDBRANCH  14  17
ENDBRANCH  12  13
ENDBRANCH   1  12
TORSDOF 3
ENDMDL