MODEL 4
REMARK VINA RESULT: -7.409106798      1.355      4.968
REMARK  5 active torsions:
REMARK  status: ('A' for Active; 'I' for Inactive)
REMARK    1  A    between atoms: O1_2  and  C2_3
REMARK    2  A    between atoms: C2_3  and  C3_5
REMARK    3  A    between atoms: C3_5  and  N1_6
REMARK       I    between atoms: N1_6  and  C4_8
REMARK    4  A    between atoms: C4_8  and  O4_10
REMARK    5  A    between atoms: O4_10  and  C5_11
ROOT
HETATM    1  C3  UNL     1      59.415 -29.406  33.144  1.00  0.00     0.130 C
HETATM    2  C9  UNL     1      60.533 -29.440  32.132  1.00  0.00     0.025 C
HETATM    3  C10 UNL     1      59.755 -29.416  30.835  1.00  0.00     0.008 C
HETATM    4  C11 UNL     1      58.772 -28.272  31.162  1.00  0.00     0.008 C
HETATM    5  C12 UNL     1      59.198 -28.022  32.597  1.00  0.00     0.025 C
HETATM    6  C13 UNL     1      60.697 -27.958  32.388  1.00  0.00     0.015 C
ENDROOT
BRANCH   1   7
HETATM    7  C2  UNL     1      59.817 -29.463  34.547  1.00  0.00     0.287 C
HETATM    8  O2  UNL     1      59.561 -28.426  35.270  1.00  0.00    -0.262 OA
BRANCH   7   9
HETATM    9  O1  UNL     1      60.442 -30.491  35.213  1.00  0.00    -0.324 OA
HETATM   10  C1  UNL     1      61.856 -30.527  35.375  1.00  0.00     0.213 C
ENDBRANCH   7   9
ENDBRANCH   1   7
BRANCH   1  11
HETATM   11  N1  UNL     1      58.321 -30.328  32.815  1.00  0.00    -0.317 N
HETATM   12  C4  UNL     1      56.989 -30.099  33.200  1.00  0.00     0.362 C
HETATM   13  O3  UNL     1      56.694 -29.080  33.854  1.00  0.00    -0.238 OA
ATOM     14  H1  UNL     1      58.537 -31.172  32.283  1.00  0.00     0.166 HD
BRANCH  12  15
HETATM   15  O4  UNL     1      55.969 -30.971  32.880  1.00  0.00    -0.294 OA
BRANCH  15  16
HETATM   16  C5  UNL     1      55.307 -30.958  31.658  1.00  0.00     0.061 C
HETATM   17  C6  UNL     1      53.808 -30.856  31.978  1.00  0.00     0.046 C
HETATM   18  C7  UNL     1      55.481 -32.201  30.840  1.00  0.00     0.046 C
HETATM   19  C8  UNL     1      55.648 -29.775  30.787  1.00  0.00     0.046 C
ENDBRANCH  15  16
ENDBRANCH  12  15
ENDBRANCH   1  11
TORSDOF 5
ENDMDL