MODEL 2
REMARK VINA RESULT: -8.596983371      1.389      5.573
REMARK  3 active torsions:
REMARK  status: ('A' for Active; 'I' for Inactive)
REMARK    1  A    between atoms: C13_15  and  C14_16
REMARK    2  A    between atoms: C14_16  and  O3_17
REMARK    3  A    between atoms: O3_17  and  O4_18
ROOT
HETATM    1  C1  UNL     1      59.506 -28.955  36.225  1.00  0.00     0.051 C
HETATM    2  C2  UNL     1      59.229 -29.790  34.997  1.00  0.00     0.078 C
HETATM    3  C3  UNL     1      59.104 -31.230  35.456  1.00  0.00     0.051 C
HETATM    4  O1  UNL     1      58.035 -29.322  34.459  1.00  0.00    -0.370 OA
HETATM    5  C4  UNL     1      57.626 -29.968  33.306  1.00  0.00     0.135 C
HETATM    6  C5  UNL     1      56.259 -29.419  32.951  1.00  0.00     0.110 C
HETATM    7  C6  UNL     1      56.369 -29.226  31.455  1.00  0.00     0.129 C
HETATM    8  O2  UNL     1      55.535 -29.453  30.618  1.00  0.00    -0.298 OA
HETATM    9  C7  UNL     1      57.752 -28.694  31.293  1.00  0.00     0.086 C
HETATM   10  C8  UNL     1      58.534 -29.673  32.140  1.00  0.00     0.034 C
HETATM   11  C9  UNL     1      59.874 -29.137  32.569  1.00  0.00    -0.015 C
HETATM   12  C10 UNL     1      59.955 -27.626  32.497  1.00  0.00     0.020 C
HETATM   13  C11 UNL     1      60.884 -29.647  31.563  1.00  0.00     0.020 C
HETATM   14  C12 UNL     1      60.283 -29.619  33.936  1.00  0.00    -0.040 C
HETATM   15  C13 UNL     1      61.568 -29.875  34.132  1.00  0.00     0.009 C
ENDROOT
BRANCH  15  16
HETATM   16  C14 UNL     1      62.219 -30.358  35.355  1.00  0.00     0.237 C
BRANCH  16  17
HETATM   17  O3  UNL     1      62.996 -31.517  35.111  1.00  0.00    -0.240 OA
BRANCH  17  18
HETATM   18  O4  UNL     1      64.209 -31.074  34.783  1.00  0.00    -0.250 OA
ATOM     19  H4  UNL     1      64.469 -31.579  34.021  1.00  0.00     0.253 HD
ENDBRANCH  17  18
ENDBRANCH  16  17
ENDBRANCH  15  16
TORSDOF 3
ENDMDL