MODEL 4
REMARK VINA RESULT: -7.730702181      2.630      5.689
REMARK  5 active torsions:
REMARK  status: ('A' for Active; 'I' for Inactive)
REMARK    1  A    between atoms: C2_2  and  C4_4
REMARK    2  A    between atoms: C4_4  and  C5_5
REMARK    3  A    between atoms: C5_5  and  C6_6
REMARK    4  A    between atoms: C7_7  and  C8_8
REMARK    5  A    between atoms: C10_10  and  O1_11
ROOT
HETATM    1  C8  UNL     1      59.315 -29.704  32.738  1.00  0.00     0.099 C
HETATM    2  C9  UNL     1      60.535 -29.251  31.997  1.00  0.00     0.051 C
HETATM    3  C10 UNL     1      61.728 -29.024  32.853  1.00  0.00     0.122 C
HETATM    4  C11 UNL     1      61.461 -28.312  34.137  1.00  0.00     0.067 C
HETATM    5  C12 UNL     1      60.245 -28.763  34.864  1.00  0.00     0.167 C
HETATM    6  O2  UNL     1      60.339 -30.050  35.413  1.00  0.00    -0.290 OA
HETATM    7  C13 UNL     1      59.047 -30.557  35.440  1.00  0.00     0.407 C
HETATM    8  O3  UNL     1      58.759 -31.662  35.985  1.00  0.00    -0.229 OA
HETATM    9  O4  UNL     1      58.170 -29.680  34.793  1.00  0.00    -0.289 OA
HETATM   10  C14 UNL     1      59.035 -28.883  33.969  1.00  0.00     0.179 C
ENDROOT
BRANCH   1  11
HETATM   11  C7  UNL     1      58.163 -29.570  31.835  1.00  0.00    -0.099 C
HETATM   12  C6  UNL     1      57.207 -29.475  31.100  1.00  0.00    -0.106 C
BRANCH  12  13
HETATM   13  C5  UNL     1      56.031 -29.370  30.225  1.00  0.00     0.094 C
BRANCH  13  14
HETATM   14  C4  UNL     1      54.894 -30.078  30.927  1.00  0.00     0.016 C
BRANCH  14  15
HETATM   15  C2  UNL     1      55.330 -31.396  31.512  1.00  0.00    -0.022 C
HETATM   16  C1  UNL     1      54.216 -31.878  32.423  1.00  0.00     0.009 C
HETATM   17  C3  UNL     1      55.572 -32.390  30.409  1.00  0.00     0.009 C
ENDBRANCH  14  15
ENDBRANCH  13  14
ENDBRANCH  12  13
ENDBRANCH   1  11
BRANCH   3  18
HETATM   18  O1  UNL     1      62.397 -30.233  33.036  1.00  0.00    -0.395 OA
ATOM     19  H1  UNL     1      62.231 -30.550  33.917  1.00  0.00     0.210 HD
ENDBRANCH   3  18
TORSDOF 5
ENDMDL