MODEL 1
REMARK VINA RESULT: -6.759567049      0.000      0.000
REMARK  4 active torsions:
REMARK  status: ('A' for Active; 'I' for Inactive)
REMARK    1  A    between atoms: C2_2  and  O1_3
REMARK    2  A    between atoms: O1_3  and  C3_4
REMARK    3  A    between atoms: C3_4  and  C4_5
REMARK    4  A    between atoms: C12_14  and  O2_15
ROOT
HETATM    1  C4  UNL     1      60.014 -29.272  34.586  1.00  0.00     0.038 C
HETATM    2  C5  UNL     1      59.550 -27.957  35.075  1.00  0.00     0.038 C
HETATM    3  C6  UNL     1      58.435 -27.421  34.252  1.00  0.00     0.103 C
HETATM    4  N1  UNL     1      58.821 -27.292  32.912  1.00  0.00    -0.267 NA
HETATM    5  C7  UNL     1      57.888 -27.230  31.885  1.00  0.00     0.102 C
HETATM    6  C8  UNL     1      57.914 -28.368  30.891  1.00  0.00     0.017 C
HETATM    7  C9  UNL     1      59.329 -28.680  30.418  1.00  0.00     0.017 C
HETATM    8  C10 UNL     1      59.959 -29.663  31.419  1.00  0.00     0.055 C
HETATM    9  C11 UNL     1      61.374 -29.278  31.714  1.00  0.00     0.047 C
HETATM   10  C12 UNL     1      61.811 -30.001  32.990  1.00  0.00     0.120 C
HETATM   11  C13 UNL     1      61.454 -29.126  34.142  1.00  0.00     0.055 C
HETATM   12  S1  UNL     1      58.845 -29.643  32.979  1.00  0.00    -0.133 SA
ENDROOT
BRANCH   1  13
HETATM   13  C3  UNL     1      59.855 -30.403  35.555  1.00  0.00     0.188 C
BRANCH  13  14
HETATM   14  O1  UNL     1      59.535 -29.924  36.805  1.00  0.00    -0.390 OA
BRANCH  14  15
HETATM   15  C2  UNL     1      60.118 -30.705  37.799  1.00  0.00     0.163 C
HETATM   16  C1  UNL     1      61.372 -31.389  37.340  1.00  0.00     0.033 C
ENDBRANCH  14  15
ENDBRANCH  13  14
ENDBRANCH   1  13
BRANCH  10  17
HETATM   17  O2  UNL     1      63.202 -30.098  32.936  1.00  0.00    -0.395 OA
ATOM     18  H2  UNL     1      63.518 -29.970  33.823  1.00  0.00     0.210 HD
ENDBRANCH  10  17
TORSDOF 4
ENDMDL