MODEL 4
REMARK VINA RESULT: -7.209724039      1.601      5.436
REMARK  3 active torsions:
REMARK  status: ('A' for Active; 'I' for Inactive)
REMARK    1  A    between atoms: O1_2  and  C2_3
REMARK    2  A    between atoms: C6_8  and  C7_9
REMARK    3  A    between atoms: C7_9  and  O3_10
ROOT
HETATM    1  C2  UNL     1      59.697 -28.432  31.612  1.00  0.00     0.152 C
HETATM    2  C3  UNL     1      61.137 -28.377  32.145  1.00  0.00     0.040 C
HETATM    3  C4  UNL     1      61.302 -29.682  32.910  1.00  0.00     0.071 C
HETATM    4  C5  UNL     1      60.280 -29.882  33.968  1.00  0.00     0.171 C
HETATM    5  O2  UNL     1      59.025 -29.769  33.421  1.00  0.00    -0.345 OA
HETATM    6  C6  UNL     1      58.855 -28.519  32.868  1.00  0.00     0.177 C
HETATM    7  O4  UNL     1      60.548 -31.049  34.678  1.00  0.00    -0.348 OA
HETATM    8  C8  UNL     1      61.297 -30.292  35.556  1.00  0.00     0.138 C
HETATM    9  C9  UNL     1      61.357 -30.723  36.968  1.00  0.00     0.011 C
HETATM   10  C10 UNL     1      61.952 -32.132  37.003  1.00  0.00     0.012 C
HETATM   11  C11 UNL     1      60.102 -30.662  37.743  1.00  0.00     0.007 C
HETATM   12  C12 UNL     1      58.941 -30.428  36.850  1.00  0.00     0.001 C
HETATM   13  C13 UNL     1      59.110 -29.169  36.020  1.00  0.00     0.013 C
HETATM   14  C14 UNL     1      60.404 -29.143  35.249  1.00  0.00     0.077 C
ENDROOT
BRANCH   6  15
HETATM   15  C7  UNL     1      57.436 -28.213  32.474  1.00  0.00     0.198 C
BRANCH  15  16
HETATM   16  O3  UNL     1      57.480 -27.357  31.374  1.00  0.00    -0.398 OA
ATOM     17  H3  UNL     1      56.967 -26.587  31.590  1.00  0.00     0.209 HD
ENDBRANCH  15  16
ENDBRANCH   6  15
BRANCH   1  18
HETATM   18  O1  UNL     1      59.560 -29.619  30.928  1.00  0.00    -0.388 OA
HETATM   19  C1  UNL     1      59.335 -29.443  29.569  1.00  0.00     0.202 C
ENDBRANCH   1  18
TORSDOF 3
ENDMDL