MODEL 2
REMARK VINA RESULT: -8.011242742      1.487      2.324
REMARK  3 active torsions:
REMARK  status: ('A' for Active; 'I' for Inactive)
REMARK    1  A    between atoms: C3_3  and  O1_4
REMARK    2  A    between atoms: O1_4  and  C4_5
REMARK    3  A    between atoms: C12_13  and  O2_15
ROOT
HETATM    1  C1  UNL     1      60.786 -31.402  38.506  1.00  0.00     0.014 C
HETATM    2  C2  UNL     1      60.970 -30.977  37.386  1.00  0.00    -0.091 C
HETATM    3  C3  UNL     1      61.175 -30.481  36.024  1.00  0.00     0.263 C
ENDROOT
BRANCH   3   4
HETATM    4  O1  UNL     1      60.227 -29.492  35.772  1.00  0.00    -0.347 OA
BRANCH   4   5
HETATM    5  C4  UNL     1      60.568 -28.668  34.729  1.00  0.00     0.300 C
HETATM    6  C5  UNL     1      59.434 -27.792  34.252  1.00  0.00     0.067 C
HETATM    7  C6  UNL     1      59.432 -27.723  32.719  1.00  0.00     0.049 C
HETATM    8  C7  UNL     1      58.880 -28.998  32.131  1.00  0.00     0.130 C
HETATM    9  C8  UNL     1      59.695 -29.462  30.975  1.00  0.00     0.044 C
HETATM   10  C12 UNL     1      57.414 -28.897  31.804  1.00  0.00     0.088 C
HETATM   11  O3  UNL     1      58.991 -29.976  33.147  1.00  0.00    -0.196 OA
HETATM   12  C9  UNL     1      59.335 -28.865  29.662  1.00  0.00     0.003 C
HETATM   13  C10 UNL     1      57.876 -28.683  29.426  1.00  0.00     0.003 C
HETATM   14  C11 UNL     1      57.184 -28.011  30.598  1.00  0.00     0.041 C
HETATM   15  C13 UNL     1      56.911 -30.276  31.442  1.00  0.00     0.049 C
HETATM   16  O4  UNL     1      60.229 -30.364  33.297  1.00  0.00    -0.063 OA
HETATM   17  O5  UNL     1      61.043 -29.388  33.626  1.00  0.00    -0.178 OA
BRANCH  10  18
HETATM   18  O2  UNL     1      56.689 -28.435  32.873  1.00  0.00    -0.387 OA
ATOM     19  H2  UNL     1      55.910 -27.970  32.592  1.00  0.00     0.210 HD
ENDBRANCH  10  18
ENDBRANCH   4   5
ENDBRANCH   3   4
TORSDOF 3
ENDMDL