MODEL 4
REMARK VINA RESULT: -7.839199539      2.070      5.756
REMARK  4 active torsions:
REMARK  status: ('A' for Active; 'I' for Inactive)
REMARK    1  A    between atoms: C2_2  and  O2_4
REMARK    2  A    between atoms: O2_4  and  C3_5
REMARK    3  A    between atoms: C13_16  and  C14_17
REMARK    4  A    between atoms: C14_17  and  O4_18
ROOT
HETATM    1  C3  UNL     1      58.333 -29.437  32.487  1.00  0.00     0.276 C
HETATM    2  O3  UNL     1      59.263 -30.327  33.006  1.00  0.00    -0.349 OA
HETATM    3  C4  UNL     1      59.914 -29.780  34.140  1.00  0.00     0.064 C
HETATM    4  C5  UNL     1      61.183 -30.551  34.306  1.00  0.00     0.038 C
HETATM    5  C6  UNL     1      62.039 -30.136  35.439  1.00  0.00     0.003 C
HETATM    6  C7  UNL     1      61.843 -31.040  36.655  1.00  0.00     0.000 C
HETATM    7  C8  UNL     1      60.375 -31.301  36.810  1.00  0.00     0.000 C
HETATM    8  C9  UNL     1      59.648 -29.993  36.631  1.00  0.00     0.003 C
HETATM    9  C10 UNL     1      58.966 -29.937  35.288  1.00  0.00     0.038 C
HETATM   10  C11 UNL     1      60.185 -28.330  33.800  1.00  0.00     0.039 C
HETATM   11  C12 UNL     1      60.413 -28.189  32.298  1.00  0.00     0.014 C
HETATM   12  C13 UNL     1      59.117 -28.490  31.574  1.00  0.00     0.065 C
ENDROOT
BRANCH   1  13
HETATM   13  O2  UNL     1      57.290 -30.069  31.800  1.00  0.00    -0.289 OA
BRANCH  13  14
HETATM   14  C2  UNL     1      56.006 -30.007  32.341  1.00  0.00     0.257 C
HETATM   15  C1  UNL     1      54.797 -30.407  31.596  1.00  0.00     0.126 C
HETATM   16  O1  UNL     1      55.855 -29.593  33.520  1.00  0.00    -0.266 OA
ENDBRANCH  13  14
ENDBRANCH   1  13
BRANCH  12  17
HETATM   17  C14 UNL     1      59.386 -29.139  30.234  1.00  0.00     0.173 C
BRANCH  17  18
HETATM   18  O4  UNL     1      58.249 -28.941  29.453  1.00  0.00    -0.400 OA
ATOM     19  H4  UNL     1      57.632 -29.626  29.684  1.00  0.00     0.209 HD
ENDBRANCH  17  18
ENDBRANCH  12  17
TORSDOF 4
ENDMDL