MODEL 3
REMARK VINA RESULT: -7.495749838      2.448      5.610
REMARK  3 active torsions:
REMARK  status: ('A' for Active; 'I' for Inactive)
REMARK    1  A    between atoms: N1_1  and  C1_5
REMARK    2  A    between atoms: N2_12  and  O2_13
REMARK    3  A    between atoms: O2_13  and  C6_14
ROOT
HETATM    1  C1  UNL     1      59.673 -30.300  35.002  1.00  0.00     0.314 C
HETATM    2  C2  UNL     1      60.675 -31.327  35.411  1.00  0.00     0.067 C
HETATM    3  C3  UNL     1      61.915 -30.586  35.923  1.00  0.00     0.078 C
HETATM    4  S1  UNL     1      63.016 -30.421  34.510  1.00  0.00    -0.160 SA
HETATM    5  C4  UNL     1      62.286 -29.332  33.275  1.00  0.00     0.179 C
HETATM    6  C5  UNL     1      60.932 -29.728  32.865  1.00  0.00     0.254 C
HETATM    7  O1  UNL     1      60.825 -29.874  31.625  1.00  0.00    -0.270 OA
HETATM    8  N2  UNL     1      59.729 -29.976  33.572  1.00  0.00    -0.194 N
ENDROOT
BRANCH   8   9
HETATM    9  O2  UNL     1      58.528 -29.929  33.011  1.00  0.00    -0.268 OA
BRANCH   9  10
HETATM   10  C6  UNL     1      57.837 -28.781  32.952  1.00  0.00     0.152 C
HETATM   11  C7  UNL     1      56.345 -29.113  32.846  1.00  0.00     0.034 C
HETATM   12  C8  UNL     1      56.138 -29.981  31.591  1.00  0.00     0.002 C
HETATM   13  C9  UNL     1      56.317 -29.019  30.426  1.00  0.00     0.000 C
HETATM   14  C10 UNL     1      57.777 -28.616  30.428  1.00  0.00     0.002 C
HETATM   15  C11 UNL     1      58.129 -27.943  31.709  1.00  0.00     0.034 C
ENDBRANCH   9  10
ENDBRANCH   8   9
BRANCH   1  16
HETATM   16  N1  UNL     1      58.375 -30.738  35.428  1.00  0.00    -0.056 N
ATOM     17  H13 UNL     1      57.651 -30.556  34.732  1.00  0.00     0.276 HD
ATOM     18  H12 UNL     1      58.292 -31.755  35.452  1.00  0.00     0.276 HD
ATOM     19  H11 UNL     1      58.169 -30.306  36.329  1.00  0.00     0.276 HD
ENDBRANCH   1  16
TORSDOF 3
ENDMDL