MODEL 4
REMARK VINA RESULT: -7.676423439      2.078      4.552
REMARK  5 active torsions:
REMARK  status: ('A' for Active; 'I' for Inactive)
REMARK    1  A    between atoms: C2_2  and  O1_3
REMARK    2  A    between atoms: O1_3  and  C3_4
REMARK    3  A    between atoms: C3_4  and  O3_6
REMARK    4  A    between atoms: O3_6  and  C4_7
REMARK    5  A    between atoms: C12_15  and  C13_16
ROOT
HETATM    1  C4  UNL     1      57.239 -29.337  33.603  1.00  0.00     0.149 C
HETATM    2  C5  UNL     1      55.902 -29.987  33.363  1.00  0.00     0.034 C
HETATM    3  C6  UNL     1      55.354 -29.726  31.996  1.00  0.00     0.012 C
HETATM    4  C7  UNL     1      56.334 -30.008  30.888  1.00  0.00    -0.039 C
HETATM    5  C8  UNL     1      56.259 -31.406  30.318  1.00  0.00     0.015 C
HETATM    6  C9  UNL     1      56.322 -28.993  29.764  1.00  0.00     0.010 C
HETATM    7  C10 UNL     1      57.817 -28.929  29.851  1.00  0.00     0.007 C
HETATM    8  C11 UNL     1      57.735 -29.552  31.231  1.00  0.00     0.010 C
HETATM    9  C12 UNL     1      57.616 -28.559  32.364  1.00  0.00     0.121 C
ENDROOT
BRANCH   1  10
HETATM   10  O3  UNL     1      58.194 -30.338  33.901  1.00  0.00    -0.292 OA
BRANCH  10  11
HETATM   11  C3  UNL     1      58.969 -30.310  35.053  1.00  0.00     0.406 C
HETATM   12  O2  UNL     1      58.554 -31.011  36.021  1.00  0.00    -0.229 OA
BRANCH  11  13
HETATM   13  O1  UNL     1      60.119 -29.586  35.189  1.00  0.00    -0.298 OA
BRANCH  13  14
HETATM   14  C2  UNL     1      61.400 -30.053  34.779  1.00  0.00     0.176 C
HETATM   15  C1  UNL     1      62.059 -30.923  35.797  1.00  0.00     0.034 C
ENDBRANCH  13  14
ENDBRANCH  11  13
ENDBRANCH  10  11
ENDBRANCH   1  10
BRANCH   9  16
HETATM   16  C13 UNL     1      58.841 -27.761  32.554  1.00  0.00     0.180 C
HETATM   17  O4  UNL     1      58.825 -26.637  33.122  1.00  0.00    -0.648 OA
HETATM   18  O5  UNL     1      60.034 -28.301  32.078  1.00  0.00    -0.648 OA
ENDBRANCH   9  16
TORSDOF 5
ENDMDL