MODEL 1
REMARK VINA RESULT: -6.046113201      0.000      0.000
REMARK  1 active torsions:
REMARK  status: ('A' for Active; 'I' for Inactive)
REMARK    1  A    between atoms: N2_18  and  O2_20
ROOT
HETATM    1  O1  UNL     1      61.744 -31.011  38.551  1.00  0.00    -0.266 OA
HETATM    2  C1  UNL     1      61.494 -30.873  37.300  1.00  0.00     0.265 C
HETATM    3  N1  UNL     1      62.530 -31.057  36.342  1.00  0.00    -0.356 N
ATOM      4  H1  UNL     1      63.450 -30.675  36.565  1.00  0.00     0.162 HD
HETATM    5  C2  UNL     1      62.386 -31.731  35.093  1.00  0.00     0.123 C
HETATM    6  C3  UNL     1      63.372 -31.210  34.091  1.00  0.00     0.020 C
HETATM    7  C4  UNL     1      63.527 -29.734  34.081  1.00  0.00     0.002 C
HETATM    8  C5  UNL     1      63.195 -29.120  32.714  1.00  0.00     0.000 C
HETATM    9  C6  UNL     1      61.897 -29.625  32.171  1.00  0.00     0.000 C
HETATM   10  C7  UNL     1      61.076 -28.520  31.504  1.00  0.00     0.000 C
HETATM   11  C8  UNL     1      59.664 -29.025  31.416  1.00  0.00     0.000 C
HETATM   12  C9  UNL     1      58.658 -28.087  32.035  1.00  0.00     0.000 C
HETATM   13  C10 UNL     1      58.917 -27.989  33.539  1.00  0.00     0.000 C
HETATM   14  C11 UNL     1      58.004 -28.853  34.337  1.00  0.00     0.000 C
HETATM   15  C12 UNL     1      58.668 -30.036  34.976  1.00  0.00     0.006 C
HETATM   16  C13 UNL     1      59.780 -29.571  35.852  1.00  0.00     0.065 C
HETATM   17  C14 UNL     1      60.120 -30.529  36.939  1.00  0.00     0.099 C
HETATM   18  N2  UNL     1      59.145 -31.067  37.577  1.00  0.00    -0.268 N
ATOM     19  H2  UNL     1      58.200 -30.803  37.297  1.00  0.00     0.194 HD
ENDROOT
BRANCH  18  20
HETATM   20  O2  UNL     1      59.268 -31.956  38.590  1.00  0.00    -0.290 OA
ATOM     21  H2  UNL     1      58.581 -32.536  38.899  1.00  0.00     0.244 HD
ENDBRANCH  18  20
TORSDOF 1
ENDMDL