MODEL 4
REMARK VINA RESULT: -6.979382358      1.035      1.420
REMARK  1 active torsions:
REMARK  status: ('A' for Active; 'I' for Inactive)
REMARK    1  A    between atoms: C4_4  and  C5_5
ROOT
HETATM    1  C5  UNL     1      60.571 -29.032  33.956  1.00  0.00     0.028 C
HETATM    2  C6  UNL     1      61.481 -29.652  32.893  1.00  0.00     0.011 C
HETATM    3  C7  UNL     1      61.016 -29.124  31.572  1.00  0.00     0.014 C
HETATM    4  C8  UNL     1      59.983 -28.117  31.880  1.00  0.00     0.066 C
HETATM    5  C9  UNL     1      58.909 -27.983  30.900  1.00  0.00     0.085 C
HETATM    6  S1  UNL     1      58.965 -28.848  29.503  1.00  0.00    -0.065 SA
HETATM    7  N1  UNL     1      57.835 -27.092  31.193  1.00  0.00    -0.331 N
ATOM      8  H1  UNL     1      57.140 -26.911  30.469  1.00  0.00     0.168 HD
HETATM    9  C10 UNL     1      57.691 -26.443  32.452  1.00  0.00     0.139 C
HETATM   10  N2  UNL     1      56.985 -25.391  32.533  1.00  0.00    -0.380 N
ATOM     11  H21 UNL     1      56.881 -24.927  33.435  1.00  0.00     0.158 HD
ATOM     12  H22 UNL     1      56.511 -24.983  31.727  1.00  0.00     0.158 HD
HETATM   13  S2  UNL     1      58.532 -27.168  33.882  1.00  0.00    -0.083 SA
HETATM   14  C11 UNL     1      59.391 -28.604  33.180  1.00  0.00     0.029 C
HETATM   15  C12 UNL     1      58.392 -29.706  32.995  1.00  0.00     0.029 C
ENDROOT
BRANCH   1  16
HETATM   16  C4  UNL     1      60.252 -30.155  34.916  1.00  0.00    -0.019 C
HETATM   17  C2  UNL     1      59.793 -29.907  36.129  1.00  0.00    -0.091 C
HETATM   18  C1  UNL     1      59.590 -28.494  36.545  1.00  0.00     0.042 C
HETATM   19  C3  UNL     1      59.493 -31.039  37.040  1.00  0.00     0.042 C
ENDBRANCH   1  16
TORSDOF 1
ENDMDL