MODEL 1
REMARK VINA RESULT: -6.316488430      0.000      0.000
REMARK  2 active torsions:
REMARK  status: ('A' for Active; 'I' for Inactive)
REMARK    1  A    between atoms: C3_3  and  C4_4
REMARK    2  A    between atoms: C4_4  and  O1_5
ROOT
HETATM    1  C4  UNL     1      64.490 -33.183  43.816  1.00  0.00     0.084 C
HETATM    2  C5  UNL     1      63.914 -32.730  42.504  1.00  0.00     0.062 C
HETATM    3  C6  UNL     1      63.769 -33.790  41.483  1.00  0.00     0.100 C
HETATM    4  C7  UNL     1      63.438 -33.157  40.202  1.00  0.00     0.064 C
HETATM    5  N1  UNL     1      63.156 -32.661  39.181  1.00  0.00    -0.197 NA
HETATM    6  C8  UNL     1      64.905 -34.731  41.324  1.00  0.00     0.004 C
HETATM    7  C9  UNL     1      65.939 -34.330  40.328  1.00  0.00     0.006 C
HETATM    8  C10 UNL     1      66.963 -33.344  40.745  1.00  0.00     0.000 C
HETATM    9  C11 UNL     1      68.136 -33.925  41.458  1.00  0.00     0.000 C
HETATM   10  C12 UNL     1      68.040 -34.065  42.928  1.00  0.00     0.001 C
HETATM   11  C13 UNL     1      66.919 -33.397  43.614  1.00  0.00     0.012 C
HETATM   12  C14 UNL     1      65.632 -34.151  43.681  1.00  0.00    -0.009 C
HETATM   13  C15 UNL     1      65.653 -34.955  45.001  1.00  0.00     0.018 C
HETATM   14  C16 UNL     1      65.411 -35.177  42.641  1.00  0.00     0.018 C
ENDROOT
BRANCH   1  15
HETATM   15  C3  UNL     1      64.880 -31.936  44.539  1.00  0.00     0.007 C
HETATM   16  C2  UNL     1      64.884 -30.737  43.995  1.00  0.00    -0.032 C
HETATM   17  C1  UNL     1      65.268 -29.509  44.710  1.00  0.00     0.036 C
ENDBRANCH   1  15
BRANCH   1  18
HETATM   18  O1  UNL     1      63.464 -33.845  44.507  1.00  0.00    -0.385 OA
ATOM     19  H1  UNL     1      62.625 -33.672  44.094  1.00  0.00     0.211 HD
ENDBRANCH   1  18
TORSDOF 2
ENDMDL