MODEL 3
REMARK VINA RESULT: -5.749133987      7.418     10.117
REMARK  1 active torsions:
REMARK  status: ('A' for Active; 'I' for Inactive)
REMARK       I    between atoms: C2_2  and  N1_4
REMARK    1  A    between atoms: N1_4  and  N2_6
ROOT
HETATM    1  N2  UNL     1      62.833 -32.794  40.518  1.00  0.00    -0.306 N
ATOM      2  H2  UNL     1      62.095 -32.465  41.141  1.00  0.00     0.186 HD
HETATM    3  C3  UNL     1      63.738 -33.592  40.975  1.00  0.00     0.004 C
HETATM    4  C4  UNL     1      64.829 -34.106  40.137  1.00  0.00     0.054 C
HETATM    5  C5  UNL     1      66.217 -33.703  40.630  1.00  0.00     0.006 C
HETATM    6  C6  UNL     1      67.062 -34.923  40.642  1.00  0.00     0.000 C
HETATM    7  C7  UNL     1      68.321 -34.888  41.416  1.00  0.00     0.000 C
HETATM    8  C8  UNL     1      68.400 -33.915  42.543  1.00  0.00     0.000 C
HETATM    9  C9  UNL     1      67.547 -34.324  43.728  1.00  0.00     0.006 C
HETATM   10  C10 UNL     1      67.326 -33.232  44.714  1.00  0.00     0.052 C
HETATM   11  C11 UNL     1      66.048 -32.522  44.623  1.00  0.00    -0.020 C
HETATM   12  N3  UNL     1      66.029 -31.246  44.650  1.00  0.00    -0.406 N
ATOM     13  H31 UNL     1      65.140 -30.751  44.587  1.00  0.00     0.155 HD
ATOM     14  H32 UNL     1      66.917 -30.751  44.736  1.00  0.00     0.155 HD
HETATM   15  C12 UNL     1      64.770 -33.237  44.500  1.00  0.00     0.052 C
HETATM   16  C13 UNL     1      63.936 -32.802  43.341  1.00  0.00     0.011 C
HETATM   17  C14 UNL     1      63.570 -33.953  42.418  1.00  0.00     0.054 C
ENDROOT
BRANCH   1  18
HETATM   18  N1  UNL     1      62.845 -32.378  39.206  1.00  0.00    -0.271 N
HETATM   19  C2  UNL     1      61.703 -31.850  38.533  1.00  0.00     0.232 C
HETATM   20  C1  UNL     1      61.782 -31.417  37.117  1.00  0.00     0.119 C
HETATM   21  O1  UNL     1      60.606 -31.741  39.127  1.00  0.00    -0.272 OA
ATOM     22  H1  UNL     1      63.719 -32.450  38.686  1.00  0.00     0.190 HD
ENDBRANCH   1  18
TORSDOF 1
ENDMDL