MODEL 3
REMARK VINA RESULT: -6.876727708      1.833      2.707
REMARK  2 active torsions:
REMARK  status: ('A' for Active; 'I' for Inactive)
REMARK    1  A    between atoms: N2_10  and  C7_11
REMARK    2  A    between atoms: C11_15  and  O1_16
ROOT
HETATM    1  C1  UNL     1      63.415 -29.013  32.777  1.00  0.00     0.019 C
HETATM    2  C2  UNL     1      62.575 -29.460  33.524  1.00  0.00    -0.057 C
HETATM    3  C3  UNL     1      61.602 -29.999  34.424  1.00  0.00     0.113 A
HETATM    4  C4  UNL     1      61.840 -30.788  35.531  1.00  0.00     0.043 A
HETATM    5  C5  UNL     1      63.190 -31.215  35.971  1.00  0.00     0.071 C
HETATM    6  N1  UNL     1      60.635 -31.065  36.087  1.00  0.00    -0.334 N
ATOM      7  H1  UNL     1      60.480 -31.630  36.922  1.00  0.00     0.168 HD
HETATM    8  C6  UNL     1      59.677 -30.471  35.356  1.00  0.00     0.179 A
HETATM    9  S1  UNL     1      58.079 -30.552  35.681  1.00  0.00    -0.040 SA
HETATM   10  N2  UNL     1      60.290 -29.810  34.324  1.00  0.00    -0.310 N
ENDROOT
BRANCH  10  11
HETATM   11  C7  UNL     1      59.567 -29.069  33.352  1.00  0.00     0.093 C
HETATM   12  C8  UNL     1      60.099 -29.097  31.969  1.00  0.00     0.026 C
HETATM   13  C9  UNL     1      58.929 -29.192  31.006  1.00  0.00     0.004 C
HETATM   14  C10 UNL     1      58.427 -27.790  30.666  1.00  0.00     0.032 C
HETATM   15  C11 UNL     1      57.860 -27.205  31.937  1.00  0.00     0.118 C
HETATM   16  C12 UNL     1      58.987 -26.682  32.799  1.00  0.00     0.034 C
HETATM   17  C13 UNL     1      59.401 -27.636  33.877  1.00  0.00     0.028 C
BRANCH  15  18
HETATM   18  O1  UNL     1      57.050 -26.138  31.570  1.00  0.00    -0.396 OA
ATOM     19  H1  UNL     1      56.243 -26.506  31.227  1.00  0.00     0.210 HD
ENDBRANCH  15  18
ENDBRANCH  10  11
TORSDOF 2
ENDMDL