MODEL 1
REMARK VINA RESULT: -8.773732423      0.000      0.000
REMARK  3 active torsions:
REMARK  status: ('A' for Active; 'I' for Inactive)
REMARK    1  A    between atoms: C2_2  and  C5_5
REMARK    2  A    between atoms: C6_8  and  N2_9
REMARK    3  A    between atoms: C7_13  and  C8_14
ROOT
HETATM    1  C5  UNL     1      61.098 -30.256  35.080  1.00  0.00     0.032 A
HETATM    2  N1  UNL     1      62.289 -30.764  35.263  1.00  0.00    -0.339 N
ATOM      3  H1  UNL     1      62.510 -31.296  36.104  1.00  0.00     0.168 HD
HETATM    4  C6  UNL     1      63.220 -30.562  34.297  1.00  0.00     0.142 A
HETATM    5  S1  UNL     1      62.361 -29.646  33.154  1.00  0.00    -0.057 SA
HETATM    6  C7  UNL     1      60.849 -29.550  33.931  1.00  0.00     0.013 A
ENDROOT
BRANCH   6   7
HETATM    7  C8  UNL     1      59.602 -28.993  33.343  1.00  0.00     0.028 C
HETATM    8  C9  UNL     1      59.359 -27.585  33.863  1.00  0.00     0.010 C
HETATM    9  C10 UNL     1      58.881 -26.574  32.899  1.00  0.00     0.001 C
HETATM   10  C11 UNL     1      57.636 -27.075  32.186  1.00  0.00     0.000 C
HETATM   11  C12 UNL     1      58.119 -27.443  30.797  1.00  0.00     0.000 C
HETATM   12  C13 UNL     1      58.752 -28.810  30.944  1.00  0.00     0.001 C
HETATM   13  C14 UNL     1      59.948 -28.816  31.822  1.00  0.00     0.010 C
ENDBRANCH   6   7
BRANCH   1  14
HETATM   14  C2  UNL     1      60.024 -30.369  36.165  1.00  0.00    -0.008 C
HETATM   15  C1  UNL     1      60.591 -31.063  37.389  1.00  0.00     0.021 C
HETATM   16  C3  UNL     1      59.692 -28.953  36.622  1.00  0.00     0.021 C
HETATM   17  C4  UNL     1      58.842 -31.160  35.730  1.00  0.00     0.021 C
ENDBRANCH   1  14
BRANCH   4  18
HETATM   18  N2  UNL     1      64.459 -30.997  34.300  1.00  0.00    -0.380 N
ATOM     19  H22 UNL     1      64.993 -31.495  35.012  1.00  0.00     0.158 HD
ATOM     20  H21 UNL     1      65.139 -30.900  33.546  1.00  0.00     0.158 HD
ENDBRANCH   4  18
TORSDOF 3
ENDMDL