MODEL 4
REMARK VINA RESULT: -9.072830155      2.536      7.086
REMARK  3 active torsions:
REMARK  status: ('A' for Active; 'I' for Inactive)
REMARK    1  A    between atoms: C2_2  and  C3_3
REMARK    2  A    between atoms: C5_5  and  C6_6
REMARK    3  A    between atoms: C12_12  and  O1_13
ROOT
HETATM    1  C6  UNL     1      57.853 -27.079  32.047  1.00  0.00     0.083 C
HETATM    2  C7  UNL     1      58.878 -26.437  32.984  1.00  0.00     0.020 C
HETATM    3  C8  UNL     1      59.239 -27.485  34.010  1.00  0.00     0.040 C
HETATM    4  C9  UNL     1      59.742 -28.756  33.419  1.00  0.00     0.069 C
HETATM    5  C10 UNL     1      61.224 -28.879  33.671  1.00  0.00     0.041 C
HETATM    6  C11 UNL     1      61.570 -30.085  34.516  1.00  0.00     0.034 C
HETATM    7  C12 UNL     1      60.771 -30.117  35.798  1.00  0.00     0.118 C
HETATM    8  C13 UNL     1      59.285 -29.970  35.554  1.00  0.00     0.034 C
HETATM    9  C14 UNL     1      59.073 -29.951  34.061  1.00  0.00     0.041 C
HETATM   10  O2  UNL     1      59.522 -28.861  32.024  1.00  0.00    -0.328 OA
HETATM   11  C15 UNL     1      58.597 -28.130  31.330  1.00  0.00     0.120 C
HETATM   12  N1  UNL     1      58.372 -28.338  30.095  1.00  0.00    -0.383 N
ATOM     13  H11 UNL     1      58.887 -29.065  29.599  1.00  0.00     0.158 HD
ATOM     14  H12 UNL     1      57.682 -27.793  29.578  1.00  0.00     0.158 HD
ENDROOT
BRANCH   1  15
HETATM   15  C5  UNL     1      57.253 -26.109  31.130  1.00  0.00    -0.012 C
HETATM   16  C3  UNL     1      56.285 -25.308  31.519  1.00  0.00    -0.087 C
HETATM   17  C4  UNL     1      55.772 -25.368  32.909  1.00  0.00     0.043 C
BRANCH  16  18
HETATM   18  C2  UNL     1      55.694 -24.337  30.576  1.00  0.00     0.029 C
HETATM   19  C1  UNL     1      54.665 -24.972  29.667  1.00  0.00     0.010 C
ENDBRANCH  16  18
ENDBRANCH   1  15
BRANCH   7  20
HETATM   20  O1  UNL     1      60.982 -31.306  36.453  1.00  0.00    -0.396 OA
ATOM     21  H1  UNL     1      61.827 -31.665  36.207  1.00  0.00     0.210 HD
ENDBRANCH   7  20
TORSDOF 3
ENDMDL