MODEL 4
REMARK VINA RESULT: -5.078199906      1.549      3.079
REMARK  2 active torsions:
REMARK  status: ('A' for Active; 'I' for Inactive)
REMARK    1  A    between atoms: C2_2  and  C3_3
REMARK    2  A    between atoms: C3_3  and  O1_4
ROOT
HETATM    1  C1  UNL     1      66.990 -36.158  41.746  1.00  0.00     0.021 C
HETATM    2  C2  UNL     1      66.650 -34.878  41.003  1.00  0.00     0.015 C
HETATM    3  C4  UNL     1      65.193 -34.994  40.705  1.00  0.00     0.016 C
HETATM    4  C5  UNL     1      64.387 -33.843  40.323  1.00  0.00     0.014 C
HETATM    5  C6  UNL     1      63.676 -33.098  41.436  1.00  0.00     0.037 C
HETATM    6  C7  UNL     1      63.016 -34.038  42.347  1.00  0.00    -0.019 C
HETATM    7  C8  UNL     1      63.439 -34.381  43.554  1.00  0.00     0.005 C
HETATM    8  C9  UNL     1      64.698 -33.753  44.025  1.00  0.00     0.187 C
HETATM    9  C10 UNL     1      64.783 -32.345  43.581  1.00  0.00     0.074 C
HETATM   10  C11 UNL     1      64.533 -32.077  42.139  1.00  0.00    -0.070 C
HETATM   11  C12 UNL     1      65.700 -31.590  41.351  1.00  0.00     0.002 C
HETATM   12  C13 UNL     1      66.890 -32.368  41.138  1.00  0.00     0.015 C
HETATM   13  C14 UNL     1      67.110 -33.692  41.785  1.00  0.00     0.120 C
HETATM   14  C15 UNL     1      68.627 -33.822  41.937  1.00  0.00     0.055 C
HETATM   15  O2  UNL     1      66.649 -33.657  43.072  1.00  0.00    -0.224 OA
HETATM   16  O3  UNL     1      65.724 -34.467  43.412  1.00  0.00    -0.230 OA
ENDROOT
BRANCH   2  17
HETATM   17  C3  UNL     1      67.367 -34.999  39.655  1.00  0.00     0.176 C
BRANCH  17  18
HETATM   18  O1  UNL     1      66.998 -36.081  38.905  1.00  0.00    -0.400 OA
ATOM     19  H1  UNL     1      66.333 -36.631  39.300  1.00  0.00     0.209 HD
ENDBRANCH  17  18
ENDBRANCH   2  17
TORSDOF 2
ENDMDL