MODEL 5
REMARK VINA RESULT: -6.454151240      2.563      4.943
REMARK  3 active torsions:
REMARK  status: ('A' for Active; 'I' for Inactive)
REMARK    1  A    between atoms: C11_11  and  O1_12
REMARK    2  A    between atoms: C11_11  and  O2_14
REMARK    3  A    between atoms: O2_14  and  O3_15
ROOT
HETATM    1  C1  UNL     1      58.737 -31.147  35.937  1.00  0.00     0.015 C
HETATM    2  C2  UNL     1      59.878 -30.205  36.017  1.00  0.00    -0.044 C
HETATM    3  C3  UNL     1      60.337 -30.087  37.446  1.00  0.00     0.015 C
HETATM    4  C4  UNL     1      61.108 -30.786  35.227  1.00  0.00     0.013 C
HETATM    5  C5  UNL     1      60.887 -29.993  34.058  1.00  0.00    -0.013 C
HETATM    6  C6  UNL     1      61.374 -29.691  32.790  1.00  0.00     0.010 C
HETATM    7  C7  UNL     1      60.376 -28.605  32.320  1.00  0.00    -0.005 C
HETATM    8  C8  UNL     1      60.182 -28.942  30.821  1.00  0.00     0.005 C
HETATM    9  C9  UNL     1      59.460 -27.826  30.127  1.00  0.00     0.006 C
HETATM   10  C10 UNL     1      58.106 -27.687  30.791  1.00  0.00     0.072 C
HETATM   11  C11 UNL     1      58.320 -27.429  32.239  1.00  0.00     0.199 C
HETATM   12  C12 UNL     1      59.040 -28.615  32.929  1.00  0.00     0.055 C
HETATM   13  C13 UNL     1      58.678 -28.636  34.325  1.00  0.00     0.016 C
HETATM   14  C14 UNL     1      59.618 -28.840  35.444  1.00  0.00    -0.006 C
HETATM   15  C15 UNL     1      60.950 -28.647  34.788  1.00  0.00     0.010 C
ENDROOT
BRANCH  11  16
HETATM   16  O1  UNL     1      59.106 -26.324  32.444  1.00  0.00    -0.363 OA
ATOM     17  H1  UNL     1      59.074 -26.035  33.348  1.00  0.00     0.213 HD
ENDBRANCH  11  16
BRANCH  11  18
HETATM   18  O2  UNL     1      57.075 -27.346  32.857  1.00  0.00    -0.203 OA
BRANCH  18  19
HETATM   19  O3  UNL     1      56.647 -26.100  32.697  1.00  0.00    -0.247 OA
ATOM     20  H3  UNL     1      55.699 -26.122  32.762  1.00  0.00     0.253 HD
ENDBRANCH  18  19
ENDBRANCH  11  18
TORSDOF 3
ENDMDL