MODEL 1
REMARK VINA RESULT: -9.265431768      0.000      0.000
REMARK  2 active torsions:
REMARK  status: ('A' for Active; 'I' for Inactive)
REMARK    1  A    between atoms: C3_3  and  C4_4
REMARK    2  A    between atoms: N2_6  and  O1_8
ROOT
HETATM    1  C1  UNL     1      59.586 -28.308  29.673  1.00  0.00     0.013 C
HETATM    2  C2  UNL     1      59.496 -28.351  30.879  1.00  0.00    -0.100 C
HETATM    3  C3  UNL     1      59.376 -28.428  32.373  1.00  0.00     0.080 C
HETATM    4  C5  UNL     1      58.716 -29.691  32.685  1.00  0.00     0.030 C
HETATM    5  C6  UNL     1      58.003 -29.946  33.925  1.00  0.00     0.002 C
HETATM    6  C7  UNL     1      58.656 -29.707  35.232  1.00  0.00     0.000 C
HETATM    7  C8  UNL     1      59.643 -30.828  35.604  1.00  0.00     0.000 C
HETATM    8  C9  UNL     1      60.678 -30.225  36.484  1.00  0.00     0.000 C
HETATM    9  C10 UNL     1      62.032 -30.817  36.446  1.00  0.00     0.000 C
HETATM   10  C11 UNL     1      62.570 -31.211  35.118  1.00  0.00     0.000 C
HETATM   11  C12 UNL     1      62.925 -30.017  34.221  1.00  0.00     0.000 C
HETATM   12  C13 UNL     1      62.403 -30.225  32.844  1.00  0.00     0.000 C
HETATM   13  C14 UNL     1      61.843 -29.023  32.153  1.00  0.00     0.002 C
HETATM   14  C15 UNL     1      60.798 -28.258  32.863  1.00  0.00     0.030 C
ENDROOT
BRANCH   3  15
HETATM   15  C4  UNL     1      58.644 -27.201  32.729  1.00  0.00     0.133 C
HETATM   16  N1  UNL     1      57.563 -26.839  31.875  1.00  0.00    -0.084 NA
HETATM   17  N2  UNL     1      58.876 -26.433  33.716  1.00  0.00    -0.258 N
ATOM     18  H2  UNL     1      59.648 -26.676  34.338  1.00  0.00     0.195 HD
BRANCH  17  19
HETATM   19  O1  UNL     1      58.160 -25.302  33.997  1.00  0.00    -0.289 OA
ATOM     20  H1  UNL     1      58.122 -24.893  34.853  1.00  0.00     0.244 HD
ENDBRANCH  17  19
ENDBRANCH   3  15
TORSDOF 2
ENDMDL