MODEL 3
REMARK VINA RESULT: -7.279024264      2.974      5.514
REMARK  10 active torsions:
REMARK  status: ('A' for Active; 'I' for Inactive)
REMARK    1  A    between atoms: C2_2  and  O1_3
REMARK    2  A    between atoms: O1_3  and  C3_4
REMARK    3  A    between atoms: C3_4  and  C4_5
REMARK       I    between atoms: C4_5  and  N1_7
REMARK    4  A    between atoms: N1_7  and  C5_9
REMARK    5  A    between atoms: C5_9  and  C7_11
REMARK    6  A    between atoms: C7_11  and  O3_12
REMARK    7  A    between atoms: C7_11  and  N2_14
REMARK       I    between atoms: N2_14  and  C8_16
REMARK    8  A    between atoms: C8_16  and  C9_18
REMARK    9  A    between atoms: C9_18  and  O5_19
REMARK   10  A    between atoms: C9_18  and  C10_21
ROOT
HETATM    1  C4  UNL     1      13.266  37.719 198.881  1.00  0.00     0.292 C
HETATM    2  O2  UNL     1      13.808  36.590 199.150  1.00  0.00    -0.267 OA
HETATM    3  N1  UNL     1      14.004  38.879 199.150  1.00  0.00    -0.347 N
ATOM      4  H1  UNL     1      13.604  39.796 198.955  1.00  0.00     0.163 HD
ENDROOT
BRANCH   3   5
HETATM    5  C5  UNL     1      15.363  38.770 199.719  1.00  0.00     0.129 C
HETATM    6  C6  UNL     1      15.234  38.918 201.241  1.00  0.00     0.036 C
BRANCH   5   7
HETATM    7  C7  UNL     1      16.225  39.878 199.225  1.00  0.00     0.242 C
BRANCH   7   8
HETATM    8  O3  UNL     1      15.511  41.076 199.099  1.00  0.00    -0.375 OA
ATOM      9  H3  UNL     1      14.988  41.092 198.307  1.00  0.00     0.212 HD
ENDBRANCH   7   8
BRANCH   7  10
HETATM   10  N2  UNL     1      16.719  39.475 197.899  1.00  0.00    -0.330 N
HETATM   11  C8  UNL     1      17.816  38.592 197.800  1.00  0.00     0.256 C
HETATM   12  O4  UNL     1      18.375  38.146 198.858  1.00  0.00    -0.270 OA
ATOM     13  H2  UNL     1      16.271  39.832 197.056  1.00  0.00     0.165 HD
BRANCH  11  14
HETATM   14  C9  UNL     1      18.312  38.185 196.469  1.00  0.00     0.291 C
BRANCH  14  15
HETATM   15  O5  UNL     1      17.596  38.965 195.532  1.00  0.00    -0.378 OA
ATOM     16  H5  UNL     1      17.244  38.353 194.897  1.00  0.00     0.211 HD
ENDBRANCH  14  15
BRANCH  14  17
HETATM   17  C10 UNL     1      19.747  38.416 196.357  1.00  0.00     0.234 C
HETATM   18  O6  UNL     1      20.458  37.568 195.802  1.00  0.00    -0.281 OA
HETATM   19  S1  UNL     1      20.623  39.852 196.958  1.00  0.00    -0.009 SA
ENDBRANCH  14  17
ENDBRANCH  11  14
ENDBRANCH   7  10
ENDBRANCH   5   7
ENDBRANCH   3   5
BRANCH   1  20
HETATM   20  C3  UNL     1      11.910  37.754 198.325  1.00  0.00     0.341 C
HETATM   21  O7  UNL     1      11.714  37.217 197.095  1.00  0.00    -0.303 OA
HETATM   22  C11 UNL     1      11.075  36.016 197.140  1.00  0.00     0.170 C
HETATM   23  C12 UNL     1       9.618  36.176 196.753  1.00  0.00     0.079 C
HETATM   24  C13 UNL     1      11.761  34.950 196.311  1.00  0.00     0.079 C
HETATM   25  O8  UNL     1      11.105  35.588 198.484  1.00  0.00    -0.279 OA
HETATM   26  C14 UNL     1      11.197  36.712 199.248  1.00  0.00     0.335 C
HETATM   27  O9  UNL     1      10.862  37.018 200.395  1.00  0.00    -0.258 OA
BRANCH  20  28
HETATM   28  O1  UNL     1      11.192  38.883 198.590  1.00  0.00    -0.340 OA
BRANCH  28  29
HETATM   29  C2  UNL     1      10.196  39.267 197.776  1.00  0.00     0.168 C
HETATM   30  C1  UNL     1       8.819  39.431 198.303  1.00  0.00     0.033 C
ENDBRANCH  28  29
ENDBRANCH  20  28
ENDBRANCH   1  20
TORSDOF 10
ENDMDL