MODEL 3
REMARK VINA RESULT: -8.616795625      3.314      5.697
REMARK  7 active torsions:
REMARK  status: ('A' for Active; 'I' for Inactive)
REMARK    1  A    between atoms: C1_2  and  C2_4
REMARK    2  A    between atoms: C2_4  and  O3_5
REMARK    3  A    between atoms: O3_5  and  N1_6
REMARK       I    between atoms: C3_8  and  N2_9
REMARK       I    between atoms: C3_8  and  N6_29
REMARK    4  A    between atoms: N2_9  and  C4_11
REMARK    5  A    between atoms: C4_11  and  C5_12
REMARK    6  A    between atoms: C7_14  and  N3_15
REMARK    7  A    between atoms: N6_29  and  N7_31
ROOT
HETATM    1  C5  UNL     1      14.466  41.247 203.052  1.00  0.00     0.000 A
HETATM    2  C6  UNL     1      14.993  42.510 203.299  1.00  0.00     0.050 A
HETATM    3  C7  UNL     1      14.275  43.612 203.690  1.00  0.00     0.105 A
HETATM    4  C8  UNL     1      12.923  43.491 203.860  1.00  0.00     0.066 A
HETATM    5  C9  UNL     1      12.340  42.276 203.634  1.00  0.00     0.055 A
HETATM    6  N4  UNL     1      11.002  42.100 203.780  1.00  0.00    -0.307 N
ATOM      7  H4  UNL     1      10.433  42.896 204.070  1.00  0.00     0.170 HD
HETATM    8  C10 UNL     1      10.398  40.926 203.559  1.00  0.00     0.327 A
HETATM    9  O6  UNL     1       9.134  40.834 203.716  1.00  0.00    -0.247 OA
HETATM   10  N5  UNL     1      11.098  39.847 203.174  1.00  0.00    -0.275 N
ATOM     11  H5  UNL     1      10.635  38.955 203.005  1.00  0.00     0.173 HD
HETATM   12  C11 UNL     1      12.453  39.981 203.015  1.00  0.00     0.262 A
HETATM   13  O7  UNL     1      13.022  38.955 202.661  1.00  0.00    -0.267 OA
HETATM   14  C12 UNL     1      13.077  41.159 203.236  1.00  0.00     0.070 A
ENDROOT
BRANCH   1  15
HETATM   15  C4  UNL     1      15.295  40.126 202.674  1.00  0.00     0.118 C
BRANCH  15  16
HETATM   16  N2  UNL     1      16.380  40.395 201.749  1.00  0.00    -0.198 N
HETATM   17  C3  UNL     1      16.345  39.793 200.458  1.00  0.00     0.721 C
HETATM   18  N1  UNL     1      17.442  39.324 199.989  1.00  0.00    -0.094 N
HETATM   19  N6  UNL     1      15.157  39.701 199.696  1.00  0.00    -0.070 N
ATOM     20  H1  UNL     1      18.305  39.384 200.530  1.00  0.00     0.213 HD
ATOM     21  H6  UNL     1      14.856  40.475 199.104  1.00  0.00     0.212 HD
ATOM     22  H2  UNL     1      17.154  41.003 202.018  1.00  0.00     0.183 HD
BRANCH  18  23
HETATM   23  O3  UNL     1      17.438  38.742 198.754  1.00  0.00    -0.256 OA
BRANCH  23  24
HETATM   24  C2  UNL     1      18.131  39.351 197.674  1.00  0.00     0.314 C
BRANCH  24  25
HETATM   25  C1  UNL     1      18.365  38.332 196.631  1.00  0.00     0.200 C
HETATM   26  O1  UNL     1      18.034  38.531 195.435  1.00  0.00    -0.646 OA
HETATM   27  O2  UNL     1      18.965  37.111 196.942  1.00  0.00    -0.646 OA
ENDBRANCH  24  25
ENDBRANCH  23  24
ENDBRANCH  18  23
BRANCH  19  28
HETATM   28  N7  UNL     1      14.403  38.524 199.773  1.00  0.00    -0.024 N
HETATM   29  O8  UNL     1      13.208  38.531 199.415  1.00  0.00    -0.516 OA
HETATM   30  O9  UNL     1      14.908  37.332 200.227  1.00  0.00    -0.516 OA
ENDBRANCH  19  28
ENDBRANCH  15  16
ENDBRANCH   1  15
BRANCH   3  31
HETATM   31  N3  UNL     1      14.937  44.852 203.911  1.00  0.00    -0.116 N
HETATM   32  O4  UNL     1      16.162  44.958 203.764  1.00  0.00    -0.532 OA
HETATM   33  O5  UNL     1      14.210  45.937 204.291  1.00  0.00    -0.532 OA
ENDBRANCH   3  31
TORSDOF 7
ENDMDL