MODEL 2
REMARK VINA RESULT: -7.768971853      1.360      3.287
REMARK  7 active torsions:
REMARK  status: ('A' for Active; 'I' for Inactive)
REMARK    1  A    between atoms: C2_2  and  C3_3
REMARK    2  A    between atoms: C3_3  and  N1_4
REMARK    3  A    between atoms: N4_13  and  C9_14
REMARK    4  A    between atoms: C10_17  and  N6_18
REMARK    5  A    between atoms: N6_18  and  C11_20
REMARK    6  A    between atoms: C11_20  and  C12_21
REMARK    7  A    between atoms: C12_21  and  N7_22
REMARK       I    between atoms: N9_28  and  C16_30
REMARK       I    between atoms: C16_30  and  N10_31
REMARK       I    between atoms: C16_30  and  N11_35
ROOT
HETATM    1  C9  UNL     1      13.197  38.109 199.070  1.00  0.00     0.728 A
HETATM    2  N5  UNL     1      14.300  38.137 198.307  1.00  0.00    -0.020 N
ATOM      3  H5  UNL     1      14.241  37.803 197.345  1.00  0.00     0.203 HD
HETATM    4  C10 UNL     1      15.479  38.588 198.763  1.00  0.00     0.707 A
HETATM    5  N8  UNL     1      15.565  39.031 200.032  1.00  0.00    -0.021 N
ATOM      6  H8  UNL     1      16.450  39.378 200.400  1.00  0.00     0.203 HD
HETATM    7  C15 UNL     1      14.483  39.010 200.796  1.00  0.00     0.710 A
HETATM    8  N9  UNL     1      14.499  39.419 202.007  1.00  0.00    -0.172 N
ATOM      9  H9  UNL     1      13.609  39.356 202.500  1.00  0.00     0.181 HD
HETATM   10  C16 UNL     1      15.580  39.950 202.769  1.00  0.00     0.494 C
HETATM   11  N10 UNL     1      15.241  41.322 203.122  1.00  0.00    -0.032 N
ATOM     12 1H10 UNL     1      16.014  41.703 203.667  1.00  0.00     0.278 HD
ATOM     13 2H10 UNL     1      14.344  41.399 203.601  1.00  0.00     0.278 HD
ATOM     14 3H10 UNL     1      15.010  41.895 202.310  1.00  0.00     0.278 HD
HETATM   15  N11 UNL     1      15.658  39.205 204.043  1.00  0.00    -0.032 N
ATOM     16 1H11 UNL     1      16.431  39.585 204.588  1.00  0.00     0.278 HD
ATOM     17 2H11 UNL     1      15.733  38.197 203.905  1.00  0.00     0.278 HD
ATOM     18 3H11 UNL     1      14.776  39.208 204.555  1.00  0.00     0.278 HD
HETATM   19  N12 UNL     1      13.281  38.548 200.328  1.00  0.00    -0.020 N
ATOM     20  H12 UNL     1      12.460  38.541 200.933  1.00  0.00     0.203 HD
ENDROOT
BRANCH   1  21
HETATM   21  N4  UNL     1      11.946  37.626 198.543  1.00  0.00    -0.116 N
HETATM   22  N1  UNL     1      11.798  36.232 198.398  1.00  0.00    -0.245 N
HETATM   23  C4  UNL     1      10.673  35.800 197.650  1.00  0.00     0.206 C
HETATM   24  N2  UNL     1      10.452  34.411 197.455  1.00  0.00    -0.062 NA
HETATM   25  N3  UNL     1       9.858  36.633 197.147  1.00  0.00    -0.353 N
HETATM   26  C5  UNL     1       9.918  38.061 197.237  1.00  0.00     0.044 C
ATOM     27  H3  UNL     1       9.076  36.244 196.621  1.00  0.00     0.163 HD
HETATM   28  C6  UNL     1      10.221  38.620 195.844  1.00  0.00     0.039 C
HETATM   29  C7  UNL     1       8.524  38.547 197.621  1.00  0.00     0.039 C
HETATM   30  C8  UNL     1      10.936  38.577 198.210  1.00  0.00     0.198 C
BRANCH  22  31
HETATM   31  C3  UNL     1      12.761  35.310 199.000  1.00  0.00     0.179 C
BRANCH  31  32
HETATM   32  C2  UNL     1      12.331  34.931 200.353  1.00  0.00    -0.015 C
HETATM   33  C1  UNL     1      13.147  35.060 201.378  1.00  0.00     0.008 C
ENDBRANCH  31  32
ENDBRANCH  22  31
ENDBRANCH   1  21
BRANCH   4  34
HETATM   34  N6  UNL     1      16.511  38.594 198.009  1.00  0.00    -0.224 N
ATOM     35  H6  UNL     1      16.601  37.931 197.239  1.00  0.00     0.177 HD
BRANCH  34  36
HETATM   36  C11 UNL     1      17.550  39.566 198.278  1.00  0.00     0.157 C
BRANCH  36  37
HETATM   37  C12 UNL     1      18.878  38.849 198.544  1.00  0.00     0.136 C
BRANCH  37  38
HETATM   38  N7  UNL     1      19.765  39.234 197.504  1.00  0.00    -0.419 N
HETATM   39  C13 UNL     1      19.745  40.594 197.102  1.00  0.00     0.142 C
HETATM   40  C14 UNL     1      20.064  38.268 196.510  1.00  0.00     0.142 C
ENDBRANCH  37  38
ENDBRANCH  36  37
ENDBRANCH  34  36
ENDBRANCH   4  34
TORSDOF 7
ENDMDL