MODEL 2
REMARK VINA RESULT: -9.088625390      4.308      5.607
REMARK  9 active torsions:
REMARK  status: ('A' for Active; 'I' for Inactive)
REMARK    1  A    between atoms: N1_1  and  N2_4
REMARK       I    between atoms: N2_4  and  C1_6
REMARK    2  A    between atoms: C1_6  and  C2_8
REMARK    3  A    between atoms: C5_11  and  O2_12
REMARK    4  A    between atoms: O2_12  and  N3_13
REMARK    5  A    between atoms: C6_15  and  C7_16
REMARK    6  A    between atoms: C6_15  and  C8_18
REMARK    7  A    between atoms: C8_18  and  C9_19
REMARK       I    between atoms: C9_19  and  N4_21
REMARK    8  A    between atoms: N4_21  and  C10_23
REMARK    9  A    between atoms: C11_24  and  O5_25
ROOT
HETATM    1  N3  UNL     1      14.896  41.142 203.872  1.00  0.00    -0.261 N
ATOM      2  H3  UNL     1      14.536  41.187 204.824  1.00  0.00     0.194 HD
HETATM    3  C6  UNL     1      15.208  40.014 203.339  1.00  0.00     0.079 C
ENDROOT
BRANCH   3   4
HETATM    4  C7  UNL     1      15.032  38.817 204.134  1.00  0.00     0.285 C
HETATM    5  O3  UNL     1      14.063  38.069 203.897  1.00  0.00    -0.300 OA
ENDBRANCH   3   4
BRANCH   3   6
HETATM    6  C8  UNL     1      15.735  39.985 201.952  1.00  0.00     0.165 C
BRANCH   6   7
HETATM    7  C9  UNL     1      14.671  39.831 200.929  1.00  0.00     0.228 C
HETATM    8  O4  UNL     1      14.366  40.791 200.177  1.00  0.00    -0.273 OA
HETATM    9  N4  UNL     1      14.021  38.571 200.838  1.00  0.00    -0.319 N
ATOM     10  H4  UNL     1      14.275  37.797 201.452  1.00  0.00     0.169 HD
BRANCH   9  11
HETATM   11  C10 UNL     1      12.997  38.433 199.849  1.00  0.00     0.155 A
HETATM   12  C11 UNL     1      13.310  38.244 198.522  1.00  0.00     0.177 A
HETATM   13  N5  UNL     1      12.310  38.118 197.623  1.00  0.00    -0.287 N
HETATM   14  C12 UNL     1      11.026  38.175 198.020  1.00  0.00     0.329 A
ATOM     15  H5  UNL     1      12.530  37.978 196.636  1.00  0.00     0.172 HD
HETATM   16  O6  UNL     1      10.093  38.057 197.183  1.00  0.00    -0.247 OA
HETATM   17  N6  UNL     1      10.693  38.359 199.323  1.00  0.00    -0.273 N
HETATM   18  C13 UNL     1      11.672  38.487 200.230  1.00  0.00     0.280 A
ATOM     19  H6  UNL     1       9.714  38.399 199.607  1.00  0.00     0.173 HD
HETATM   20  O7  UNL     1      11.415  38.663 201.469  1.00  0.00    -0.265 OA
BRANCH  12  21
HETATM   21  O5  UNL     1      14.647  38.192 198.166  1.00  0.00    -0.344 OA
ATOM     22  H5  UNL     1      15.127  39.009 198.099  1.00  0.00     0.219 HD
ENDBRANCH  12  21
ENDBRANCH   9  11
ENDBRANCH   6   7
ENDBRANCH   3   6
BRANCH   1  23
HETATM   23  O2  UNL     1      15.058  42.280 203.131  1.00  0.00    -0.236 OA
BRANCH  23  24
HETATM   24  C5  UNL     1      14.441  43.444 203.588  1.00  0.00     0.114 A
HETATM   25  C4  UNL     1      15.135  44.456 204.204  1.00  0.00     0.043 A
HETATM   26  C3  UNL     1      14.466  45.590 204.638  1.00  0.00     0.038 A
HETATM   27  C2  UNL     1      13.098  45.671 204.436  1.00  0.00     0.102 A
HETATM   28  N7  UNL     1      12.453  44.660 203.830  1.00  0.00    -0.359 N
HETATM   29  C14 UNL     1      13.080  43.547 203.400  1.00  0.00     0.128 A
ATOM     30  H7  UNL     1      11.446  44.738 203.689  1.00  0.00     0.165 HD
BRANCH  27  31
HETATM   31  C1  UNL     1      12.324  46.828 204.862  1.00  0.00     0.286 C
HETATM   32  N2  UNL     1      10.922  46.758 204.991  1.00  0.00    -0.271 N
ATOM     33  H2  UNL     1      10.445  45.882 204.780  1.00  0.00     0.189 HD
HETATM   34  O1  UNL     1      12.909  47.895 205.118  1.00  0.00    -0.264 OA
BRANCH  32  35
HETATM   35  N1  UNL     1      10.175  47.859 205.398  1.00  0.00    -0.342 N
ATOM     36  H12 UNL     1      10.241  48.154 206.372  1.00  0.00     0.176 HD
ATOM     37  H11 UNL     1       9.575  48.365 204.746  1.00  0.00     0.176 HD
ENDBRANCH  32  35
ENDBRANCH  27  31
ENDBRANCH  23  24
ENDBRANCH   1  23
TORSDOF 9
ENDMDL