MODEL 4
REMARK VINA RESULT: -7.789102947      1.109      1.561
REMARK  10 active torsions:
REMARK  status: ('A' for Active; 'I' for Inactive)
REMARK    1  A    between atoms: O1_2  and  C2_3
REMARK    2  A    between atoms: C2_3  and  C3_5
REMARK    3  A    between atoms: C3_5  and  N1_6
REMARK    4  A    between atoms: N1_6  and  C4_8
REMARK    5  A    between atoms: C5_11  and  N3_12
REMARK    6  A    between atoms: N5_20  and  C8_21
REMARK    7  A    between atoms: C8_21  and  C9_22
REMARK    8  A    between atoms: C9_22  and  C10_23
REMARK    9  A    between atoms: C10_23  and  O4_24
REMARK   10  A    between atoms: O4_24  and  S1_25
ROOT
HETATM    1  C4  UNL     1      13.888  41.809 202.223  1.00  0.00     0.681 A
HETATM    2  N2  UNL     1      12.836  41.275 202.890  1.00  0.00    -0.175 N
ATOM      3  H2  UNL     1      12.331  41.861 203.555  1.00  0.00     0.186 HD
HETATM    4  C5  UNL     1      12.431  40.008 202.711  1.00  0.00     0.145 A
HETATM    5  C6  UNL     1      13.141  39.246 201.799  1.00  0.00     0.126 A
HETATM    6  N4  UNL     1      13.020  37.970 201.377  1.00  0.00    -0.302 N
ATOM      7  H4  UNL     1      12.317  37.304 201.696  1.00  0.00     0.171 HD
HETATM    8  C7  UNL     1      13.976  37.718 200.466  1.00  0.00     0.328 A
HETATM    9  O3  UNL     1      14.187  36.647 199.848  1.00  0.00    -0.246 OA
HETATM   10  N5  UNL     1      14.710  38.818 200.300  1.00  0.00    -0.283 N
HETATM   11  C11 UNL     1      14.221  39.800 201.117  1.00  0.00     0.158 A
HETATM   12  N6  UNL     1      14.561  41.074 201.353  1.00  0.00    -0.174 N
ATOM     13  H6  UNL     1      15.352  41.483 200.856  1.00  0.00     0.186 HD
ENDROOT
BRANCH  10  14
HETATM   14  C8  UNL     1      15.826  39.034 199.457  1.00  0.00     0.137 C
BRANCH  14  15
HETATM   15  C9  UNL     1      17.153  38.564 199.905  1.00  0.00     0.048 C
BRANCH  15  16
HETATM   16  C10 UNL     1      18.299  38.879 198.970  1.00  0.00     0.194 C
BRANCH  16  17
HETATM   17  O4  UNL     1      18.344  37.909 197.974  1.00  0.00    -0.257 OA
BRANCH  17  18
HETATM   18  S1  UNL     1      18.840  38.489 196.510  1.00  0.00     0.251 S
HETATM   19  O5  UNL     1      19.958  37.591 196.012  1.00  0.00    -0.572 OA
HETATM   20  O6  UNL     1      17.779  38.486 195.465  1.00  0.00    -0.572 OA
HETATM   21  O7  UNL     1      19.468  40.042 196.597  1.00  0.00    -0.572 OA
ENDBRANCH  17  18
ENDBRANCH  16  17
ENDBRANCH  15  16
ENDBRANCH  14  15
ENDBRANCH  10  14
BRANCH   4  22
HETATM   22  N3  UNL     1      11.439  39.468 203.325  1.00  0.00    -0.383 N
ATOM     23  H32 UNL     1      10.588  40.016 203.457  1.00  0.00     0.157 HD
ATOM     24  H31 UNL     1      11.438  38.519 203.697  1.00  0.00     0.157 HD
ENDBRANCH   4  22
BRANCH   1  25
HETATM   25  N1  UNL     1      14.257  43.049 202.423  1.00  0.00    -0.217 N
ATOM     26  H1  UNL     1      14.432  43.635 201.606  1.00  0.00     0.178 HD
BRANCH  25  27
HETATM   27  C3  UNL     1      14.427  43.631 203.712  1.00  0.00     0.249 C
BRANCH  27  28
HETATM   28  C2  UNL     1      13.362  44.627 204.030  1.00  0.00     0.276 C
HETATM   29  O2  UNL     1      12.223  44.524 203.507  1.00  0.00    -0.263 OA
BRANCH  28  30
HETATM   30  O1  UNL     1      13.566  45.685 204.892  1.00  0.00    -0.325 OA
HETATM   31  C1  UNL     1      12.627  46.736 205.043  1.00  0.00     0.213 C
ENDBRANCH  28  30
ENDBRANCH  27  28
ENDBRANCH  25  27
ENDBRANCH   1  25
TORSDOF 10
ENDMDL