MODEL 4
REMARK VINA RESULT: -8.435387713      3.202      6.916
REMARK  13 active torsions:
REMARK  status: ('A' for Active; 'I' for Inactive)
REMARK    1  A    between atoms: C2_2  and  C3_3
REMARK    2  A    between atoms: C3_3  and  O1_4
REMARK    3  A    between atoms: C3_3  and  C4_7
REMARK    4  A    between atoms: O1_4  and  O2_5
REMARK       I    between atoms: C4_7  and  N1_9
REMARK    5  A    between atoms: N1_9  and  N2_11
REMARK    6  A    between atoms: N2_11  and  C5_13
REMARK    7  A    between atoms: C6_16  and  N4_17
REMARK    8  A    between atoms: N4_17  and  N5_19
REMARK    9  A    between atoms: C7_21  and  C8_22
REMARK   10  A    between atoms: C14_31  and  C15_32
REMARK   11  A    between atoms: C15_32  and  O5_33
REMARK   12  A    between atoms: C15_32  and  N7_35
REMARK   13  A    between atoms: N7_35  and  N8_37
ROOT
HETATM    1  C5  UNL     1      13.660  41.535 202.460  1.00  0.00     0.152 A
HETATM    2  N3  UNL     1      12.525  41.430 203.165  1.00  0.00    -0.173 N
ATOM      3  H3  UNL     1      12.270  42.159 203.831  1.00  0.00     0.186 HD
HETATM    4  C6  UNL     1      11.724  40.364 202.993  1.00  0.00     0.698 A
HETATM    5  N6  UNL     1      12.045  39.394 202.117  1.00  0.00    -0.193 N
ATOM      6  H6  UNL     1      11.425  38.592 202.001  1.00  0.00     0.184 HD
HETATM    7  C12 UNL     1      13.202  39.476 201.377  1.00  0.00     0.041 A
HETATM    8  C13 UNL     1      13.438  38.403 200.383  1.00  0.00     0.070 C
HETATM    9  C14 UNL     1      14.031  40.527 201.524  1.00  0.00     0.085 A
ENDROOT
BRANCH   1  10
HETATM   10  N2  UNL     1      14.476  42.521 202.599  1.00  0.00    -0.281 N
ATOM     11  H2  UNL     1      15.405  42.487 202.177  1.00  0.00     0.188 HD
BRANCH  10  12
HETATM   12  N1  UNL     1      14.076  43.636 203.331  1.00  0.00    -0.266 N
HETATM   13  C4  UNL     1      14.896  44.399 204.190  1.00  0.00     0.268 C
HETATM   14  O3  UNL     1      16.111  44.141 204.384  1.00  0.00    -0.269 OA
ATOM     15  H1  UNL     1      13.102  43.926 203.239  1.00  0.00     0.190 HD
BRANCH  13  16
HETATM   16  C3  UNL     1      14.320  45.563 204.911  1.00  0.00     0.253 C
BRANCH  16  17
HETATM   17  C2  UNL     1      12.895  45.841 204.454  1.00  0.00     0.040 C
HETATM   18  C1  UNL     1      12.271  46.906 205.307  1.00  0.00     0.008 C
ENDBRANCH  16  17
BRANCH  16  19
HETATM   19  O1  UNL     1      15.124  46.703 204.672  1.00  0.00    -0.228 OA
BRANCH  19  20
HETATM   20  O2  UNL     1      16.205  46.674 205.402  1.00  0.00    -0.250 OA
ATOM     21  H2  UNL     1      16.371  47.522 205.797  1.00  0.00     0.253 HD
ENDBRANCH  19  20
ENDBRANCH  16  19
ENDBRANCH  13  16
ENDBRANCH  10  12
ENDBRANCH   1  10
BRANCH   9  22
HETATM   22  C15 UNL     1      15.246  40.775 200.807  1.00  0.00     0.170 C
BRANCH  22  23
HETATM   23  O5  UNL     1      16.384  40.506 201.394  1.00  0.00    -0.344 OA
ATOM     24  H5  UNL     1      17.107  40.198 200.861  1.00  0.00     0.219 HD
ENDBRANCH  22  23
BRANCH  22  25
HETATM   25  N7  UNL     1      15.338  41.283 199.505  1.00  0.00    -0.286 N
ATOM     26  H7  UNL     1      14.835  42.136 199.261  1.00  0.00     0.188 HD
BRANCH  25  27
HETATM   27  N8  UNL     1      16.130  40.617 198.509  1.00  0.00    -0.343 N
ATOM     28  H82 UNL     1      15.806  40.625 197.542  1.00  0.00     0.176 HD
ATOM     29  H81 UNL     1      16.999  40.146 198.760  1.00  0.00     0.176 HD
ENDBRANCH  25  27
ENDBRANCH  22  25
ENDBRANCH   9  22
BRANCH   4  30
HETATM   30  N4  UNL     1      10.634  40.279 203.647  1.00  0.00    -0.132 N
ATOM     31  H4  UNL     1      10.067  39.434 203.575  1.00  0.00     0.205 HD
BRANCH  30  32
HETATM   32  N5  UNL     1      10.211  41.320 204.456  1.00  0.00    -0.295 N
HETATM   33  C7  UNL     1       9.246  41.245 205.282  1.00  0.00     0.144 C
ATOM     34  H5  UNL     1      10.707  42.208 204.383  1.00  0.00     0.186 HD
BRANCH  33  35
HETATM   35  C8  UNL     1       8.943  42.468 206.059  1.00  0.00     0.091 A
HETATM   36  C9  UNL     1       8.592  42.526 207.379  1.00  0.00     0.040 A
HETATM   37  C10 UNL     1       8.404  43.855 207.677  1.00  0.00     0.027 A
HETATM   38  C11 UNL     1       8.647  44.550 206.533  1.00  0.00     0.142 A
HETATM   39  O4  UNL     1       8.960  43.694 205.604  1.00  0.00    -0.321 OA
ENDBRANCH  33  35
ENDBRANCH  30  32
ENDBRANCH   4  30
TORSDOF 13
ENDMDL