MODEL 2
REMARK VINA RESULT: -8.189041922      1.476      1.669
REMARK  9 active torsions:
REMARK  status: ('A' for Active; 'I' for Inactive)
REMARK    1  A    between atoms: C2_2  and  N1_3
REMARK    2  A    between atoms: C3_6  and  O1_7
REMARK    3  A    between atoms: O1_7  and  C4_8
REMARK    4  A    between atoms: C4_8  and  C5_9
REMARK    5  A    between atoms: C5_9  and  O2_10
REMARK    6  A    between atoms: C5_9  and  C6_12
REMARK    7  A    between atoms: C7_13  and  O3_14
REMARK    8  A    between atoms: C11_25  and  S1_26
REMARK    9  A    between atoms: S1_26  and  N5_29
ROOT
HETATM    1  C4  UNL     1      17.846  38.615 199.110  1.00  0.00     0.214 C
ENDROOT
BRANCH   1   2
HETATM    2  O1  UNL     1      18.279  37.912 198.060  1.00  0.00    -0.332 OA
BRANCH   2   3
HETATM    3  C3  UNL     1      19.314  38.147 197.219  1.00  0.00     0.160 A
HETATM    4  N2  UNL     1      19.816  39.537 197.422  1.00  0.00    -0.273 N
HETATM    5  N1  UNL     1      20.816  39.833 196.654  1.00  0.00    -0.257 N
ATOM      6  H2  UNL     1      19.414  40.188 198.096  1.00  0.00     0.189 HD
HETATM    7  C11 UNL     1      21.081  38.719 195.879  1.00  0.00     0.174 A
HETATM    8  C10 UNL     1      20.144  37.823 196.304  1.00  0.00     0.103 A
BRANCH   5   9
HETATM    9  C2  UNL     1      21.532  41.062 196.686  1.00  0.00     0.086 C
HETATM   10  C1  UNL     1      20.928  42.355 196.313  1.00  0.00     0.057 C
ENDBRANCH   5   9
BRANCH   7  11
HETATM   11  S1  UNL     1      22.280  38.524 194.668  1.00  0.00     0.276 S
HETATM   12  O6  UNL     1      23.692  38.487 195.243  1.00  0.00    -0.199 OA
HETATM   13  O7  UNL     1      22.243  39.758 193.769  1.00  0.00    -0.199 OA
BRANCH  11  14
HETATM   14  N5  UNL     1      22.060  37.154 193.649  1.00  0.00    -0.319 N
HETATM   15  C12 UNL     1      21.625  37.615 192.315  1.00  0.00     0.159 C
ATOM     16  H5  UNL     1      22.207  36.183 193.922  1.00  0.00     0.171 HD
ENDBRANCH  11  14
ENDBRANCH   7  11
ENDBRANCH   2   3
ENDBRANCH   1   2
BRANCH   1  17
HETATM   17  C5  UNL     1      16.858  39.663 199.268  1.00  0.00     0.185 C
BRANCH  17  18
HETATM   18  O2  UNL     1      16.529  40.295 198.020  1.00  0.00    -0.388 OA
ATOM     19  H2  UNL     1      15.631  40.603 197.997  1.00  0.00     0.210 HD
ENDBRANCH  17  18
BRANCH  17  20
HETATM   20  C6  UNL     1      15.599  39.362 199.973  1.00  0.00     0.091 A
HETATM   21  C7  UNL     1      15.352  39.943 201.199  1.00  0.00     0.158 A
HETATM   22  N3  UNL     1      14.206  39.867 201.833  1.00  0.00    -0.288 N
HETATM   23  C8  UNL     1      13.175  39.197 201.276  1.00  0.00     0.329 A
ATOM     24  H3  UNL     1      14.094  40.314 202.744  1.00  0.00     0.172 HD
HETATM   25  O4  UNL     1      12.063  39.147 201.856  1.00  0.00    -0.247 OA
HETATM   26  N4  UNL     1      13.347  38.595 200.079  1.00  0.00    -0.275 N
HETATM   27  C9  UNL     1      14.554  38.665 199.410  1.00  0.00     0.262 A
ATOM     28  H4  UNL     1      12.572  38.079 199.662  1.00  0.00     0.173 HD
HETATM   29  O5  UNL     1      14.661  38.084 198.302  1.00  0.00    -0.267 OA
BRANCH  21  30
HETATM   30  O3  UNL     1      16.401  40.660 201.807  1.00  0.00    -0.345 OA
ATOM     31  H3  UNL     1      16.409  40.714 202.756  1.00  0.00     0.219 HD
ENDBRANCH  21  30
ENDBRANCH  17  20
ENDBRANCH   1  17
TORSDOF 9
ENDMDL