MODEL 2
REMARK VINA RESULT: -8.543123205      4.550      6.407
REMARK  11 active torsions:
REMARK  status: ('A' for Active; 'I' for Inactive)
REMARK    1  A    between atoms: O1_2  and  C2_3
REMARK    2  A    between atoms: C2_3  and  C3_5
REMARK    3  A    between atoms: C3_5  and  C4_6
REMARK    4  A    between atoms: C3_5  and  C14_31
REMARK    5  A    between atoms: C6_13  and  S1_14
REMARK    6  A    between atoms: S1_14  and  C7_15
REMARK    7  A    between atoms: C9_17  and  O3_18
REMARK    8  A    between atoms: C11_22  and  O4_23
REMARK    9  A    between atoms: N5_28  and  O5_29
REMARK   10  A    between atoms: C14_31  and  O6_32
REMARK   11  A    between atoms: C14_31  and  O7_34
ROOT
HETATM    1  C4  UNL     1      18.547  39.218 197.780  1.00  0.00     0.129 A
HETATM    2  N1  UNL     1      18.364  39.359 199.126  1.00  0.00    -0.329 N
ATOM      3  H1  UNL     1      19.182  39.561 199.699  1.00  0.00     0.168 HD
HETATM    4  C5  UNL     1      17.188  39.252 199.738  1.00  0.00     0.119 A
HETATM    5  N2  UNL     1      17.054  39.393 201.018  1.00  0.00    -0.384 N
ATOM      6  H21 UNL     1      16.152  39.311 201.487  1.00  0.00     0.157 HD
ATOM      7  H22 UNL     1      17.882  39.595 201.578  1.00  0.00     0.157 HD
HETATM    8  C6  UNL     1      16.069  38.979 198.981  1.00  0.00     0.068 A
HETATM    9  C13 UNL     1      16.208  38.828 197.622  1.00  0.00     0.147 A
HETATM   10  N5  UNL     1      17.455  38.954 197.057  1.00  0.00    -0.221 N
ENDROOT
BRANCH   8  11
HETATM   11  S1  UNL     1      14.440  38.820 199.746  1.00  0.00    -0.067 SA
BRANCH  11  12
HETATM   12  C7  UNL     1      13.170  38.223 198.921  1.00  0.00     0.082 A
HETATM   13  C8  UNL     1      13.191  36.894 198.566  1.00  0.00     0.093 A
HETATM   14  C9  UNL     1      12.133  36.313 197.856  1.00  0.00     0.147 A
HETATM   15  N3  UNL     1      11.115  37.137 197.554  1.00  0.00    -0.302 N
HETATM   16  C11 UNL     1      11.061  38.426 197.880  1.00  0.00     0.225 A
ATOM     17  H3  UNL     1      10.327  36.746 197.037  1.00  0.00     0.171 HD
HETATM   18  N4  UNL     1      12.109  38.946 198.568  1.00  0.00    -0.316 N
ATOM     19  H4  UNL     1      12.083  39.933 198.825  1.00  0.00     0.170 HD
BRANCH  14  20
HETATM   20  O3  UNL     1      12.155  34.966 197.497  1.00  0.00    -0.341 OA
HETATM   21  C10 UNL     1      11.564  34.624 196.267  1.00  0.00     0.211 C
ENDBRANCH  14  20
BRANCH  16  22
HETATM   22  O4  UNL     1       9.972  39.182 197.521  1.00  0.00    -0.327 OA
HETATM   23  C12 UNL     1       8.918  39.381 198.419  1.00  0.00     0.213 C
ENDBRANCH  16  22
ENDBRANCH  11  12
ENDBRANCH   8  11
BRANCH  10  24
HETATM   24  O5  UNL     1      17.549  38.795 195.713  1.00  0.00    -0.282 OA
ATOM     25  H5  UNL     1      17.694  39.548 195.152  1.00  0.00     0.245 HD
ENDBRANCH  10  24
BRANCH   1  26
HETATM   26  C3  UNL     1      19.893  39.360 197.249  1.00  0.00     0.210 C
BRANCH  26  27
HETATM   27  C2  UNL     1      20.406  38.333 196.356  1.00  0.00     0.275 C
HETATM   28  O2  UNL     1      20.000  37.121 196.544  1.00  0.00    -0.264 OA
BRANCH  27  29
HETATM   29  O1  UNL     1      21.292  38.471 195.309  1.00  0.00    -0.326 OA
HETATM   30  C1  UNL     1      21.692  37.378 194.507  1.00  0.00     0.213 C
ENDBRANCH  27  29
ENDBRANCH  26  27
BRANCH  26  31
HETATM   31  C14 UNL     1      20.104  40.786 196.760  1.00  0.00     0.275 C
BRANCH  31  32
HETATM   32  O6  UNL     1      19.129  41.621 197.357  1.00  0.00    -0.370 OA
ATOM     33  H6  UNL     1      19.495  42.491 197.462  1.00  0.00     0.212 HD
ENDBRANCH  31  32
BRANCH  31  34
HETATM   34  O7  UNL     1      21.364  41.251 196.999  1.00  0.00    -0.370 OA
ATOM     35  H7  UNL     1      21.401  42.196 197.086  1.00  0.00     0.212 HD
ENDBRANCH  31  34
ENDBRANCH  26  31
ENDBRANCH   1  26
TORSDOF 11
ENDMDL