MODEL 3
REMARK VINA RESULT: -8.233331944      4.070      6.709
REMARK  8 active torsions:
REMARK  status: ('A' for Active; 'I' for Inactive)
REMARK    1  A    between atoms: N1_1  and  C1_4
REMARK    2  A    between atoms: C2_7  and  N3_8
REMARK    3  A    between atoms: C3_11  and  N4_12
REMARK    4  A    between atoms: C4_15  and  C5_16
REMARK    5  A    between atoms: C6_17  and  C7_18
REMARK       I    between atoms: C7_18  and  N5_20
REMARK    6  A    between atoms: N5_20  and  C8_22
REMARK    7  A    between atoms: C8_22  and  C9_23
REMARK    8  A    between atoms: C9_23  and  N6_24
ROOT
HETATM    1  C1  UNL     1      14.480  41.360 200.668  1.00  0.00     0.678 A
HETATM    2  N2  UNL     1      14.001  40.112 200.787  1.00  0.00    -0.168 N
ATOM      3  H2  UNL     1      14.263  39.387 200.118  1.00  0.00     0.186 HD
HETATM    4  C2  UNL     1      13.168  39.837 201.807  1.00  0.00     0.223 A
HETATM    5  C3  UNL     1      12.833  40.837 202.694  1.00  0.00     0.180 A
HETATM    6  C4  UNL     1      13.330  42.142 202.576  1.00  0.00     0.086 A
HETATM    7  N8  UNL     1      14.150  42.347 201.542  1.00  0.00    -0.190 N
ATOM      8  H8  UNL     1      14.544  43.278 201.403  1.00  0.00     0.184 HD
ENDROOT
BRANCH   6   9
HETATM    9  C5  UNL     1      12.935  43.150 203.547  1.00  0.00     0.038 C
HETATM   10  C6  UNL     1      13.325  44.391 203.455  1.00  0.00     0.076 C
BRANCH  10  11
HETATM   11  C7  UNL     1      12.900  45.360 204.456  1.00  0.00     0.241 C
HETATM   12  O5  UNL     1      13.736  45.978 205.178  1.00  0.00    -0.269 OA
HETATM   13  N5  UNL     1      11.532  45.640 204.647  1.00  0.00    -0.356 N
ATOM     14  H5  UNL     1      10.835  45.159 204.080  1.00  0.00     0.162 HD
BRANCH  13  15
HETATM   15  C8  UNL     1      11.113  46.592 205.631  1.00  0.00     0.143 C
BRANCH  15  16
HETATM   16  C9  UNL     1       9.733  47.151 205.327  1.00  0.00     0.153 C
BRANCH  16  17
HETATM   17  N6  UNL     1       8.724  46.615 206.216  1.00  0.00    -0.308 N
HETATM   18  C10 UNL     1       9.072  45.706 207.152  1.00  0.00     0.101 A
HETATM   19  C11 UNL     1       8.117  45.183 208.013  1.00  0.00     0.092 A
HETATM   20  C12 UNL     1       6.802  45.586 207.922  1.00  0.00     0.250 A
HETATM   21  O6  UNL     1       5.908  45.125 208.697  1.00  0.00    -0.268 OA
HETATM   22  N7  UNL     1       6.506  46.491 206.977  1.00  0.00    -0.275 N
HETATM   23  C13 UNL     1       7.424  47.005 206.138  1.00  0.00     0.329 A
ATOM     24  H7  UNL     1       5.540  46.805 206.891  1.00  0.00     0.173 HD
HETATM   25  O7  UNL     1       7.104  47.851 205.266  1.00  0.00    -0.246 OA
ENDBRANCH  16  17
ENDBRANCH  15  16
ENDBRANCH  13  15
ENDBRANCH  10  11
ENDBRANCH   6   9
BRANCH   5  26
HETATM   26  N4  UNL     1      11.956  40.583 203.788  1.00  0.00    -0.109 N
HETATM   27  O3  UNL     1      12.367  40.039 204.831  1.00  0.00    -0.532 OA
HETATM   28  O4  UNL     1      10.631  40.934 203.737  1.00  0.00    -0.532 OA
ENDBRANCH   5  26
BRANCH   4  29
HETATM   29  N3  UNL     1      12.615  38.541 202.005  1.00  0.00    -0.095 N
HETATM   30  O1  UNL     1      11.509  38.295 201.489  1.00  0.00    -0.530 OA
HETATM   31  O2  UNL     1      13.239  37.561 202.725  1.00  0.00    -0.530 OA
ENDBRANCH   4  29
BRANCH   1  32
HETATM   32  N1  UNL     1      15.276  41.663 199.709  1.00  0.00    -0.234 N
ATOM     33  H12 UNL     1      16.146  41.135 199.636  1.00  0.00     0.174 HD
ATOM     34  H11 UNL     1      15.037  42.406 199.053  1.00  0.00     0.174 HD
ENDBRANCH   1  32
TORSDOF 8
ENDMDL