MODEL 3
REMARK VINA RESULT: -7.478883524      1.025      2.001
REMARK  12 active torsions:
REMARK  status: ('A' for Active; 'I' for Inactive)
REMARK    1  A    between atoms: C3_3  and  O1_5
REMARK    2  A    between atoms: C6_9  and  C7_10
REMARK    3  A    between atoms: C7_10  and  O4_12
REMARK    4  A    between atoms: C9_14  and  O5_15
REMARK    5  A    between atoms: C9_14  and  C10_17
REMARK    6  A    between atoms: C10_17  and  O6_18
REMARK    7  A    between atoms: C10_17  and  C11_20
REMARK    8  A    between atoms: C11_20  and  O7_21
REMARK    9  A    between atoms: C11_20  and  N1_23
REMARK   10  A    between atoms: N1_23  and  S1_25
REMARK   11  A    between atoms: S1_25  and  O9_27
REMARK   12  A    between atoms: S1_25  and  O10_29
ROOT
HETATM    1  C1  UNL     1      15.843  39.337 202.939  1.00  0.00     0.023 C
HETATM    2  C2  UNL     1      14.894  39.634 202.135  1.00  0.00     0.013 C
HETATM    3  C3  UNL     1      13.651  40.338 202.630  1.00  0.00     0.190 C
HETATM    4  C4  UNL     1      13.727  41.818 202.498  1.00  0.00     0.085 C
HETATM    5  O2  UNL     1      12.545  39.811 201.829  1.00  0.00    -0.322 OA
HETATM    6  C5  UNL     1      12.705  38.556 201.232  1.00  0.00     0.155 C
HETATM    7  C6  UNL     1      13.869  38.199 200.628  1.00  0.00     0.080 C
HETATM    8  C9  UNL     1      14.867  39.292 200.702  1.00  0.00     0.150 C
ENDROOT
BRANCH   8   9
HETATM    9  O5  UNL     1      14.164  40.365 200.022  1.00  0.00    -0.377 OA
ATOM     10  H5  UNL     1      14.469  40.370 199.122  1.00  0.00     0.211 HD
ENDBRANCH   8   9
BRANCH   8  11
HETATM   11  C10 UNL     1      16.135  39.165 200.003  1.00  0.00     0.211 C
BRANCH  11  12
HETATM   12  O6  UNL     1      16.626  37.836 199.957  1.00  0.00    -0.387 OA
ATOM     13  H6  UNL     1      17.350  37.678 200.552  1.00  0.00     0.210 HD
ENDBRANCH  11  12
BRANCH  11  14
HETATM   14  C11 UNL     1      16.066  39.531 198.523  1.00  0.00     0.261 C
BRANCH  14  15
HETATM   15  O7  UNL     1      16.167  40.865 198.232  1.00  0.00    -0.373 OA
ATOM     16  H7  UNL     1      17.050  41.206 198.149  1.00  0.00     0.212 HD
ENDBRANCH  14  15
BRANCH  14  17
HETATM   17  N1  UNL     1      17.039  38.803 197.787  1.00  0.00    -0.279 N
ATOM     18  H1  UNL     1      16.769  37.999 197.221  1.00  0.00     0.176 HD
BRANCH  17  19
HETATM   19  S1  UNL     1      18.804  39.347 197.877  1.00  0.00     0.274 S
HETATM   20  O8  UNL     1      19.795  38.283 199.236  1.00  0.00    -0.191 OA
BRANCH  19  21
HETATM   21  O9  UNL     1      19.706  40.138 196.696  1.00  0.00    -0.276 OA
HETATM   22  C12 UNL     1      20.162  41.425 196.804  1.00  0.00     0.226 C
ENDBRANCH  19  21
BRANCH  19  23
HETATM   23  O10 UNL     1      19.228  37.753 196.955  1.00  0.00    -0.276 OA
HETATM   24  C13 UNL     1      20.268  37.920 196.079  1.00  0.00     0.226 C
ENDBRANCH  19  23
ENDBRANCH  17  19
ENDBRANCH  14  17
ENDBRANCH  11  14
ENDBRANCH   8  11
BRANCH   7  25
HETATM   25  C7  UNL     1      13.922  36.909 200.062  1.00  0.00     0.294 C
HETATM   26  O3  UNL     1      14.630  35.941 200.439  1.00  0.00    -0.259 OA
BRANCH  25  27
HETATM   27  O4  UNL     1      13.116  36.588 198.935  1.00  0.00    -0.323 OA
HETATM   28  C8  UNL     1      13.074  37.397 197.798  1.00  0.00     0.213 C
ENDBRANCH  25  27
ENDBRANCH   7  25
BRANCH   3  29
HETATM   29  O1  UNL     1      13.339  40.008 203.939  1.00  0.00    -0.362 OA
ATOM     30  H1  UNL     1      12.995  40.746 204.428  1.00  0.00     0.213 HD
ENDBRANCH   3  29
TORSDOF 12
ENDMDL