MODEL 1
REMARK VINA RESULT: -10.660951622      0.000      0.000
REMARK  7 active torsions:
REMARK  status: ('A' for Active; 'I' for Inactive)
REMARK    1  A    between atoms: O1_2  and  C2_3
REMARK       I    between atoms: C2_3  and  N1_5
REMARK       I    between atoms: N2_8  and  C5_9
REMARK    2  A    between atoms: C5_9  and  C6_11
REMARK    3  A    between atoms: C6_11  and  C7_12
REMARK    4  A    between atoms: C7_12  and  N3_13
REMARK       I    between atoms: N3_13  and  C8_15
REMARK    5  A    between atoms: C8_15  and  C9_17
REMARK    6  A    between atoms: C11_19  and  N4_20
REMARK       I    between atoms: N4_20  and  C12_22
REMARK       I    between atoms: C12_22  and  N5_24
REMARK    7  A    between atoms: N5_24  and  C13_26
ROOT
HETATM    1  C9  UNL     1      15.142 -14.388  15.095  1.00  0.00     0.084 C
HETATM    2  C10 UNL     1      14.485 -15.580  15.680  1.00  0.00     0.045 C
HETATM    3  C11 UNL     1      13.136 -15.882  15.033  1.00  0.00     0.036 C
HETATM    4  C19 UNL     1      13.384 -16.918  13.987  1.00  0.00     0.035 C
HETATM    5  C20 UNL     1      13.949 -16.317  12.724  1.00  0.00    -0.012 C
HETATM    6  C21 UNL     1      12.926 -15.370  12.172  1.00  0.00     0.009 C
HETATM    7  C22 UNL     1      12.834 -14.222  13.145  1.00  0.00    -0.012 C
HETATM    8  C23 UNL     1      14.140 -13.465  13.080  1.00  0.00     0.010 C
HETATM    9  C24 UNL     1      15.230 -14.349  13.606  1.00  0.00    -0.001 C
HETATM   10  C25 UNL     1      15.282 -15.703  12.955  1.00  0.00     0.010 C
HETATM   11  C26 UNL     1      12.480 -14.643  14.536  1.00  0.00     0.035 C
ENDROOT
BRANCH   1  12
HETATM   12  C8  UNL     1      16.559 -14.287  15.612  1.00  0.00     0.222 C
HETATM   13  N3  UNL     1      17.483 -15.229  15.109  1.00  0.00    -0.360 N
ATOM     14  H3  UNL     1      17.134 -15.910  14.435  1.00  0.00     0.162 HD
HETATM   15  O4  UNL     1      16.888 -13.429  16.428  1.00  0.00    -0.273 OA
BRANCH  13  16
HETATM   16  C7  UNL     1      18.880 -15.312  15.466  1.00  0.00     0.132 C
BRANCH  16  17
HETATM   17  C6  UNL     1      19.621 -16.090  14.433  1.00  0.00     0.122 C
BRANCH  17  18
HETATM   18  C5  UNL     1      19.578 -17.523  14.757  1.00  0.00     0.221 C
HETATM   19  N2  UNL     1      20.053 -18.507  13.852  1.00  0.00    -0.349 N
HETATM   20  C4  UNL     1      20.602 -18.066  12.561  1.00  0.00     0.145 C
HETATM   21  C27 UNL     1      20.027 -19.914  14.137  1.00  0.00     0.145 C
HETATM   22  C3  UNL     1      22.046 -18.578  12.565  1.00  0.00     0.148 C
HETATM   23  N1  UNL     1      21.969 -20.006  12.692  1.00  0.00    -0.325 N
HETATM   24  C2  UNL     1      22.501 -20.828  11.679  1.00  0.00     0.362 C
HETATM   25  C28 UNL     1      21.351 -20.591  13.846  1.00  0.00     0.148 C
HETATM   26  O2  UNL     1      22.444 -22.083  11.771  1.00  0.00    -0.238 OA
HETATM   27  O3  UNL     1      19.112 -17.915  15.853  1.00  0.00    -0.273 OA
BRANCH  24  28
HETATM   28  O1  UNL     1      23.104 -20.300  10.545  1.00  0.00    -0.309 OA
HETATM   29  C1  UNL     1      22.363 -19.920   9.418  1.00  0.00     0.215 C
ENDBRANCH  24  28
ENDBRANCH  17  18
ENDBRANCH  16  17
ENDBRANCH  13  16
ENDBRANCH   1  12
BRANCH   3  30
HETATM   30  N4  UNL     1      12.329 -16.457  16.079  1.00  0.00    -0.334 N
HETATM   31  C12 UNL     1      10.895 -16.607  16.040  1.00  0.00     0.321 C
HETATM   32  O5  UNL     1      10.281 -16.224  15.041  1.00  0.00    -0.247 OA
HETATM   33  N5  UNL     1      10.222 -17.185  17.138  1.00  0.00    -0.307 N
ATOM     34  H5  UNL     1      10.815 -17.469  17.918  1.00  0.00     0.170 HD
ATOM     35  H4  UNL     1      12.812 -16.786  16.916  1.00  0.00     0.165 HD
BRANCH  33  36
HETATM   36  C13 UNL     1       8.845 -17.425  17.305  1.00  0.00     0.058 A
HETATM   37  C14 UNL     1       7.975 -17.745  16.276  1.00  0.00     0.033 A
HETATM   38  C15 UNL     1       6.616 -17.969  16.540  1.00  0.00     0.026 A
HETATM   39  C16 UNL     1       6.131 -17.877  17.821  1.00  0.00     0.035 A
HETATM   40 CL1  UNL     1       4.425 -18.166  18.120  1.00  0.00    -0.084 Cl
HETATM   41  C17 UNL     1       6.986 -17.561  18.850  1.00  0.00     0.050 A
HETATM   42  C18 UNL     1       8.318 -17.339  18.599  1.00  0.00     0.062 A
HETATM   43 CL2  UNL     1       9.405 -16.932  19.929  1.00  0.00    -0.082 Cl
ENDBRANCH  33  36
ENDBRANCH   3  30
TORSDOF 7
ENDMDL