MODEL 4
REMARK VINA RESULT: -9.175887907      2.357      3.085
REMARK  7 active torsions:
REMARK  status: ('A' for Active; 'I' for Inactive)
REMARK    1  A    between atoms: C4_4  and  S1_5
REMARK    2  A    between atoms: S1_5  and  N1_8
REMARK       I    between atoms: N1_8  and  C6_10
REMARK       I    between atoms: C6_10  and  N2_12
REMARK    3  A    between atoms: N2_12  and  C7_14
REMARK    4  A    between atoms: C20_27  and  C21_28
REMARK       I    between atoms: C21_28  and  N3_30
REMARK    5  A    between atoms: N3_30  and  C22_32
REMARK    6  A    between atoms: C22_32  and  C24_34
REMARK    7  A    between atoms: C24_34  and  N4_35
ROOT
HETATM    1  C1  UNL     1      10.230 -14.089  13.155  1.00  0.00     0.050 C
HETATM    2  C2  UNL     1      11.268 -15.000  13.661  1.00  0.00    -0.033 A
HETATM    3  C3  UNL     1      12.342 -15.314  12.875  1.00  0.00     0.030 A
HETATM    4  C4  UNL     1      13.356 -16.152  13.275  1.00  0.00     0.040 A
HETATM    5  C17 UNL     1      13.246 -16.687  14.557  1.00  0.00     0.035 A
HETATM    6  C18 UNL     1      12.168 -16.384  15.368  1.00  0.00    -0.005 A
HETATM    7  C19 UNL     1      11.851 -16.809  16.640  1.00  0.00     0.049 A
HETATM    8  C20 UNL     1      10.643 -16.204  16.959  1.00  0.00     0.102 A
HETATM    9  N5  UNL     1      10.264 -15.453  15.922  1.00  0.00    -0.351 N
ATOM     10  H5  UNL     1       9.410 -14.897  15.890  1.00  0.00     0.166 HD
HETATM   11  C30 UNL     1      11.168 -15.533  14.920  1.00  0.00     0.049 A
ENDROOT
BRANCH   4  12
HETATM   12  S1  UNL     1      14.714 -16.617  12.271  1.00  0.00     0.056 S
HETATM   13  C5  UNL     1      14.134 -17.171  10.671  1.00  0.00     0.142 C
HETATM   14  O1  UNL     1      15.571 -15.388  12.078  1.00  0.00    -0.245 OA
BRANCH  12  15
HETATM   15  N1  UNL     1      15.524 -17.676  13.037  1.00  0.00    -0.265 N
HETATM   16  C6  UNL     1      16.761 -17.371  13.647  1.00  0.00     0.328 C
HETATM   17  O2  UNL     1      17.558 -18.389  13.713  1.00  0.00    -0.246 OA
HETATM   18  N2  UNL     1      17.216 -16.173  14.160  1.00  0.00    -0.333 N
ATOM     19  H2  UNL     1      16.574 -15.383  14.110  1.00  0.00     0.165 HD
ATOM     20  H1  UNL     1      15.158 -18.626  13.107  1.00  0.00     0.180 HD
BRANCH  18  21
HETATM   21  C7  UNL     1      18.502 -15.919  14.760  1.00  0.00     0.035 C
HETATM   22  C8  UNL     1      19.423 -15.521  13.614  1.00  0.00     0.035 C
HETATM   23  C9  UNL     1      20.834 -15.287  14.073  1.00  0.00    -0.012 C
HETATM   24  C10 UNL     1      21.297 -16.528  14.804  1.00  0.00     0.009 C
HETATM   25  C14 UNL     1      20.797 -14.064  14.968  1.00  0.00     0.009 C
HETATM   26  C11 UNL     1      20.448 -16.770  16.022  1.00  0.00    -0.012 C
HETATM   27  C12 UNL     1      20.453 -15.528  16.877  1.00  0.00     0.009 C
HETATM   28  C16 UNL     1      19.026 -17.073  15.539  1.00  0.00     0.035 C
HETATM   29  C13 UNL     1      19.871 -14.385  16.109  1.00  0.00    -0.012 C
HETATM   30  C15 UNL     1      18.466 -14.710  15.692  1.00  0.00     0.035 C
ENDBRANCH  18  21
ENDBRANCH  12  15
ENDBRANCH   4  12
BRANCH   8  31
HETATM   31  C21 UNL     1       9.922 -16.421  18.209  1.00  0.00     0.268 C
HETATM   32  O3  UNL     1      10.328 -15.876  19.282  1.00  0.00    -0.266 OA
HETATM   33  N3  UNL     1       8.775 -17.233  18.238  1.00  0.00    -0.347 N
ATOM     34  H3  UNL     1       8.420 -17.670  17.388  1.00  0.00     0.163 HD
BRANCH  33  35
HETATM   35  C22 UNL     1       8.098 -17.435  19.535  1.00  0.00     0.119 C
HETATM   36  C23 UNL     1       8.529 -18.798  19.982  1.00  0.00     0.038 C
BRANCH  35  37
HETATM   37  C24 UNL     1       6.625 -17.344  19.329  1.00  0.00     0.082 C
BRANCH  37  38
HETATM   38  N4  UNL     1       6.134 -17.673  18.059  1.00  0.00    -0.391 N
HETATM   39  C25 UNL     1       6.888 -18.443  17.156  1.00  0.00     0.128 C
HETATM   40  C26 UNL     1       6.503 -18.142  15.698  1.00  0.00     0.099 C
HETATM   41  C27 UNL     1       5.015 -18.045  15.523  1.00  0.00     0.246 C
HETATM   42  F1  UNL     1       4.591 -16.743  15.337  1.00  0.00    -0.206 F
HETATM   43  F2  UNL     1       4.586 -18.810  14.443  1.00  0.00    -0.206 F
HETATM   44  C28 UNL     1       4.287 -18.615  16.736  1.00  0.00     0.099 C
HETATM   45  C29 UNL     1       4.713 -17.965  18.029  1.00  0.00     0.128 C
ENDBRANCH  37  38
ENDBRANCH  35  37
ENDBRANCH  33  35
ENDBRANCH   8  31
TORSDOF 7
ENDMDL