MODEL 4
REMARK VINA RESULT: -8.299597437      3.970     10.680
REMARK  7 active torsions:
REMARK  status: ('A' for Active; 'I' for Inactive)
REMARK    1  A    between atoms: O1_2  and  C2_3
REMARK    2  A    between atoms: C7_10  and  C8_11
REMARK    3  A    between atoms: C8_11  and  N1_12
REMARK    4  A    between atoms: N1_12  and  C9_14
REMARK       I    between atoms: N2_17  and  C12_18
REMARK       I    between atoms: C12_18  and  N3_20
REMARK    5  A    between atoms: N3_20  and  C13_22
REMARK    6  A    between atoms: C18_27  and  C19_28
REMARK       I    between atoms: C19_28  and  N4_30
REMARK    7  A    between atoms: N4_30  and  C20_32
ROOT
HETATM    1  C9  UNL     1      16.998 -15.652  11.635  1.00  0.00     0.087 C
HETATM    2  C10 UNL     1      16.398 -17.045  11.597  1.00  0.00     0.045 C
HETATM    3  C11 UNL     1      14.941 -16.868  11.686  1.00  0.00     0.135 C
HETATM    4  N2  UNL     1      14.536 -16.106  12.857  1.00  0.00    -0.314 N
HETATM    5  C12 UNL     1      13.494 -16.789  13.629  1.00  0.00     0.322 C
HETATM    6  O2  UNL     1      13.686 -17.998  13.763  1.00  0.00    -0.247 OA
HETATM    7  N3  UNL     1      12.455 -15.958  14.048  1.00  0.00    -0.337 N
ATOM      8  H3  UNL     1      12.510 -14.960  13.845  1.00  0.00     0.164 HD
HETATM    9  C24 UNL     1      15.181 -14.923  13.250  1.00  0.00     0.070 C
HETATM   10  C25 UNL     1      16.641 -14.949  12.959  1.00  0.00     0.070 C
ENDROOT
BRANCH   7  11
HETATM   11  C13 UNL     1      11.296 -16.467  14.764  1.00  0.00     0.099 C
HETATM   12  C14 UNL     1      10.055 -15.590  14.322  1.00  0.00     0.026 C
HETATM   13  C15 UNL     1      10.311 -14.175  14.552  1.00  0.00     0.002 C
HETATM   14  C16 UNL     1      11.252 -13.790  15.632  1.00  0.00     0.001 C
HETATM   15  C17 UNL     1      11.954 -14.837  16.386  1.00  0.00     0.016 C
HETATM   16  C18 UNL     1      11.420 -16.256  16.213  1.00  0.00     0.100 C
BRANCH  16  17
HETATM   17  C19 UNL     1      10.061 -16.383  16.801  1.00  0.00     0.224 C
HETATM   18  O3  UNL     1       9.636 -15.593  17.637  1.00  0.00    -0.273 OA
HETATM   19  N4  UNL     1       9.241 -17.447  16.376  1.00  0.00    -0.353 N
ATOM     20  H4  UNL     1       9.642 -18.076  15.680  1.00  0.00     0.163 HD
BRANCH  19  21
HETATM   21  C20 UNL     1       7.932 -17.740  16.800  1.00  0.00     0.022 C
HETATM   22  C21 UNL     1       7.657 -17.609  18.270  1.00  0.00     0.037 C
HETATM   23  C22 UNL     1       7.557 -19.208  16.372  1.00  0.00     0.037 C
HETATM   24  C23 UNL     1       6.955 -16.874  16.060  1.00  0.00     0.037 C
ENDBRANCH  19  21
ENDBRANCH  16  17
ENDBRANCH   7  11
BRANCH   1  25
HETATM   25  N1  UNL     1      18.350 -15.615  11.531  1.00  0.00    -0.393 N
ATOM     26  H1  UNL     1      18.795 -14.763  11.873  1.00  0.00     0.159 HD
BRANCH  25  27
HETATM   27  C8  UNL     1      19.211 -16.576  11.024  1.00  0.00     0.097 C
BRANCH  27  28
HETATM   28  C7  UNL     1      19.746 -17.361  12.139  1.00  0.00     0.015 A
HETATM   29  C2  UNL     1      20.524 -18.474  11.888  1.00  0.00     0.097 A
HETATM   30  C3  UNL     1      21.214 -19.040  12.902  1.00  0.00     0.046 A
HETATM   31 BR1  UNL     1      22.229 -20.632  12.504  1.00  0.00    -0.048 Br
HETATM   32  C4  UNL     1      21.169 -18.556  14.176  1.00  0.00     0.041 A
HETATM   33  C5  UNL     1      20.417 -17.468  14.492  1.00  0.00     0.013 A
HETATM   34 BR2  UNL     1      20.338 -16.702  16.194  1.00  0.00    -0.051 Br
HETATM   35  C6  UNL     1      19.696 -16.868  13.465  1.00  0.00     0.034 A
BRANCH  29  36
HETATM   36  O1  UNL     1      20.593 -19.002  10.625  1.00  0.00    -0.354 OA
HETATM   37  C1  UNL     1      21.407 -18.793   9.584  1.00  0.00     0.210 C
ENDBRANCH  29  36
ENDBRANCH  27  28
ENDBRANCH  25  27
ENDBRANCH   1  25
TORSDOF 7
ENDMDL