MODEL 1
REMARK VINA RESULT: -9.098678844      0.000      0.000
REMARK  7 active torsions:
REMARK  status: ('A' for Active; 'I' for Inactive)
REMARK    1  A    between atoms: C4_4  and  C5_6
REMARK       I    between atoms: C5_6  and  N1_8
REMARK    2  A    between atoms: N1_8  and  C6_10
REMARK    3  A    between atoms: C12_17  and  C13_18
REMARK       I    between atoms: C13_18  and  N2_20
REMARK    4  A    between atoms: N2_20  and  C14_22
REMARK    5  A    between atoms: C14_22  and  C16_24
REMARK       I    between atoms: C16_24  and  N3_26
REMARK    6  A    between atoms: C22_32  and  N4_33
REMARK    7  A    between atoms: N4_33  and  S1_35
ROOT
HETATM    1  C13 UNL     1      12.288 -16.351  16.945  1.00  0.00     0.254 C
HETATM    2  O2  UNL     1      13.145 -17.105  16.461  1.00  0.00    -0.268 OA
HETATM    3  N2  UNL     1      12.650 -15.023  17.237  1.00  0.00    -0.344 N
ATOM      4  H2  UNL     1      11.965 -14.392  17.651  1.00  0.00     0.163 HD
ENDROOT
BRANCH   3   5
HETATM    5  C14 UNL     1      13.999 -14.541  16.951  1.00  0.00     0.173 C
HETATM    6  C15 UNL     1      14.057 -13.152  17.613  1.00  0.00     0.042 C
BRANCH   5   7
HETATM    7  C16 UNL     1      14.268 -14.414  15.521  1.00  0.00     0.242 C
HETATM    8  O3  UNL     1      13.298 -13.995  14.787  1.00  0.00    -0.271 OA
HETATM    9  N3  UNL     1      15.476 -14.691  14.844  1.00  0.00    -0.350 N
HETATM   10  C17 UNL     1      15.472 -14.318  13.446  1.00  0.00     0.130 C
HETATM   11  C27 UNL     1      16.513 -15.303  15.606  1.00  0.00     0.130 C
HETATM   12  C18 UNL     1      15.469 -15.474  12.487  1.00  0.00     0.059 C
HETATM   13  C19 UNL     1      16.827 -16.069  12.538  1.00  0.00    -0.050 A
HETATM   14  C20 UNL     1      17.410 -16.093  11.298  1.00  0.00     0.010 A
HETATM   15  C25 UNL     1      17.460 -16.558  13.656  1.00  0.00    -0.048 A
HETATM   16  C21 UNL     1      18.690 -16.631  11.145  1.00  0.00     0.030 A
HETATM   17  C22 UNL     1      19.349 -17.129  12.240  1.00  0.00     0.042 A
HETATM   18  C24 UNL     1      18.719 -17.084  13.489  1.00  0.00     0.037 A
HETATM   19  C26 UNL     1      17.018 -16.615  15.038  1.00  0.00     0.059 C
BRANCH  17  20
HETATM   20  N4  UNL     1      20.654 -17.712  12.165  1.00  0.00    -0.285 N
ATOM     21  H4  UNL     1      21.460 -17.086  12.187  1.00  0.00     0.178 HD
BRANCH  20  22
HETATM   22  S1  UNL     1      20.948 -19.398  12.040  1.00  0.00     0.227 S
HETATM   23  C23 UNL     1      22.594 -19.857  12.513  1.00  0.00     0.186 C
HETATM   24  O4  UNL     1      20.680 -19.803  10.602  1.00  0.00    -0.206 OA
HETATM   25  O5  UNL     1      19.964 -20.161  12.924  1.00  0.00    -0.206 OA
ENDBRANCH  20  22
ENDBRANCH  17  20
ENDBRANCH   5   7
ENDBRANCH   3   5
BRANCH   1  26
HETATM   26  C12 UNL     1      10.942 -16.813  17.222  1.00  0.00     0.060 A
HETATM   27  C6  UNL     1       9.942 -16.750  16.243  1.00  0.00     0.057 A
HETATM   28  C7  UNL     1       8.636 -17.105  16.459  1.00  0.00    -0.033 A
HETATM   29  C8  UNL     1       7.633 -16.997  15.365  1.00  0.00     0.050 C
HETATM   30  C9  UNL     1       8.305 -17.548  17.728  1.00  0.00     0.033 A
HETATM   31  C10 UNL     1       9.247 -17.631  18.726  1.00  0.00     0.035 A
HETATM   32 CL2  UNL     1       8.797 -18.195  20.332  1.00  0.00    -0.084 Cl
HETATM   33  C11 UNL     1      10.554 -17.268  18.478  1.00  0.00     0.043 A
BRANCH  27  34
HETATM   34  N1  UNL     1      10.293 -16.359  14.897  1.00  0.00    -0.321 N
HETATM   35  C5  UNL     1      10.263 -14.998  14.577  1.00  0.00     0.268 C
HETATM   36  O1  UNL     1       9.900 -14.228  15.551  1.00  0.00    -0.266 OA
ATOM     37  H1  UNL     1      10.555 -17.056  14.200  1.00  0.00     0.169 HD
BRANCH  35  38
HETATM   38  C4  UNL     1      10.560 -14.313  13.353  1.00  0.00     0.103 C
HETATM   39  C2  UNL     1      10.064 -13.218  12.864  1.00  0.00    -0.060 C
HETATM   40  C1  UNL     1      10.596 -12.686  11.560  1.00  0.00     0.045 C
HETATM   41  C3  UNL     1       8.988 -12.443  13.483  1.00  0.00     0.045 C
HETATM   42 CL1  UNL     1      11.862 -15.028  12.312  1.00  0.00    -0.078 Cl
ENDBRANCH  35  38
ENDBRANCH  27  34
ENDBRANCH   1  26
TORSDOF 7
ENDMDL