MODEL 1
REMARK VINA RESULT: -8.410912852      0.000      0.000
REMARK  9 active torsions:
REMARK  status: ('A' for Active; 'I' for Inactive)
REMARK    1  A    between atoms: C2_2  and  C3_3
REMARK    2  A    between atoms: C3_3  and  O1_4
REMARK    3  A    between atoms: C3_3  and  C4_6
REMARK    4  A    between atoms: C3_3  and  C6_8
REMARK       I    between atoms: N1_10  and  C8_11
REMARK    5  A    between atoms: C8_11  and  C9_13
REMARK    6  A    between atoms: C9_13  and  C10_14
REMARK    7  A    between atoms: C9_13  and  N2_23
REMARK    8  A    between atoms: C10_14  and  C11_15
REMARK       I    between atoms: N3_33  and  C24_34
REMARK       I    between atoms: C24_34  and  N4_36
REMARK    9  A    between atoms: N4_36  and  C25_38
ROOT
HETATM    1  C6  UNL     1      12.071 -14.395  13.580  1.00  0.00     0.048 C
HETATM    2  C7  UNL     1      12.563 -15.639  12.786  1.00  0.00     0.134 C
HETATM    3  N1  UNL     1      13.965 -15.924  13.144  1.00  0.00    -0.350 N
HETATM    4  C8  UNL     1      14.792 -16.499  12.193  1.00  0.00     0.251 C
HETATM    5  O2  UNL     1      14.325 -16.783  11.045  1.00  0.00    -0.271 OA
HETATM    6  C18 UNL     1      14.286 -15.562  14.506  1.00  0.00     0.126 C
HETATM    7  C19 UNL     1      12.991 -15.795  15.279  1.00  0.00     0.031 C
HETATM    8  C20 UNL     1      11.997 -14.644  15.002  1.00  0.00    -0.015 C
HETATM    9  C21 UNL     1      12.512 -13.429  15.781  1.00  0.00     0.013 C
HETATM   10  C22 UNL     1      12.985 -13.761  17.149  1.00  0.00     0.021 C
HETATM   11  C23 UNL     1      11.855 -14.354  17.916  1.00  0.00     0.127 C
HETATM   12  N3  UNL     1      10.908 -15.107  17.167  1.00  0.00    -0.333 N
HETATM   13  C24 UNL     1      10.038 -15.976  17.878  1.00  0.00     0.318 C
HETATM   14  O3  UNL     1      10.158 -16.038  19.126  1.00  0.00    -0.247 OA
HETATM   15  N4  UNL     1       9.037 -16.782  17.274  1.00  0.00    -0.335 N
ATOM     16  H4  UNL     1       8.909 -16.756  16.262  1.00  0.00     0.165 HD
HETATM   17  C29 UNL     1      10.764 -15.043  15.701  1.00  0.00     0.137 C
ENDROOT
BRANCH   4  18
HETATM   18  C9  UNL     1      16.211 -16.807  12.443  1.00  0.00     0.280 C
BRANCH  18  19
HETATM   19  C10 UNL     1      16.947 -15.570  12.955  1.00  0.00     0.081 C
BRANCH  19  20
HETATM   20  C11 UNL     1      17.955 -16.086  13.928  1.00  0.00    -0.051 A
HETATM   21  C12 UNL     1      18.151 -17.424  14.162  1.00  0.00     0.049 A
HETATM   22  C13 UNL     1      19.089 -17.861  15.068  1.00  0.00     0.118 A
HETATM   23  F1  UNL     1      19.270 -19.177  15.287  1.00  0.00    -0.206 F
HETATM   24  C14 UNL     1      19.853 -16.938  15.761  1.00  0.00     0.061 A
HETATM   25  C15 UNL     1      19.666 -15.603  15.534  1.00  0.00     0.014 A
HETATM   26 BR1  UNL     1      20.698 -14.308  16.468  1.00  0.00    -0.051 Br
HETATM   27  C16 UNL     1      18.712 -15.176  14.613  1.00  0.00     0.026 A
ENDBRANCH  19  20
ENDBRANCH  18  19
BRANCH  18  28
HETATM   28  N2  UNL     1      16.873 -17.229  11.194  1.00  0.00    -0.066 N
HETATM   29  C17 UNL     1      17.869 -16.258  10.802  1.00  0.00     0.267 C
ATOM     30  H22 UNL     1      17.266 -18.168  11.270  1.00  0.00     0.277 HD
ATOM     31  H21 UNL     1      16.201 -17.407  10.449  1.00  0.00     0.277 HD
ENDBRANCH  18  28
ENDBRANCH   4  18
BRANCH   1  32
HETATM   32  C3  UNL     1      11.060 -13.802  12.716  1.00  0.00     0.063 C
BRANCH  32  33
HETATM   33  C2  UNL     1      10.438 -12.509  13.115  1.00  0.00     0.034 C
HETATM   34  C1  UNL     1       9.786 -11.799  11.914  1.00  0.00     0.008 C
ENDBRANCH  32  33
BRANCH  32  35
HETATM   35  O1  UNL     1      11.785 -13.429  11.522  1.00  0.00    -0.389 OA
ATOM     36  H1  UNL     1      11.588 -14.152  10.939  1.00  0.00     0.210 HD
ENDBRANCH  32  35
BRANCH  32  37
HETATM   37  C4  UNL     1      10.061 -14.734  12.085  1.00  0.00     0.034 C
HETATM   38  C5  UNL     1       8.807 -15.008  12.813  1.00  0.00     0.008 C
ENDBRANCH  32  37
ENDBRANCH   1  32
BRANCH  15  39
HETATM   39  C25 UNL     1       8.195 -17.640  18.082  1.00  0.00     0.023 C
HETATM   40  C26 UNL     1       7.239 -16.836  18.920  1.00  0.00     0.037 C
HETATM   41  C27 UNL     1       7.379 -18.561  17.200  1.00  0.00     0.037 C
HETATM   42  C28 UNL     1       9.012 -18.514  19.008  1.00  0.00     0.037 C
ENDBRANCH  15  39
TORSDOF 9
ENDMDL