MODEL 2
REMARK VINA RESULT: -9.040958300      1.638      2.176
REMARK  8 active torsions:
REMARK  status: ('A' for Active; 'I' for Inactive)
REMARK    1  A    between atoms: C5_5  and  S1_6
REMARK    2  A    between atoms: S1_6  and  N1_9
REMARK       I    between atoms: N1_9  and  C6_11
REMARK    3  A    between atoms: C6_11  and  C7_13
REMARK    4  A    between atoms: C7_13  and  C8_14
REMARK    5  A    between atoms: C8_14  and  C9_15
REMARK    6  A    between atoms: N3_19  and  C11_20
REMARK    7  A    between atoms: C12_21  and  C13_22
REMARK    8  A    between atoms: C17_29  and  C18_30
ROOT
HETATM    1  C9  UNL     1      13.961 -15.196  12.636  1.00  0.00     0.056 A
HETATM    2  N2  UNL     1      13.873 -16.496  13.101  1.00  0.00    -0.350 N
ATOM      3  H2  UNL     1      13.074 -17.120  12.985  1.00  0.00     0.166 HD
HETATM    4  C10 UNL     1      14.997 -16.787  13.716  1.00  0.00     0.189 A
HETATM    5  N3  UNL     1      15.856 -15.805  13.721  1.00  0.00    -0.308 N
HETATM    6  C22 UNL     1      15.203 -14.804  13.038  1.00  0.00     0.041 A
HETATM    7  C23 UNL     1      15.774 -13.438  12.707  1.00  0.00     0.071 C
ENDROOT
BRANCH   1   8
HETATM    8  C8  UNL     1      12.893 -14.564  11.910  1.00  0.00     0.037 C
BRANCH   8   9
HETATM    9  C7  UNL     1      12.236 -13.502  12.267  1.00  0.00     0.077 C
BRANCH   9  10
HETATM   10  C6  UNL     1      11.470 -13.533  13.566  1.00  0.00     0.254 C
HETATM   11  N1  UNL     1      12.119 -13.912  14.753  1.00  0.00    -0.247 N
ATOM     12  H1  UNL     1      13.106 -14.168  14.730  1.00  0.00     0.182 HD
HETATM   13  O3  UNL     1      10.260 -13.217  13.564  1.00  0.00    -0.268 OA
BRANCH  11  14
HETATM   14  S1  UNL     1      11.267 -13.948  16.236  1.00  0.00     0.265 S
HETATM   15  O1  UNL     1      12.211 -13.961  17.420  1.00  0.00    -0.200 OA
HETATM   16  O2  UNL     1      10.412 -12.709  16.377  1.00  0.00    -0.200 OA
BRANCH  14  17
HETATM   17  C5  UNL     1      10.213 -15.320  16.393  1.00  0.00     0.081 A
HETATM   18  C4  UNL     1       9.707 -15.996  15.291  1.00  0.00     0.026 A
HETATM   19  C3  UNL     1       8.865 -17.085  15.443  1.00  0.00     0.010 A
HETATM   20  C2  UNL     1       8.523 -17.505  16.704  1.00  0.00    -0.040 A
HETATM   21  C1  UNL     1       7.621 -18.675  16.859  1.00  0.00     0.050 C
HETATM   22  C25 UNL     1       9.012 -16.849  17.807  1.00  0.00     0.041 A
HETATM   23  C24 UNL     1       9.852 -15.762  17.638  1.00  0.00     0.049 A
HETATM   24 CL1  UNL     1       8.551 -17.412  19.401  1.00  0.00    -0.084 Cl
ENDBRANCH  14  17
ENDBRANCH  11  14
ENDBRANCH   9  10
ENDBRANCH   8   9
ENDBRANCH   1   8
BRANCH   5  25
HETATM   25  C11 UNL     1      17.142 -15.566  14.227  1.00  0.00     0.064 A
HETATM   26  C12 UNL     1      17.225 -14.887  15.455  1.00  0.00     0.069 A
HETATM   27  C14 UNL     1      18.467 -14.649  16.083  1.00  0.00     0.040 A
HETATM   28  C15 UNL     1      19.592 -15.088  15.477  1.00  0.00     0.012 A
HETATM   29 BR1  UNL     1      21.286 -14.793  16.279  1.00  0.00    -0.051 Br
HETATM   30  C16 UNL     1      19.492 -15.737  14.291  1.00  0.00     0.029 A
HETATM   31  C17 UNL     1      18.260 -16.002  13.618  1.00  0.00    -0.021 A
BRANCH  26  32
HETATM   32  C13 UNL     1      16.041 -14.342  16.107  1.00  0.00     0.211 C
HETATM   33  O4  UNL     1      16.146 -13.138  16.578  1.00  0.00    -0.644 OA
HETATM   34  O5  UNL     1      14.824 -14.891  16.303  1.00  0.00    -0.644 OA
ENDBRANCH  26  32
BRANCH  31  35
HETATM   35  C18 UNL     1      18.298 -16.668  12.345  1.00  0.00    -0.022 C
HETATM   36  C19 UNL     1      17.830 -18.157  12.467  1.00  0.00     0.019 C
HETATM   37  C20 UNL     1      17.786 -16.110  11.083  1.00  0.00     0.019 C
HETATM   38  C21 UNL     1      19.781 -16.915  12.068  1.00  0.00     0.019 C
ENDBRANCH  31  35
ENDBRANCH   5  25
TORSDOF 8
ENDMDL