MODEL 4
REMARK VINA RESULT: -4.607585212      0.834      1.207
REMARK  6 active torsions:
REMARK  status: ('A' for Active; 'I' for Inactive)
REMARK    1  A    between atoms: C2_2  and  C3_3
REMARK    2  A    between atoms: C3_3  and  C4_4
REMARK       I    between atoms: C4_4  and  N1_6
REMARK    3  A    between atoms: N1_6  and  C5_8
REMARK    4  A    between atoms: C8_11  and  O2_12
REMARK       I    between atoms: N2_15  and  C10_16
REMARK       I    between atoms: C10_16  and  N3_18
REMARK    5  A    between atoms: N3_18  and  C11_20
REMARK    6  A    between atoms: C11_20  and  C13_22
REMARK       I    between atoms: N4_34  and  C23_35
ROOT
HETATM    1  C5  UNL     1      11.519 -15.432  16.459  1.00  0.00     0.026 C
HETATM    2  C6  UNL     1      12.708 -14.443  16.444  1.00  0.00     0.025 C
HETATM    3  C7  UNL     1      12.863 -13.387  15.501  1.00  0.00     0.016 C
HETATM    4  C8  UNL     1      12.238 -13.054  14.212  1.00  0.00     0.113 C
HETATM    5  C9  UNL     1      13.066 -13.714  13.082  1.00  0.00     0.177 C
HETATM    6  N2  UNL     1      12.987 -15.075  13.455  1.00  0.00    -0.309 N
HETATM    7  C10 UNL     1      13.943 -15.868  12.771  1.00  0.00     0.322 C
HETATM    8  O3  UNL     1      14.692 -15.264  11.933  1.00  0.00    -0.247 OA
HETATM    9  N3  UNL     1      14.163 -17.240  12.911  1.00  0.00    -0.334 N
ATOM     10  H3  UNL     1      13.591 -17.763  13.574  1.00  0.00     0.165 HD
HETATM   11  C19 UNL     1      12.166 -15.738  14.350  1.00  0.00     0.085 C
HETATM   12  C20 UNL     1      10.990 -15.239  15.104  1.00  0.00     0.046 C
HETATM   13  C21 UNL     1       9.955 -16.109  14.436  1.00  0.00     0.042 C
HETATM   14  C22 UNL     1      10.144 -15.648  12.968  1.00  0.00     0.128 C
HETATM   15  N4  UNL     1      10.363 -14.188  12.870  1.00  0.00    -0.344 N
HETATM   16  C23 UNL     1       9.997 -13.665  11.594  1.00  0.00     0.216 C
HETATM   17  C24 UNL     1      10.076 -12.226  11.222  1.00  0.00     0.117 C
HETATM   18  O4  UNL     1       9.563 -14.420  10.668  1.00  0.00    -0.274 OA
HETATM   19  C25 UNL     1      10.857 -13.320  13.894  1.00  0.00     0.137 C
HETATM   20  C26 UNL     1      10.300 -13.978  15.120  1.00  0.00     0.002 C
HETATM   21  C27 UNL     1      10.094 -13.123  16.282  1.00  0.00     0.013 C
HETATM   22  C28 UNL     1       9.452 -11.827  15.714  1.00  0.00     0.001 C
HETATM   23  C29 UNL     1       8.423 -12.463  14.896  1.00  0.00     0.001 C
HETATM   24  C30 UNL     1       8.790 -13.960  14.828  1.00  0.00     0.013 C
ENDROOT
BRANCH   4  25
HETATM   25  O2  UNL     1      12.563 -11.710  13.912  1.00  0.00    -0.382 OA
ATOM     26  H2  UNL     1      12.530 -11.609  12.967  1.00  0.00     0.211 HD
ENDBRANCH   4  25
BRANCH   9  27
HETATM   27  C11 UNL     1      15.165 -17.943  12.156  1.00  0.00     0.115 C
HETATM   28  C12 UNL     1      15.027 -19.424  12.442  1.00  0.00     0.037 C
BRANCH  27  29
HETATM   29  C13 UNL     1      16.554 -17.565  12.488  1.00  0.00    -0.034 A
HETATM   30  C14 UNL     1      17.483 -17.194  11.551  1.00  0.00     0.011 A
HETATM   31  C15 UNL     1      18.760 -16.850  11.927  1.00  0.00     0.026 A
HETATM   32  C16 UNL     1      19.132 -16.870  13.255  1.00  0.00     0.055 A
HETATM   33 CL1  UNL     1      20.770 -16.425  13.732  1.00  0.00    -0.083 Cl
HETATM   34  C17 UNL     1      18.205 -17.242  14.212  1.00  0.00     0.056 A
HETATM   35 CL2  UNL     1      18.670 -17.273  15.905  1.00  0.00    -0.083 Cl
HETATM   36  C18 UNL     1      16.914 -17.589  13.808  1.00  0.00     0.034 A
ENDBRANCH  27  29
ENDBRANCH   9  27
BRANCH   1  37
HETATM   37  N1  UNL     1      10.814 -15.566  17.626  1.00  0.00    -0.330 N
HETATM   38  C4  UNL     1      10.832 -16.820  18.361  1.00  0.00     0.221 C
HETATM   39  O1  UNL     1      11.510 -17.777  17.902  1.00  0.00    -0.273 OA
ATOM     40  H1  UNL     1      10.272 -14.779  17.982  1.00  0.00     0.168 HD
BRANCH  38  41
HETATM   41  C3  UNL     1      10.093 -17.011  19.612  1.00  0.00     0.103 C
BRANCH  41  42
HETATM   42  C2  UNL     1       9.047 -18.082  19.408  1.00  0.00     0.005 C
HETATM   43  C1  UNL     1       8.033 -17.574  18.383  1.00  0.00     0.005 C
ENDBRANCH  41  42
ENDBRANCH  38  41
ENDBRANCH   1  37
TORSDOF 6
ENDMDL