MODEL 5
REMARK VINA RESULT: -6.406453677      1.566      2.004
REMARK  10 active torsions:
REMARK  status: ('A' for Active; 'I' for Inactive)
REMARK    1  A    between atoms: C2_2  and  C3_3
REMARK    2  A    between atoms: C3_3  and  C4_4
REMARK    3  A    between atoms: C4_4  and  O1_5
REMARK    4  A    between atoms: C4_4  and  C5_7
REMARK    5  A    between atoms: C5_7  and  O2_8
REMARK    6  A    between atoms: C5_7  and  C6_10
REMARK    7  A    between atoms: C7_11  and  N1_12
REMARK       I    between atoms: N1_12  and  C8_14
REMARK    8  A    between atoms: C8_14  and  C9_16
REMARK    9  A    between atoms: N2_33  and  C24_34
REMARK   10  A    between atoms: C24_34  and  O4_36
ROOT
HETATM    1  C6  UNL     1      11.873 -15.488  14.657  1.00  0.00     0.140 C
HETATM    2  C7  UNL     1      12.752 -14.856  15.626  1.00  0.00     0.110 C
HETATM    3  C15 UNL     1      12.550 -15.056  17.103  1.00  0.00     0.027 C
HETATM    4  C16 UNL     1      11.412 -15.909  17.413  1.00  0.00     0.002 C
HETATM    5  C17 UNL     1      11.294 -16.590  18.719  1.00  0.00     0.000 C
HETATM    6  C18 UNL     1      10.439 -17.846  18.475  1.00  0.00     0.000 C
HETATM    7  C19 UNL     1       8.999 -17.673  18.592  1.00  0.00     0.000 C
HETATM    8  C20 UNL     1       8.200 -17.004  17.568  1.00  0.00     0.000 C
HETATM    9  C21 UNL     1       8.371 -17.379  16.139  1.00  0.00     0.002 C
HETATM   10  C22 UNL     1       8.342 -16.119  15.235  1.00  0.00     0.020 C
HETATM   11  C23 UNL     1       9.475 -16.159  14.214  1.00  0.00     0.125 C
HETATM   12  N2  UNL     1      10.499 -15.100  14.500  1.00  0.00    -0.356 N
ENDROOT
BRANCH   2  13
HETATM   13  N1  UNL     1      14.129 -15.288  15.370  1.00  0.00    -0.350 N
HETATM   14  C8  UNL     1      15.278 -14.685  15.911  1.00  0.00     0.252 C
HETATM   15  O3  UNL     1      15.292 -13.697  16.698  1.00  0.00    -0.268 OA
ATOM     16  H1  UNL     1      14.264 -16.087  14.751  1.00  0.00     0.163 HD
BRANCH  14  17
HETATM   17  C9  UNL     1      16.611 -15.204  15.571  1.00  0.00     0.034 A
HETATM   18  C10 UNL     1      17.727 -14.593  16.064  1.00  0.00     0.036 A
HETATM   19  C11 UNL     1      19.014 -15.057  15.753  1.00  0.00     0.013 A
HETATM   20 BR1  UNL     1      20.576 -14.208  16.441  1.00  0.00    -0.051 Br
HETATM   21  C12 UNL     1      19.157 -16.156  14.931  1.00  0.00     0.038 A
HETATM   22  C13 UNL     1      18.037 -16.785  14.422  1.00  0.00     0.013 A
HETATM   23 BR2  UNL     1      18.209 -18.296  13.290  1.00  0.00    -0.051 Br
HETATM   24  C14 UNL     1      16.785 -16.305  14.746  1.00  0.00     0.036 A
ENDBRANCH  14  17
ENDBRANCH   2  13
BRANCH   1  25
HETATM   25  C5  UNL     1      12.535 -15.370  13.263  1.00  0.00     0.171 C
BRANCH  25  26
HETATM   26  C4  UNL     1      12.986 -13.977  12.942  1.00  0.00     0.149 C
BRANCH  26  27
HETATM   27  C3  UNL     1      14.139 -13.991  11.950  1.00  0.00     0.034 C
BRANCH  27  28
HETATM   28  C2  UNL     1      15.434 -13.502  12.531  1.00  0.00    -0.002 C
HETATM   29  C1  UNL     1      16.525 -14.432  11.998  1.00  0.00     0.005 C
ENDBRANCH  27  28
ENDBRANCH  26  27
BRANCH  26  30
HETATM   30  O1  UNL     1      12.006 -13.177  12.363  1.00  0.00    -0.393 OA
ATOM     31  H1  UNL     1      12.449 -12.377  12.107  1.00  0.00     0.210 HD
ENDBRANCH  26  30
ENDBRANCH  25  26
BRANCH  25  32
HETATM   32  O2  UNL     1      13.522 -16.289  13.057  1.00  0.00    -0.391 OA
ATOM     33  H2  UNL     1      13.719 -16.401  12.134  1.00  0.00     0.210 HD
ENDBRANCH  25  32
ENDBRANCH   1  25
BRANCH  12  34
HETATM   34  C24 UNL     1       9.913 -13.826  14.606  1.00  0.00     0.109 C
HETATM   35  C25 UNL     1       9.950 -12.865  15.720  1.00  0.00     0.097 C
BRANCH  34  36
HETATM   36  O4  UNL     1       9.216 -13.365  13.606  1.00  0.00    -0.350 OA
ATOM     37  H4  UNL     1       8.903 -12.468  13.635  1.00  0.00     0.219 HD
ENDBRANCH  34  36
ENDBRANCH  12  34
TORSDOF 10
ENDMDL