MODEL 1
REMARK VINA RESULT: -5.530256209      0.000      0.000
REMARK  0 active torsions:
REMARK  status: ('A' for Active; 'I' for Inactive)
ROOT
HETATM    1  C1  UNL     1      17.127  -9.168 102.141  1.00  0.00     0.042 C
HETATM    2  C2  UNL     1      17.974  -9.576 100.970  1.00  0.00     0.212 C
HETATM    3  N1  UNL     1      17.105 -10.237 100.005  1.00  0.00    -0.067 N
ATOM      4  H11 UNL     1      16.416  -9.613  99.585  1.00  0.00     0.277 HD
ATOM      5  H12 UNL     1      16.443 -10.886 100.430  1.00  0.00     0.277 HD
HETATM    6  C3  UNL     1      17.990 -10.866  99.030  1.00  0.00     0.270 C
HETATM    7  C4  UNL     1      18.673  -9.771  98.268  1.00  0.00     0.142 C
HETATM    8  C5  UNL     1      20.160 -10.068  98.099  1.00  0.00     0.047 C
HETATM    9  C6  UNL     1      18.112  -9.688  96.842  1.00  0.00     0.047 C
HETATM   10  N2  UNL     1      18.534  -8.472  98.843  1.00  0.00    -0.059 N
ATOM     11  H21 UNL     1      17.657  -8.044  98.545  1.00  0.00     0.278 HD
ATOM     12  H22 UNL     1      19.199  -7.825  98.421  1.00  0.00     0.278 HD
HETATM   13  C7  UNL     1      18.644  -8.439 100.275  1.00  0.00     0.212 C
HETATM   14  C8  UNL     1      18.079  -7.080 100.707  1.00  0.00     0.042 C
ENDROOT
TORSDOF 0
ENDMDL