MODEL 5
REMARK VINA RESULT: -4.458510333      1.234      1.610
REMARK  1 active torsions:
REMARK  status: ('A' for Active; 'I' for Inactive)
REMARK    1  A    between atoms: C2_2  and  C3_3
ROOT
HETATM    1  C3  UNL     1      18.449  -7.507  99.745  1.00  0.00     0.187 C
HETATM    2  C4  UNL     1      18.675  -8.972  99.420  1.00  0.00     0.036 C
HETATM    3  C5  UNL     1      18.082  -9.635 100.641  1.00  0.00     0.047 C
HETATM    4  C6  UNL     1      18.105  -8.546 101.702  1.00  0.00     0.258 C
HETATM    5  S1  UNL     1      16.398  -7.945 101.944  1.00  0.00    -0.062 SA
HETATM    6  N1  UNL     1      18.926  -7.474 101.118  1.00  0.00    -0.057 N
ATOM      7  H11 UNL     1      18.873  -6.569 101.586  1.00  0.00     0.279 HD
ATOM      8  H12 UNL     1      19.934  -7.570 101.240  1.00  0.00     0.279 HD
ENDROOT
BRANCH   1   9
HETATM    9  C2  UNL     1      19.252  -6.663  98.817  1.00  0.00     0.028 C
HETATM   10  C1  UNL     1      19.173  -7.033  97.385  1.00  0.00     0.007 C
ENDBRANCH   1   9
TORSDOF 1
ENDMDL