MODEL 2
REMARK VINA RESULT: -5.621652239      2.303      3.080
REMARK  1 active torsions:
REMARK  status: ('A' for Active; 'I' for Inactive)
REMARK    1  A    between atoms: C2_2  and  N1_3
ROOT
HETATM    1  N1  UNL     1      17.839  -6.581 100.969  1.00  0.00    -0.302 N
ATOM      2  H1  UNL     1      17.125  -6.343 101.656  1.00  0.00     0.174 HD
HETATM    3  C3  UNL     1      18.478  -5.580 100.257  1.00  0.00     0.179 C
HETATM    4  N2  UNL     1      19.010  -4.745  99.652  1.00  0.00    -0.172 NA
ENDROOT
BRANCH   1   5
HETATM    5  C2  UNL     1      18.186  -7.954 100.735  1.00  0.00     0.108 C
HETATM    6  C1  UNL     1      19.174  -8.367 101.834  1.00  0.00     0.064 C
HETATM    7  C4  UNL     1      16.966  -8.824 100.795  1.00  0.00     0.054 C
HETATM    8  C5  UNL     1      17.278 -10.236 100.433  1.00  0.00     0.009 C
HETATM    9  C6  UNL     1      18.102 -10.387  99.195  1.00  0.00     0.044 C
HETATM   10  C7  UNL     1      19.111  -9.320  98.970  1.00  0.00     0.058 C
HETATM   11  N3  UNL     1      18.835  -8.049  99.476  1.00  0.00    -0.376 N
ATOM     12  H3  UNL     1      19.093  -7.211  98.955  1.00  0.00     0.161 HD
ENDBRANCH   1   5
TORSDOF 1
ENDMDL