MODEL 2
REMARK VINA RESULT: -4.492725086      2.425      3.000
REMARK  2 active torsions:
REMARK  status: ('A' for Active; 'I' for Inactive)
REMARK    1  A    between atoms: N1_1  and  C1_5
REMARK    2  A    between atoms: C1_5  and  C2_6
ROOT
HETATM    1  C1  UNL     1      18.845  -9.474  98.431  1.00  0.00     0.133 C
HETATM    2  C3  UNL     1      18.531  -8.566  99.598  1.00  0.00     0.039 C
HETATM    3  C4  UNL     1      18.150  -9.563 100.670  1.00  0.00     0.002 C
HETATM    4  C5  UNL     1      17.383 -10.652  99.966  1.00  0.00     0.002 C
HETATM    5  C6  UNL     1      18.096 -10.739  98.634  1.00  0.00     0.039 C
ENDROOT
BRANCH   1   6
HETATM    6  N1  UNL     1      20.265  -9.777  98.430  1.00  0.00    -0.070 N
ATOM      7  H13 UNL     1      20.675  -9.697  97.500  1.00  0.00     0.275 HD
ATOM      8  H12 UNL     1      20.814  -9.053  98.895  1.00  0.00     0.275 HD
ATOM      9  H11 UNL     1      20.418 -10.698  98.840  1.00  0.00     0.275 HD
ENDBRANCH   1   6
BRANCH   1  10
HETATM   10  C2  UNL     1      18.485  -8.743  97.165  1.00  0.00     0.124 C
HETATM   11  S1  UNL     1      19.204  -7.121  97.031  1.00  0.00    -0.095 SA
ENDBRANCH   1  10
TORSDOF 2
ENDMDL