MODEL 4
REMARK VINA RESULT: -4.789763801      1.496      2.582
REMARK  1 active torsions:
REMARK  status: ('A' for Active; 'I' for Inactive)
REMARK    1  A    between atoms: N1_2  and  C2_5
ROOT
HETATM    1  C2  UNL     1      18.933  -7.830  99.960  1.00  0.00     0.418 C
HETATM    2  C3  UNL     1      18.270  -9.118 100.440  1.00  0.00     0.071 C
HETATM    3  C4  UNL     1      18.622 -10.046  99.295  1.00  0.00     0.013 C
HETATM    4  C5  UNL     1      17.677 -11.211  99.177  1.00  0.00     0.012 C
HETATM    5  C6  UNL     1      18.384  -9.146  98.115  1.00  0.00     0.279 C
HETATM    6  N2  UNL     1      18.691  -7.817  98.550  1.00  0.00     0.115 N
HETATM    7  C7  UNL     1      19.714  -7.212  97.756  1.00  0.00     0.312 C
ENDROOT
BRANCH   1   8
HETATM    8  N1  UNL     1      18.178  -6.722 100.535  1.00  0.00    -0.047 N
HETATM    9  C1  UNL     1      17.255  -7.143 101.551  1.00  0.00     0.269 C
ATOM     10  H12 UNL     1      17.702  -6.188  99.807  1.00  0.00     0.279 HD
ATOM     11  H11 UNL     1      18.805  -5.999 100.887  1.00  0.00     0.279 HD
ENDBRANCH   1   8
TORSDOF 1
ENDMDL