MODEL 3
REMARK VINA RESULT: -4.520497728      1.924      2.166
REMARK  1 active torsions:
REMARK  status: ('A' for Active; 'I' for Inactive)
REMARK    1  A    between atoms: C1_2  and  C2_3
ROOT
HETATM    1  C2  UNL     1      18.212  -9.622 100.056  1.00  0.00     0.196 C
HETATM    2  C3  UNL     1      18.325 -10.343  98.747  1.00  0.00     0.034 C
HETATM    3  C4  UNL     1      19.763 -10.104  98.267  1.00  0.00     0.004 C
HETATM    4  C5  UNL     1      19.859  -8.664  97.882  1.00  0.00     0.027 C
HETATM    5  C6  UNL     1      18.744  -7.839  98.528  1.00  0.00     0.232 C
HETATM    6  N1  UNL     1      18.535  -8.219  99.901  1.00  0.00    -0.070 N
ATOM      7  H11 UNL     1      19.339  -7.964 100.475  1.00  0.00     0.277 HD
ATOM      8  H12 UNL     1      17.825  -7.630 100.338  1.00  0.00     0.277 HD
ENDROOT
BRANCH   1   9
HETATM    9  C1  UNL     1      16.863  -9.721 100.690  1.00  0.00     0.119 C
HETATM   10  S1  UNL     1      16.634  -8.207 101.701  1.00  0.00    -0.096 SA
ENDBRANCH   1   9
TORSDOF 1
ENDMDL