MODEL 4
REMARK VINA RESULT: -5.106553253      1.589      4.576
REMARK  2 active torsions:
REMARK  status: ('A' for Active; 'I' for Inactive)
REMARK    1  A    between atoms: C3_3  and  C4_4
REMARK    2  A    between atoms: C6_6  and  N1_7
ROOT
HETATM    1  C4  UNL     1      18.343  -8.309  99.593  1.00  0.00     0.210 C
HETATM    2  C5  UNL     1      18.907  -7.513 100.754  1.00  0.00     0.069 C
HETATM    3  C6  UNL     1      19.111  -6.107 100.282  1.00  0.00     0.187 C
HETATM    4  C7  UNL     1      19.064  -5.925  98.811  1.00  0.00     0.060 C
HETATM    5  C8  UNL     1      19.492  -7.073  97.986  1.00  0.00     0.235 C
HETATM    6  N2  UNL     1      19.387  -8.356  98.595  1.00  0.00    -0.068 N
ATOM      7  H21 UNL     1      19.242  -9.101  97.913  1.00  0.00     0.277 HD
ATOM      8  H22 UNL     1      20.275  -8.683  98.974  1.00  0.00     0.277 HD
ENDROOT
BRANCH   3   9
HETATM    9  N1  UNL     1      18.006  -5.315 100.850  1.00  0.00    -0.075 N
ATOM     10  H13 UNL     1      17.165  -5.321 100.273  1.00  0.00     0.274 HD
ATOM     11  H12 UNL     1      17.592  -5.736 101.681  1.00  0.00     0.274 HD
ATOM     12  H11 UNL     1      18.378  -4.379 101.014  1.00  0.00     0.274 HD
ENDBRANCH   3   9
BRANCH   1  13
HETATM   13  C3  UNL     1      17.824  -9.617  99.983  1.00  0.00     0.001 C
HETATM   14  C2  UNL     1      17.861 -10.633  99.142  1.00  0.00    -0.033 C
HETATM   15  C1  UNL     1      17.336 -11.974  99.525  1.00  0.00     0.036 C
ENDBRANCH   1  13
TORSDOF 2
ENDMDL