MODEL 4
REMARK VINA RESULT: -5.157462131      3.155      4.822
REMARK  3 active torsions:
REMARK  status: ('A' for Active; 'I' for Inactive)
REMARK    1  A    between atoms: N1_1  and  C1_5
REMARK    2  A    between atoms: C1_5  and  C2_6
REMARK    3  A    between atoms: C2_6  and  N2_7
ROOT
HETATM    1  C2  UNL     1      16.015  -7.364 102.601  1.00  0.00     0.147 C
HETATM    2  C3  UNL     1      16.118  -8.444 101.560  1.00  0.00     0.051 C
HETATM    3  C4  UNL     1      14.881  -9.402 101.502  1.00  0.00     0.082 C
HETATM    4  C5  UNL     1      13.848  -8.735 102.178  1.00  0.00    -0.183 C
HETATM    5  C6  UNL     1      12.884  -8.073 102.954  1.00  0.00     0.080 C
HETATM    6  C7  UNL     1      13.605  -6.791 103.506  1.00  0.00     0.014 C
HETATM    7  C8  UNL     1      14.888  -6.505 102.788  1.00  0.00     0.041 C
ENDROOT
BRANCH   1   8
HETATM    8  C1  UNL     1      16.816  -7.713 103.868  1.00  0.00     0.268 C
BRANCH   8   9
HETATM    9  N1  UNL     1      17.131  -6.476 104.603  1.00  0.00    -0.077 N
ATOM     10  H13 UNL     1      17.977  -6.025 104.255  1.00  0.00     0.274 HD
ATOM     11  H12 UNL     1      16.472  -5.725 104.396  1.00  0.00     0.274 HD
ATOM     12  H11 UNL     1      17.184  -6.679 105.601  1.00  0.00     0.274 HD
ENDBRANCH   8   9
ENDBRANCH   1   8
BRANCH   1  13
HETATM   13  N2  UNL     1      17.036  -6.408 102.009  1.00  0.00    -0.069 N
ATOM     14  H23 UNL     1      17.969  -6.777 101.827  1.00  0.00     0.275 HD
ATOM     15  H22 UNL     1      16.900  -6.122 101.039  1.00  0.00     0.275 HD
ATOM     16  H21 UNL     1      16.949  -5.687 102.725  1.00  0.00     0.275 HD
ENDBRANCH   1  13
TORSDOF 3
ENDMDL