MODEL 3
REMARK VINA RESULT: -4.920840190      1.404      2.182
REMARK  2 active torsions:
REMARK  status: ('A' for Active; 'I' for Inactive)
REMARK    1  A    between atoms: N1_2  and  C2_5
REMARK    2  A    between atoms: C5_8  and  N2_9
ROOT
HETATM    1  C2  UNL     1      18.515  -7.221  99.773  1.00  0.00     0.185 C
HETATM    2  C3  UNL     1      18.795  -8.559 100.409  1.00  0.00     0.035 C
HETATM    3  C4  UNL     1      18.194  -9.601  99.490  1.00  0.00     0.034 C
HETATM    4  C5  UNL     1      18.897  -9.528  98.168  1.00  0.00     0.183 C
HETATM    5  C6  UNL     1      18.744  -8.148  97.559  1.00  0.00     0.034 C
HETATM    6  C7  UNL     1      19.325  -7.091  98.507  1.00  0.00     0.035 C
ENDROOT
BRANCH   1   7
HETATM    7  N1  UNL     1      18.667  -6.178 100.707  1.00  0.00    -0.075 N
HETATM    8  C1  UNL     1      18.734  -4.913 100.067  1.00  0.00     0.267 C
ATOM      9  H12 UNL     1      19.472  -6.334 101.314  1.00  0.00     0.277 HD
ATOM     10  H11 UNL     1      17.931  -6.200 101.414  1.00  0.00     0.277 HD
ENDBRANCH   1   7
BRANCH   4  11
HETATM   11  N2  UNL     1      20.268  -9.952  98.209  1.00  0.00    -0.075 N
ATOM     12  H23 UNL     1      20.334 -10.916  98.536  1.00  0.00     0.274 HD
ATOM     13  H22 UNL     1      20.636 -10.064  97.264  1.00  0.00     0.274 HD
ATOM     14  H21 UNL     1      20.875  -9.345  98.760  1.00  0.00     0.274 HD
ENDBRANCH   4  11
TORSDOF 2
ENDMDL