MODEL 5
REMARK VINA RESULT: -5.398576527      1.564      3.966
REMARK  2 active torsions:
REMARK  status: ('A' for Active; 'I' for Inactive)
REMARK    1  A    between atoms: C2_2  and  C3_3
REMARK    2  A    between atoms: C6_6  and  N1_7
ROOT
HETATM    1  C3  UNL     1      18.833  -6.724  99.358  1.00  0.00     0.024 C
HETATM    2  C4  UNL     1      19.551  -7.019  98.084  1.00  0.00     0.012 C
HETATM    3  C5  UNL     1      18.757  -7.838  97.107  1.00  0.00     0.039 C
HETATM    4  C6  UNL     1      18.709  -9.294  97.500  1.00  0.00     0.221 C
HETATM    5  C7  UNL     1      18.003  -9.477  98.830  1.00  0.00     0.092 C
HETATM    6  N2  UNL     1      18.858  -9.131  99.875  1.00  0.00    -0.380 N
ATOM      7  H2  UNL     1      19.480  -9.830 100.282  1.00  0.00     0.164 HD
HETATM    8  C8  UNL     1      18.859  -7.823 100.362  1.00  0.00     0.064 C
ENDROOT
BRANCH   4   9
HETATM    9  N1  UNL     1      18.055 -10.028  96.435  1.00  0.00    -0.070 N
ATOM     10  H13 UNL     1      17.478 -10.795  96.781  1.00  0.00     0.275 HD
ATOM     11  H12 UNL     1      17.313  -9.491  95.985  1.00  0.00     0.275 HD
ATOM     12  H11 UNL     1      18.770 -10.338  95.777  1.00  0.00     0.275 HD
ENDBRANCH   4   9
BRANCH   1  13
HETATM   13  C2  UNL     1      19.504  -5.500  99.983  1.00  0.00     0.005 C
HETATM   14  C1  UNL     1      18.523  -4.446 100.367  1.00  0.00     0.006 C
ENDBRANCH   1  13
TORSDOF 2
ENDMDL