MODEL 2
REMARK VINA RESULT: -8.196573728      2.495      3.757
REMARK  4 active torsions:
REMARK  status: ('A' for Active; 'I' for Inactive)
REMARK    1  A    between atoms: N1_2  and  C1_4
REMARK    2  A    between atoms: C3_7  and  S2_8
REMARK    3  A    between atoms: S2_8  and  C4_9
REMARK    4  A    between atoms: C4_9  and  C5_10
ROOT
HETATM    1  C1  UNL     1     -21.522  16.816 -16.407  1.00  0.00     0.115 C
HETATM    2  C2  UNL     1     -20.946  15.624 -16.670  1.00  0.00     0.086 C
HETATM    3  S1  UNL     1     -20.252  15.373 -18.309  1.00  0.00    -0.075 SA
HETATM    4  C3  UNL     1     -19.657  17.032 -18.755  1.00  0.00     0.109 C
HETATM    5  N2  UNL     1     -20.394  17.963 -18.273  1.00  0.00    -0.364 N
ATOM      6  H2  UNL     1     -20.112  18.919 -18.486  1.00  0.00     0.162 HD
HETATM    7  C9  UNL     1     -21.567  17.809 -17.470  1.00  0.00     0.080 C
HETATM    8  C10 UNL     1     -21.899  19.223 -16.958  1.00  0.00     0.038 C
HETATM    9  C11 UNL     1     -23.352  19.367 -16.719  1.00  0.00     0.003 C
HETATM   10  C12 UNL     1     -24.153  19.786 -17.926  1.00  0.00     0.000 C
HETATM   11  C13 UNL     1     -23.355  19.856 -19.178  1.00  0.00     0.000 C
HETATM   12  C14 UNL     1     -22.613  18.600 -19.521  1.00  0.00     0.003 C
HETATM   13  C15 UNL     1     -22.710  17.523 -18.464  1.00  0.00     0.038 C
ENDROOT
BRANCH   4  14
HETATM   14  S2  UNL     1     -18.245  17.240 -19.727  1.00  0.00    -0.099 SA
BRANCH  14  15
HETATM   15  C4  UNL     1     -18.567  17.486 -21.459  1.00  0.00     0.146 C
BRANCH  15  16
HETATM   16  C5  UNL     1     -19.074  18.832 -21.755  1.00  0.00     0.064 A
HETATM   17  C6  UNL     1     -18.398  19.999 -21.873  1.00  0.00     0.037 A
HETATM   18  C7  UNL     1     -19.339  20.994 -22.158  1.00  0.00     0.048 A
HETATM   19  C8  UNL     1     -20.536  20.354 -22.194  1.00  0.00     0.121 A
HETATM   20 BR1  UNL     1     -22.219  21.192 -22.543  1.00  0.00    -0.023 Br
HETATM   21  O3  UNL     1     -20.359  19.096 -21.957  1.00  0.00    -0.307 OA
ENDBRANCH  15  16
ENDBRANCH  14  15
ENDBRANCH   4  14
BRANCH   1  22
HETATM   22  N1  UNL     1     -22.062  16.978 -15.085  1.00  0.00    -0.117 N
HETATM   23  O1  UNL     1     -21.373  17.370 -14.154  1.00  0.00    -0.532 OA
HETATM   24  O2  UNL     1     -23.373  16.666 -14.903  1.00  0.00    -0.532 OA
ENDBRANCH   1  22
TORSDOF 4
ENDMDL