MODEL 4
REMARK VINA RESULT: -8.471121114      2.132      2.472
REMARK  4 active torsions:
REMARK  status: ('A' for Active; 'I' for Inactive)
REMARK    1  A    between atoms: C8_8  and  O1_9
REMARK    2  A    between atoms: O1_9  and  C9_10
REMARK    3  A    between atoms: C9_10  and  C10_11
REMARK    4  A    between atoms: C10_11  and  C11_12
ROOT
HETATM    1  C1  UNL     1     -18.415  19.525 -20.957  1.00  0.00     0.010 C
HETATM    2  C2  UNL     1     -19.002  18.706 -19.796  1.00  0.00    -0.011 C
HETATM    3  C3  UNL     1     -18.827  17.274 -20.170  1.00  0.00     0.005 C
HETATM    4  C4  UNL     1     -19.548  16.306 -19.256  1.00  0.00     0.009 C
HETATM    5  C5  UNL     1     -20.110  17.082 -18.127  1.00  0.00     0.037 C
HETATM    6  C6  UNL     1     -20.606  16.299 -16.953  1.00  0.00     0.044 C
HETATM    7  C7  UNL     1     -21.708  15.342 -17.278  1.00  0.00     0.015 C
HETATM    8  C8  UNL     1     -20.975  17.290 -15.868  1.00  0.00     0.267 C
HETATM    9  O2  UNL     1     -20.869  18.630 -16.324  1.00  0.00    -0.328 OA
HETATM   10  C12 UNL     1     -21.716  18.697 -17.385  1.00  0.00     0.307 C
HETATM   11  O3  UNL     1     -22.157  19.917 -17.790  1.00  0.00    -0.297 OA
HETATM   12  C13 UNL     1     -23.066  19.615 -18.842  1.00  0.00     0.310 C
HETATM   13  C14 UNL     1     -24.416  20.058 -18.231  1.00  0.00     0.118 C
HETATM   14  O4  UNL     1     -23.195  18.322 -19.140  1.00  0.00    -0.171 OA
HETATM   15  O5  UNL     1     -22.183  17.561 -19.306  1.00  0.00    -0.218 OA
HETATM   16  C15 UNL     1     -21.095  18.079 -18.651  1.00  0.00     0.154 C
HETATM   17  C16 UNL     1     -20.461  19.088 -19.554  1.00  0.00     0.035 C
HETATM   18  C17 UNL     1     -21.139  19.113 -20.931  1.00  0.00     0.045 C
HETATM   19  C18 UNL     1     -22.288  20.057 -20.999  1.00  0.00     0.060 C
HETATM   20  C19 UNL     1     -23.426  19.473 -21.837  1.00  0.00     0.045 C
HETATM   21  C20 UNL     1     -21.837  21.304 -21.783  1.00  0.00     0.045 C
HETATM   22  O6  UNL     1     -22.796  20.499 -19.836  1.00  0.00    -0.321 OA
ENDROOT
BRANCH   8  23
HETATM   23  O1  UNL     1     -20.305  17.095 -14.690  1.00  0.00    -0.361 OA
BRANCH  23  24
HETATM   24  C9  UNL     1     -19.071  16.501 -14.937  1.00  0.00     0.172 C
BRANCH  24  25
HETATM   25  C10 UNL     1     -18.971  15.108 -14.378  1.00  0.00     0.041 C
BRANCH  25  26
HETATM   26  C11 UNL     1     -17.851  14.394 -15.102  1.00  0.00     0.116 C
HETATM   27 CL1  UNL     1     -18.327  12.682 -15.287  1.00  0.00    -0.130 Cl
ENDBRANCH  25  26
ENDBRANCH  24  25
ENDBRANCH  23  24
ENDBRANCH   8  23
TORSDOF 4
ENDMDL