MODEL 1
REMARK VINA RESULT: -10.160671127      0.000      0.000
REMARK  4 active torsions:
REMARK  status: ('A' for Active; 'I' for Inactive)
REMARK    1  A    between atoms: C2_2  and  C3_3
REMARK    2  A    between atoms: C8_9  and  C9_10
REMARK    3  A    between atoms: C12_13  and  O1_15
REMARK    4  A    between atoms: O1_15  and  C14_16
ROOT
HETATM    1  C9  UNL     1     -20.393  17.297 -18.659  1.00  0.00     0.217 C
HETATM    2  C10 UNL     1     -19.952  18.617 -19.099  1.00  0.00     0.014 C
HETATM    3  C11 UNL     1     -20.622  19.553 -19.729  1.00  0.00     0.042 C
HETATM    4  C12 UNL     1     -22.033  19.529 -20.177  1.00  0.00     0.220 C
HETATM    5  C13 UNL     1     -22.674  20.799 -19.652  1.00  0.00     0.087 C
HETATM    6  O3  UNL     1     -22.744  18.406 -19.874  1.00  0.00    -0.193 OA
HETATM    7  O4  UNL     1     -23.800  18.638 -19.114  1.00  0.00    -0.194 OA
HETATM    8  C16 UNL     1     -23.520  18.241 -17.783  1.00  0.00     0.229 C
HETATM    9  C17 UNL     1     -24.212  19.046 -16.782  1.00  0.00     0.074 C
HETATM   10  C18 UNL     1     -25.455  18.503 -16.173  1.00  0.00     0.006 C
HETATM   11  C19 UNL     1     -25.668  17.038 -16.321  1.00  0.00     0.000 C
HETATM   12  C20 UNL     1     -25.229  16.468 -17.635  1.00  0.00     0.006 C
HETATM   13  C21 UNL     1     -23.753  16.760 -17.734  1.00  0.00     0.074 C
HETATM   14  O5  UNL     1     -22.113  18.420 -17.710  1.00  0.00    -0.197 OA
HETATM   15  O6  UNL     1     -21.486  17.298 -17.791  1.00  0.00    -0.224 OA
ENDROOT
BRANCH   1  16
HETATM   16  C8  UNL     1     -19.318  16.401 -18.166  1.00  0.00    -0.016 A
HETATM   17  C3  UNL     1     -18.250  16.067 -18.909  1.00  0.00    -0.048 A
HETATM   18  C4  UNL     1     -17.329  15.116 -18.407  1.00  0.00     0.031 A
HETATM   19  C5  UNL     1     -17.499  14.533 -17.179  1.00  0.00     0.034 A
HETATM   20 CL1  UNL     1     -16.375  13.352 -16.530  1.00  0.00    -0.084 Cl
HETATM   21  C6  UNL     1     -18.578  14.868 -16.414  1.00  0.00     0.024 A
HETATM   22  C7  UNL     1     -19.462  15.781 -16.906  1.00  0.00     0.012 A
BRANCH  17  23
HETATM   23  C2  UNL     1     -17.880  16.690 -20.177  1.00  0.00     0.035 C
HETATM   24  C1  UNL     1     -16.387  17.047 -20.059  1.00  0.00     0.010 C
ENDBRANCH  17  23
ENDBRANCH   1  16
BRANCH   4  25
HETATM   25  O1  UNL     1     -21.948  19.587 -21.618  1.00  0.00    -0.277 OA
BRANCH  25  26
HETATM   26  C14 UNL     1     -21.724  20.776 -22.291  1.00  0.00     0.257 C
HETATM   27  C15 UNL     1     -20.368  21.360 -22.458  1.00  0.00     0.126 C
HETATM   28  O2  UNL     1     -22.740  21.348 -22.765  1.00  0.00    -0.266 OA
ENDBRANCH  25  26
ENDBRANCH   4  25
TORSDOF 4
ENDMDL