MODEL 1
REMARK VINA RESULT: -10.538177886      0.000      0.000
REMARK  3 active torsions:
REMARK  status: ('A' for Active; 'I' for Inactive)
REMARK    1  A    between atoms: O1_2  and  C2_3
REMARK    2  A    between atoms: C9_12  and  C10_13
REMARK    3  A    between atoms: C11_14  and  C12_15
ROOT
HETATM    1  C2  UNL     1     -20.400  18.226 -19.758  1.00  0.00     0.103 A
HETATM    2  C3  UNL     1     -20.154  19.303 -20.583  1.00  0.00     0.064 A
HETATM    3  C4  UNL     1     -18.906  19.431 -21.145  1.00  0.00     0.043 A
HETATM    4 CL1  UNL     1     -18.603  20.821 -22.204  1.00  0.00    -0.084 Cl
HETATM    5  C5  UNL     1     -17.939  18.507 -20.886  1.00  0.00    -0.031 A
HETATM    6  C6  UNL     1     -16.612  18.738 -21.555  1.00  0.00     0.050 C
HETATM    7  C7  UNL     1     -18.126  17.389 -20.056  1.00  0.00    -0.013 A
HETATM    8  C8  UNL     1     -19.392  17.299 -19.513  1.00  0.00     0.111 A
HETATM    9  O2  UNL     1     -19.952  16.331 -18.644  1.00  0.00    -0.327 OA
HETATM   10  C9  UNL     1     -19.187  15.406 -17.782  1.00  0.00     0.218 C
HETATM   11  C19 UNL     1     -17.865  15.441 -18.277  1.00  0.00    -0.147 C
HETATM   12  C20 UNL     1     -16.634  15.654 -18.917  1.00  0.00     0.087 C
HETATM   13  C21 UNL     1     -16.865  16.671 -20.047  1.00  0.00     0.053 C
ENDROOT
BRANCH  10  14
HETATM   14  C10 UNL     1     -19.447  15.899 -16.402  1.00  0.00     0.018 C
HETATM   15  C11 UNL     1     -20.541  16.578 -16.127  1.00  0.00     0.038 C
BRANCH  15  16
HETATM   16  C12 UNL     1     -20.808  17.075 -14.745  1.00  0.00     0.356 C
HETATM   17  O3  UNL     1     -21.142  15.972 -13.964  1.00  0.00    -0.198 OA
HETATM   18  O4  UNL     1     -22.237  15.445 -14.469  1.00  0.00    -0.195 OA
HETATM   19  C13 UNL     1     -23.260  16.367 -14.239  1.00  0.00     0.229 C
HETATM   20  C14 UNL     1     -23.185  16.772 -12.789  1.00  0.00     0.074 C
HETATM   21  C18 UNL     1     -24.620  15.800 -14.495  1.00  0.00     0.074 C
HETATM   22  O5  UNL     1     -22.984  17.461 -15.079  1.00  0.00    -0.195 OA
HETATM   23  C15 UNL     1     -24.471  16.532 -12.049  1.00  0.00     0.006 C
HETATM   24  C16 UNL     1     -25.676  17.103 -12.722  1.00  0.00     0.000 C
HETATM   25  C17 UNL     1     -25.638  16.877 -14.198  1.00  0.00     0.006 C
HETATM   26  O6  UNL     1     -21.849  18.018 -14.791  1.00  0.00    -0.198 OA
ENDBRANCH  15  16
ENDBRANCH  10  14
BRANCH   1  27
HETATM   27  O1  UNL     1     -21.650  18.093 -19.193  1.00  0.00    -0.353 OA
HETATM   28  C1  UNL     1     -22.222  19.082 -18.393  1.00  0.00     0.210 C
ENDBRANCH   1  27
TORSDOF 3
ENDMDL