MODEL 1
REMARK VINA RESULT: -10.212819440      0.000      0.000
REMARK  4 active torsions:
REMARK  status: ('A' for Active; 'I' for Inactive)
REMARK    1  A    between atoms: C2_2  and  O1_3
REMARK    2  A    between atoms: O1_3  and  C3_4
REMARK    3  A    between atoms: C3_4  and  C4_6
REMARK    4  A    between atoms: C6_9  and  N1_10
ROOT
HETATM    1  N1  UNL     1     -20.601  16.960 -18.020  1.00  0.00    -0.229 N
HETATM    2  N2  UNL     1     -19.620  16.112 -18.180  1.00  0.00    -0.295 N
ATOM      3  H2  UNL     1     -19.483  15.286 -17.599  1.00  0.00     0.187 HD
HETATM    4  C7  UNL     1     -18.809  16.453 -19.201  1.00  0.00     0.033 A
HETATM    5  C8  UNL     1     -17.618  15.700 -19.633  1.00  0.00     0.070 C
HETATM    6  C9  UNL     1     -19.318  17.635 -19.747  1.00  0.00     0.021 A
HETATM    7  C10 UNL     1     -20.418  17.894 -18.983  1.00  0.00     0.137 A
HETATM    8  N3  UNL     1     -21.274  19.000 -19.297  1.00  0.00    -0.347 N
ATOM      9  H3  UNL     1     -22.084  19.179 -18.702  1.00  0.00     0.167 HD
HETATM   10  C11 UNL     1     -21.064  19.762 -20.281  1.00  0.00    -0.007 C
HETATM   11  C12 UNL     1     -21.936  20.940 -20.638  1.00  0.00     0.053 C
HETATM   12  C13 UNL     1     -22.543  20.581 -21.983  1.00  0.00     0.006 C
HETATM   13  C14 UNL     1     -22.144  19.176 -22.386  1.00  0.00     0.001 C
HETATM   14  C15 UNL     1     -20.673  18.971 -22.506  1.00  0.00     0.011 C
HETATM   15  C16 UNL     1     -19.982  19.483 -21.234  1.00  0.00     0.044 C
HETATM   16  C17 UNL     1     -18.897  18.551 -20.784  1.00  0.00     0.001 C
HETATM   17  C18 UNL     1     -18.278  17.939 -22.008  1.00  0.00     0.015 C
HETATM   18  C19 UNL     1     -16.785  18.160 -21.930  1.00  0.00     0.001 C
HETATM   19  C20 UNL     1     -16.496  18.974 -20.717  1.00  0.00     0.001 C
HETATM   20  C21 UNL     1     -17.797  19.442 -20.179  1.00  0.00     0.015 C
ENDROOT
BRANCH   1  21
HETATM   21  C6  UNL     1     -21.657  16.925 -17.037  1.00  0.00     0.138 A
HETATM   22  S1  UNL     1     -21.587  17.344 -15.385  1.00  0.00    -0.078 SA
HETATM   23  C5  UNL     1     -23.203  17.028 -14.955  1.00  0.00     0.072 A
HETATM   24  C4  UNL     1     -23.760  16.598 -16.133  1.00  0.00     0.087 A
HETATM   25  C22 UNL     1     -22.960  16.546 -17.203  1.00  0.00     0.168 A
HETATM   26  F1  UNL     1     -23.376  16.133 -18.459  1.00  0.00    -0.202 F
BRANCH  24  27
HETATM   27  C3  UNL     1     -25.202  16.219 -16.152  1.00  0.00     0.297 C
HETATM   28  O2  UNL     1     -25.645  15.270 -15.461  1.00  0.00    -0.259 OA
BRANCH  27  29
HETATM   29  O1  UNL     1     -26.111  16.915 -16.948  1.00  0.00    -0.318 OA
BRANCH  29  30
HETATM   30  C2  UNL     1     -26.627  18.144 -16.471  1.00  0.00     0.174 C
HETATM   31  C1  UNL     1     -25.994  19.313 -17.212  1.00  0.00     0.034 C
ENDBRANCH  29  30
ENDBRANCH  27  29
ENDBRANCH  24  27
ENDBRANCH   1  21
TORSDOF 4
ENDMDL