MODEL 1
REMARK VINA RESULT: -7.995298604      0.000      0.000
REMARK  4 active torsions:
REMARK  status: ('A' for Active; 'I' for Inactive)
REMARK    1  A    between atoms: O1_2  and  C2_3
REMARK    2  A    between atoms: C4_6  and  O2_7
REMARK    3  A    between atoms: C6_9  and  N1_10
REMARK    4  A    between atoms: C10_17  and  C12_19
ROOT
HETATM    1  C2  UNL     1     -23.865  20.219 -19.353  1.00  0.00     0.108 A
HETATM    2  C3  UNL     1     -24.745  19.913 -18.304  1.00  0.00     0.081 A
HETATM    3 BR1  UNL     1     -26.417  20.797 -18.093  1.00  0.00    -0.045 Br
HETATM    4  C4  UNL     1     -24.319  18.939 -17.447  1.00  0.00     0.124 A
HETATM    5  C6  UNL     1     -23.127  18.285 -17.571  1.00  0.00     0.172 A
HETATM    6  C7  UNL     1     -22.262  18.607 -18.628  1.00  0.00     0.132 A
HETATM    7  C8  UNL     1     -22.676  19.576 -19.487  1.00  0.00     0.078 A
HETATM    8  S1  UNL     1     -21.366  19.724 -20.675  1.00  0.00    -0.059 SA
HETATM    9  C9  UNL     1     -20.328  18.466 -19.942  1.00  0.00     0.120 A
HETATM   10  C10 UNL     1     -19.137  18.015 -20.310  1.00  0.00    -0.035 C
HETATM   11  C11 UNL     1     -18.479  16.923 -19.489  1.00  0.00     0.048 C
HETATM   12  O5  UNL     1     -21.066  18.039 -18.856  1.00  0.00    -0.299 OA
ENDROOT
BRANCH  10  13
HETATM   13  C12 UNL     1     -18.384  18.480 -21.456  1.00  0.00    -0.025 C
HETATM   14  C13 UNL     1     -16.919  18.061 -21.185  1.00  0.00     0.019 C
HETATM   15  C14 UNL     1     -18.875  17.685 -22.666  1.00  0.00     0.019 C
HETATM   16  C15 UNL     1     -18.341  19.936 -21.741  1.00  0.00     0.019 C
ENDBRANCH  10  13
BRANCH   1  17
HETATM   17  O1  UNL     1     -24.237  21.203 -20.265  1.00  0.00    -0.353 OA
HETATM   18  C1  UNL     1     -24.831  20.772 -21.475  1.00  0.00     0.210 C
ENDBRANCH   1  17
BRANCH   5  19
HETATM   19  N1  UNL     1     -22.812  17.292 -16.607  1.00  0.00    -0.110 N
HETATM   20  O3  UNL     1     -23.046  16.109 -16.917  1.00  0.00    -0.532 OA
HETATM   21  O4  UNL     1     -22.276  17.540 -15.379  1.00  0.00    -0.532 OA
ENDBRANCH   5  19
BRANCH   4  22
HETATM   22  O2  UNL     1     -25.202  18.625 -16.386  1.00  0.00    -0.352 OA
HETATM   23  C5  UNL     1     -26.183  17.645 -16.653  1.00  0.00     0.210 C
ENDBRANCH   4  22
TORSDOF 4
ENDMDL