MODEL 5
REMARK VINA RESULT: -8.205390886      2.674      4.350
REMARK  7 active torsions:
REMARK  status: ('A' for Active; 'I' for Inactive)
REMARK    1  A    between atoms: C2_2  and  N2_5
REMARK    2  A    between atoms: C9_12  and  C10_13
REMARK    3  A    between atoms: C10_13  and  C11_14
REMARK    4  A    between atoms: C12_16  and  S2_17
REMARK    5  A    between atoms: C14_21  and  C15_22
REMARK    6  A    between atoms: C16_23  and  C17_24
REMARK    7  A    between atoms: C17_24  and  C18_25
ROOT
HETATM    1  C1  UNL     1     -25.205  16.251 -16.402  1.00  0.00     0.055 C
HETATM    2  C2  UNL     1     -24.729  17.383 -15.911  1.00  0.00     0.111 C
HETATM    3  C3  UNL     1     -24.100  17.346 -14.648  1.00  0.00     0.117 C
HETATM    4  N1  UNL     1     -23.592  17.297 -13.583  1.00  0.00    -0.190 NA
ENDROOT
BRANCH   2   5
HETATM    5  N2  UNL     1     -24.939  18.562 -16.666  1.00  0.00    -0.311 N
HETATM    6  C4  UNL     1     -25.921  19.491 -16.367  1.00  0.00     0.121 A
HETATM    7  C5  UNL     1     -25.881  20.520 -17.273  1.00  0.00     0.069 A
HETATM    8  C6  UNL     1     -26.752  21.659 -17.271  1.00  0.00     0.101 C
HETATM    9  C7  UNL     1     -24.857  20.193 -18.124  1.00  0.00    -0.008 A
HETATM   10  N3  UNL     1     -27.469  22.591 -17.292  1.00  0.00    -0.191 NA
HETATM   11  C8  UNL     1     -24.276  18.973 -17.745  1.00  0.00     0.054 A
HETATM   12  C20 UNL     1     -24.156  20.751 -19.311  1.00  0.00     0.047 C
HETATM   13  C9  UNL     1     -23.214  18.668 -18.711  1.00  0.00    -0.029 C
HETATM   14  C19 UNL     1     -22.829  19.981 -19.275  1.00  0.00     0.045 C
BRANCH  13  15
HETATM   15  C10 UNL     1     -22.772  17.492 -19.026  1.00  0.00     0.031 C
BRANCH  15  16
HETATM   16  C11 UNL     1     -21.585  16.936 -18.321  1.00  0.00     0.043 A
HETATM   17  S1  UNL     1     -21.500  15.899 -16.964  1.00  0.00    -0.062 SA
HETATM   18  C12 UNL     1     -19.804  15.777 -16.846  1.00  0.00     0.113 A
HETATM   19  N4  UNL     1     -19.392  16.535 -17.850  1.00  0.00    -0.337 N
HETATM   20  C14 UNL     1     -20.258  17.132 -18.609  1.00  0.00     0.105 A
ATOM     21  H4  UNL     1     -18.393  16.650 -18.026  1.00  0.00     0.168 HD
BRANCH  18  22
HETATM   22  S2  UNL     1     -18.796  14.849 -15.658  1.00  0.00    -0.109 SA
HETATM   23  C13 UNL     1     -17.450  14.005 -16.527  1.00  0.00     0.097 C
ENDBRANCH  18  22
BRANCH  20  24
HETATM   24  C15 UNL     1     -19.883  17.990 -19.744  1.00  0.00    -0.047 C
HETATM   25  C16 UNL     1     -19.554  18.696 -20.663  1.00  0.00    -0.099 C
BRANCH  25  26
HETATM   26  C17 UNL     1     -19.128  19.547 -21.781  1.00  0.00     0.109 C
BRANCH  26  27
HETATM   27  C18 UNL     1     -20.265  20.487 -22.068  1.00  0.00     0.126 C
HETATM   28 CL1  UNL     1     -21.659  19.541 -22.651  1.00  0.00    -0.130 Cl
ENDBRANCH  26  27
ENDBRANCH  25  26
ENDBRANCH  20  24
ENDBRANCH  15  16
ENDBRANCH  13  15
ENDBRANCH   2   5
TORSDOF 7
ENDMDL