MODEL 1
REMARK VINA RESULT: -8.771307752      0.000      0.000
REMARK  3 active torsions:
REMARK  status: ('A' for Active; 'I' for Inactive)
REMARK    1  A    between atoms: C2_2  and  C3_3
REMARK    2  A    between atoms: C8_10  and  C9_11
REMARK    3  A    between atoms: C20_26  and  C21_27
ROOT
HETATM    1  C3  UNL     1     -20.423  17.139 -13.900  1.00  0.00     0.066 C
HETATM    2  C4  UNL     1     -19.914  16.725 -15.038  1.00  0.00     0.215 C
HETATM    3  O1  UNL     1     -20.730  16.722 -16.151  1.00  0.00    -0.169 OA
HETATM    4  O2  UNL     1     -20.316  16.918 -17.407  1.00  0.00    -0.190 OA
HETATM    5  C5  UNL     1     -21.424  17.091 -18.229  1.00  0.00     0.230 C
HETATM    6  C6  UNL     1     -22.338  15.892 -18.233  1.00  0.00     0.075 C
HETATM    7  C7  UNL     1     -23.447  15.960 -17.227  1.00  0.00     0.012 C
HETATM    8  C8  UNL     1     -24.263  17.203 -17.312  1.00  0.00     0.015 C
HETATM    9  C10 UNL     1     -23.666  18.136 -18.341  1.00  0.00     0.012 C
HETATM   10  C11 UNL     1     -22.214  18.338 -17.929  1.00  0.00     0.075 C
HETATM   11  O3  UNL     1     -20.917  17.172 -19.546  1.00  0.00    -0.189 OA
HETATM   12  O4  UNL     1     -20.697  18.434 -19.914  1.00  0.00    -0.156 OA
HETATM   13  C12 UNL     1     -19.449  18.767 -20.418  1.00  0.00     0.289 C
HETATM   14  O5  UNL     1     -18.808  19.807 -20.117  1.00  0.00    -0.263 OA
HETATM   15  C13 UNL     1     -18.825  17.823 -21.382  1.00  0.00     0.114 C
HETATM   16  C14 UNL     1     -17.365  18.150 -21.586  1.00  0.00     0.010 C
HETATM   17  C15 UNL     1     -16.509  17.621 -20.466  1.00  0.00     0.000 C
HETATM   18  C16 UNL     1     -17.160  16.387 -19.931  1.00  0.00     0.000 C
HETATM   19  C17 UNL     1     -16.321  15.675 -18.876  1.00  0.00     0.000 C
HETATM   20  C18 UNL     1     -17.216  14.831 -17.971  1.00  0.00     0.002 C
HETATM   21  C19 UNL     1     -16.918  15.236 -16.561  1.00  0.00     0.032 C
HETATM   22  C20 UNL     1     -18.084  15.089 -15.612  1.00  0.00     0.131 C
HETATM   23  O6  UNL     1     -18.641  16.299 -15.186  1.00  0.00    -0.323 OA
ENDROOT
BRANCH   8  24
HETATM   24  C9  UNL     1     -25.726  16.938 -17.572  1.00  0.00     0.226 C
HETATM   25  F1  UNL     1     -26.414  18.080 -17.205  1.00  0.00    -0.255 F
ENDBRANCH   8  24
BRANCH   1  26
HETATM   26  C2  UNL     1     -21.809  17.576 -13.844  1.00  0.00    -0.005 C
HETATM   27  C1  UNL     1     -22.543  17.257 -12.803  1.00  0.00     0.011 C
ENDBRANCH   1  26
BRANCH  22  28
HETATM   28  C21 UNL     1     -19.039  14.028 -16.028  1.00  0.00     0.028 C
HETATM   29  C22 UNL     1     -18.701  12.769 -15.217  1.00  0.00     0.007 C
ENDBRANCH  22  28
TORSDOF 3
ENDMDL