MODEL 4
REMARK VINA RESULT: -8.361607036      2.827      5.085
REMARK  5 active torsions:
REMARK  status: ('A' for Active; 'I' for Inactive)
REMARK    1  A    between atoms: O1_2  and  C2_3
REMARK    2  A    between atoms: C5_6  and  N1_7
REMARK    3  A    between atoms: N2_9  and  N3_11
REMARK       I    between atoms: N3_11  and  C7_13
REMARK    4  A    between atoms: C7_13  and  O3_15
REMARK    5  A    between atoms: O3_15  and  C8_16
REMARK       I    between atoms: C8_16  and  N4_18
ROOT
HETATM    1  N3  UNL     1     -24.306  18.602 -17.901  1.00  0.00    -0.226 N
HETATM    2  C6  UNL     1     -25.005  19.297 -16.859  1.00  0.00     0.185 C
HETATM    3  C7  UNL     1     -23.238  19.228 -18.568  1.00  0.00     0.391 C
HETATM    4  O2  UNL     1     -22.875  20.412 -18.262  1.00  0.00    -0.236 OA
ENDROOT
BRANCH   1   5
HETATM    5  N2  UNL     1     -24.684  17.318 -18.248  1.00  0.00    -0.236 N
HETATM    6  N1  UNL     1     -24.105  16.264 -17.867  1.00  0.00    -0.286 N
ATOM      7  H1  UNL     1     -24.447  15.352 -18.169  1.00  0.00     0.188 HD
ATOM      8  H2  UNL     1     -25.493  17.215 -18.860  1.00  0.00     0.208 HD
BRANCH   6   9
HETATM    9  C5  UNL     1     -22.993  16.356 -17.028  1.00  0.00     0.051 A
HETATM   10  C4  UNL     1     -21.745  16.002 -17.473  1.00  0.00     0.034 A
HETATM   11  C3  UNL     1     -20.649  16.095 -16.640  1.00  0.00     0.041 A
HETATM   12  C2  UNL     1     -20.754  16.545 -15.333  1.00  0.00     0.090 A
HETATM   13  C19 UNL     1     -22.025  16.891 -14.926  1.00  0.00     0.069 A
HETATM   14  C18 UNL     1     -23.132  16.805 -15.740  1.00  0.00     0.057 A
HETATM   15 CL1  UNL     1     -22.202  17.468 -13.269  1.00  0.00    -0.081 Cl
BRANCH  12  16
HETATM   16  O1  UNL     1     -19.644  16.634 -14.508  1.00  0.00    -0.354 OA
HETATM   17  C1  UNL     1     -18.509  15.866 -14.829  1.00  0.00     0.210 C
ENDBRANCH  12  16
ENDBRANCH   6   9
ENDBRANCH   1   5
BRANCH   3  18
HETATM   18  O3  UNL     1     -22.553  18.568 -19.579  1.00  0.00    -0.207 OA
BRANCH  18  19
HETATM   19  C8  UNL     1     -22.025  19.180 -20.677  1.00  0.00     0.376 C
HETATM   20  O4  UNL     1     -22.798  19.499 -21.606  1.00  0.00    -0.237 OA
HETATM   21  N4  UNL     1     -20.640  19.447 -20.762  1.00  0.00    -0.293 N
HETATM   22  C9  UNL     1     -19.731  19.103 -19.726  1.00  0.00     0.010 C
HETATM   23  C16 UNL     1     -20.158  20.099 -21.983  1.00  0.00     0.092 C
HETATM   24  C10 UNL     1     -20.221  19.102 -18.330  1.00  0.00     0.068 C
HETATM   25  C11 UNL     1     -18.467  18.791 -20.018  1.00  0.00     0.007 C
HETATM   26  C12 UNL     1     -18.095  18.829 -21.449  1.00  0.00    -0.026 C
HETATM   27  C13 UNL     1     -16.613  18.810 -21.679  1.00  0.00     0.019 C
HETATM   28  C14 UNL     1     -18.697  17.608 -22.115  1.00  0.00     0.019 C
HETATM   29  C15 UNL     1     -18.666  20.105 -22.029  1.00  0.00     0.038 C
HETATM   30  C17 UNL     1     -20.716  21.525 -21.998  1.00  0.00     0.033 C
ENDBRANCH  18  19
ENDBRANCH   3  18
TORSDOF 5
ENDMDL