MODEL 2
REMARK VINA RESULT: -7.187978169      3.560      5.307
REMARK  4 active torsions:
REMARK  status: ('A' for Active; 'I' for Inactive)
REMARK    1  A    between atoms: C2_2  and  O1_3
REMARK    2  A    between atoms: O1_3  and  N1_4
REMARK    3  A    between atoms: C5_8  and  C6_9
REMARK    4  A    between atoms: C12_17  and  C14_19
ROOT
HETATM    1  N1  UNL     1     -29.585  19.201 -16.756  1.00  0.00    -0.274 N
ATOM      2  H1  UNL     1     -28.914  18.557 -16.336  1.00  0.00     0.193 HD
HETATM    3  C3  UNL     1     -29.179  20.379 -17.004  1.00  0.00     0.027 C
HETATM    4  C4  UNL     1     -30.119  21.356 -17.616  1.00  0.00     0.061 C
HETATM    5  C5  UNL     1     -29.524  22.722 -17.563  1.00  0.00    -0.001 C
HETATM    6  C9  UNL     1     -28.208  22.765 -18.263  1.00  0.00     0.059 C
HETATM    7  C10 UNL     1     -27.311  21.618 -17.850  1.00  0.00     0.004 C
HETATM    8  N2  UNL     1     -26.293  21.606 -18.633  1.00  0.00    -0.360 N
ATOM      9  H2  UNL     1     -26.267  22.331 -19.351  1.00  0.00     0.165 HD
HETATM   10  C11 UNL     1     -25.161  20.670 -18.615  1.00  0.00     0.066 C
HETATM   11  C12 UNL     1     -24.534  20.434 -19.723  1.00  0.00    -0.032 C
HETATM   12  C13 UNL     1     -25.101  21.229 -20.902  1.00  0.00     0.048 C
HETATM   13  C17 UNL     1     -24.684  20.100 -17.366  1.00  0.00     0.098 A
HETATM   14  N3  UNL     1     -23.422  19.875 -17.010  1.00  0.00    -0.258 N
ATOM     15  H3  UNL     1     -22.604  20.067 -17.589  1.00  0.00     0.195 HD
HETATM   16  O2  UNL     1     -23.391  19.373 -15.813  1.00  0.00    -0.241 OA
HETATM   17  C18 UNL     1     -24.597  19.241 -15.321  1.00  0.00     0.088 A
HETATM   18  C19 UNL     1     -25.053  18.714 -13.995  1.00  0.00     0.080 C
HETATM   19  C20 UNL     1     -25.466  19.704 -16.299  1.00  0.00     0.073 A
HETATM   20  C21 UNL     1     -26.925  19.793 -16.176  1.00  0.00     0.179 C
HETATM   21  O3  UNL     1     -27.399  18.825 -15.502  1.00  0.00    -0.291 OA
HETATM   22  C22 UNL     1     -27.782  20.832 -16.726  1.00  0.00     0.153 C
ENDROOT
BRANCH  11  23
HETATM   23  C14 UNL     1     -23.427  19.555 -20.090  1.00  0.00     0.055 C
HETATM   24  C15 UNL     1     -22.118  20.301 -20.001  1.00  0.00     0.037 C
HETATM   25  C16 UNL     1     -23.403  18.175 -19.559  1.00  0.00     0.037 C
HETATM   26 CL1  UNL     1     -23.595  19.332 -21.944  1.00  0.00    -0.115 Cl
ENDBRANCH  11  23
BRANCH   5  27
HETATM   27  C6  UNL     1     -30.442  23.784 -18.123  1.00  0.00    -0.018 C
HETATM   28  C7  UNL     1     -29.891  24.456 -19.333  1.00  0.00     0.010 C
HETATM   29  C8  UNL     1     -31.831  23.287 -18.407  1.00  0.00     0.010 C
ENDBRANCH   5  27
BRANCH   1  30
HETATM   30  O1  UNL     1     -30.824  18.723 -16.997  1.00  0.00    -0.281 OA
BRANCH  30  31
HETATM   31  C2  UNL     1     -31.696  18.386 -15.953  1.00  0.00     0.196 C
HETATM   32  C1  UNL     1     -32.708  19.485 -15.690  1.00  0.00     0.036 C
ENDBRANCH  30  31
ENDBRANCH   1  30
TORSDOF 4
ENDMDL