MODEL 2
REMARK VINA RESULT: -8.256890829      1.330      1.708
REMARK  13 active torsions:
REMARK  status: ('A' for Active; 'I' for Inactive)
REMARK    1  A    between atoms: C3_3  and  C4_4
REMARK    2  A    between atoms: C4_4  and  O1_5
REMARK    3  A    between atoms: C6_9  and  O3_10
REMARK    4  A    between atoms: O3_10  and  C7_11
REMARK    5  A    between atoms: C10_15  and  O5_16
REMARK    6  A    between atoms: C12_19  and  N1_20
REMARK       I    between atoms: N1_20  and  C13_22
REMARK    7  A    between atoms: C13_22  and  C14_24
REMARK    8  A    between atoms: C14_24  and  N2_25
REMARK    9  A    between atoms: C14_24  and  C15_29
REMARK   10  A    between atoms: C15_29  and  C16_30
REMARK   11  A    between atoms: C16_30  and  S1_31
REMARK   12  A    between atoms: C18_33  and  O7_34
REMARK   13  A    between atoms: O7_34  and  N3_35
ROOT
HETATM    1  C1  UNL     1     141.904  19.876 -74.968  1.00  0.00     0.112 C
HETATM    2  C2  UNL     1     142.938  19.492 -75.946  1.00  0.00    -0.106 C
HETATM    3  C3  UNL     1     143.799  19.168 -76.733  1.00  0.00    -0.039 C
ENDROOT
BRANCH   3   4
HETATM    4  C4  UNL     1     144.867  18.768 -77.673  1.00  0.00     0.236 C
HETATM    5  O2  UNL     1     145.266  17.466 -77.378  1.00  0.00    -0.342 OA
HETATM    6  C5  UNL     1     144.253  16.553 -77.697  1.00  0.00     0.207 C
HETATM    7  C6  UNL     1     144.090  16.441 -79.208  1.00  0.00     0.180 C
HETATM    8  C18 UNL     1     144.590  17.642 -79.915  1.00  0.00     0.192 C
HETATM    9  C19 UNL     1     144.424  18.917 -79.094  1.00  0.00     0.091 C
HETATM   10  C20 UNL     1     142.964  19.352 -79.091  1.00  0.00     0.019 C
BRANCH   4  11
HETATM   11  O1  UNL     1     145.947  19.607 -77.429  1.00  0.00    -0.355 OA
ATOM     12  H1  UNL     1     146.720  19.055 -77.399  1.00  0.00     0.214 HD
ENDBRANCH   4  11
BRANCH   7  13
HETATM   13  O3  UNL     1     144.701  15.235 -79.559  1.00  0.00    -0.349 OA
BRANCH  13  14
HETATM   14  C7  UNL     1     143.788  14.237 -79.425  1.00  0.00     0.283 C
HETATM   15  O4  UNL     1     144.163  13.501 -78.261  1.00  0.00    -0.352 OA
HETATM   16  C8  UNL     1     143.106  12.696 -77.852  1.00  0.00     0.149 C
HETATM   17  C9  UNL     1     142.113  13.521 -77.032  1.00  0.00     0.042 C
HETATM   18  C10 UNL     1     142.450  11.896 -78.915  1.00  0.00     0.148 C
HETATM   19  C11 UNL     1     142.298  12.563 -80.252  1.00  0.00     0.064 C
HETATM   20  C12 UNL     1     143.680  13.216 -80.497  1.00  0.00     0.142 C
BRANCH  18  21
HETATM   21  O5  UNL     1     141.228  11.420 -78.445  1.00  0.00    -0.393 OA
ATOM     22  H5  UNL     1     141.373  10.635 -77.931  1.00  0.00     0.210 HD
ENDBRANCH  18  21
BRANCH  20  23
HETATM   23  N1  UNL     1     143.852  13.643 -81.845  1.00  0.00    -0.350 N
HETATM   24  C13 UNL     1     145.160  13.755 -82.441  1.00  0.00     0.248 C
HETATM   25  O6  UNL     1     146.132  13.454 -81.710  1.00  0.00    -0.271 OA
ATOM     26  H1  UNL     1     143.029  13.874 -82.402  1.00  0.00     0.163 HD
BRANCH  24  27
HETATM   27  C14 UNL     1     145.405  14.193 -83.828  1.00  0.00     0.275 C
BRANCH  27  28
HETATM   28  N2  UNL     1     144.121  14.124 -84.553  1.00  0.00    -0.066 N
ATOM     29  H23 UNL     1     144.240  14.049 -85.564  1.00  0.00     0.275 HD
ATOM     30  H22 UNL     1     143.631  13.242 -84.409  1.00  0.00     0.275 HD
ATOM     31  H21 UNL     1     143.566  14.935 -84.278  1.00  0.00     0.275 HD
ENDBRANCH  27  28
BRANCH  27  32
HETATM   32  C15 UNL     1     146.395  13.280 -84.534  1.00  0.00     0.053 C
BRANCH  32  33
HETATM   33  C16 UNL     1     145.709  12.301 -85.438  1.00  0.00     0.076 C
BRANCH  33  34
HETATM   34  S1  UNL     1     145.941  10.617 -84.805  1.00  0.00    -0.173 SA
HETATM   35  C17 UNL     1     145.170  10.435 -83.190  1.00  0.00     0.089 C
ENDBRANCH  33  34
ENDBRANCH  32  33
ENDBRANCH  27  32
ENDBRANCH  24  27
ENDBRANCH  20  23
ENDBRANCH  13  14
ENDBRANCH   7  13
BRANCH   8  36
HETATM   36  O7  UNL     1     143.949  17.902 -81.131  1.00  0.00    -0.279 OA
BRANCH  36  37
HETATM   37  N3  UNL     1     143.357  16.846 -81.681  1.00  0.00    -0.311 N
ATOM     38  H32 UNL     1     142.477  16.476 -81.322  1.00  0.00     0.184 HD
ATOM     39  H31 UNL     1     143.853  16.448 -82.479  1.00  0.00     0.184 HD
ENDBRANCH  36  37
ENDBRANCH   8  36
ENDBRANCH   3   4
TORSDOF 13
ENDMDL