MODEL 3
REMARK VINA RESULT: -8.834319176      1.679      2.675
REMARK  13 active torsions:
REMARK  status: ('A' for Active; 'I' for Inactive)
REMARK    1  A    between atoms: O1_1  and  C1_3
REMARK    2  A    between atoms: C1_3  and  C2_4
REMARK    3  A    between atoms: C2_4  and  C3_5
REMARK    4  A    between atoms: C3_5  and  O2_6
REMARK    5  A    between atoms: O2_6  and  C4_7
REMARK    6  A    between atoms: C9_13  and  O4_14
REMARK    7  A    between atoms: O4_14  and  C10_15
REMARK    8  A    between atoms: C10_15  and  C11_16
REMARK    9  A    between atoms: C17_22  and  O5_23
REMARK   10  A    between atoms: C18_25  and  O6_26
REMARK   11  A    between atoms: C20_32  and  O7_33
REMARK   12  A    between atoms: C21_35  and  O8_36
REMARK   13  A    between atoms: C22_38  and  O9_39
ROOT
HETATM    1  C2  UNL     1     144.405  12.621 -82.232  1.00  0.00     0.145 C
HETATM    2  O3  UNL     1     145.154  12.909 -81.140  1.00  0.00    -0.340 OA
HETATM    3  C9  UNL     1     145.287  14.189 -80.686  1.00  0.00     0.292 C
HETATM    4  C17 UNL     1     145.527  15.080 -81.895  1.00  0.00     0.204 C
HETATM    5  C18 UNL     1     144.318  14.960 -82.776  1.00  0.00     0.194 C
HETATM    6  C19 UNL     1     144.418  13.529 -83.367  1.00  0.00     0.219 C
HETATM    7  N1  UNL     1     143.201  13.279 -84.165  1.00  0.00    -0.029 N
ATOM      8  H11 UNL     1     142.371  13.733 -83.782  1.00  0.00     0.281 HD
ATOM      9  H12 UNL     1     142.866  12.318 -84.096  1.00  0.00     0.281 HD
HETATM   10  C20 UNL     1     143.496  13.685 -85.525  1.00  0.00     0.351 C
HETATM   11  C21 UNL     1     144.906  13.163 -85.696  1.00  0.00     0.205 C
HETATM   12  C22 UNL     1     145.504  13.617 -84.344  1.00  0.00     0.193 C
ENDROOT
BRANCH   1  13
HETATM   13  C1  UNL     1     144.642  11.144 -82.492  1.00  0.00     0.207 C
BRANCH  13  14
HETATM   14  O1  UNL     1     145.970  10.756 -82.469  1.00  0.00    -0.398 OA
ATOM     15  H1  UNL     1     146.360  10.620 -83.324  1.00  0.00     0.209 HD
ENDBRANCH  13  14
ENDBRANCH   1  13
BRANCH   1  16
HETATM   16  C3  UNL     1     142.937  12.637 -81.701  1.00  0.00     0.211 C
BRANCH  16  17
HETATM   17  O2  UNL     1     142.429  11.325 -81.781  1.00  0.00    -0.383 OA
BRANCH  17  18
HETATM   18  C4  UNL     1     142.303  10.807 -80.526  1.00  0.00     0.121 C
HETATM   19  C5  UNL     1     140.984  10.110 -80.276  1.00  0.00     0.032 C
HETATM   20  C6  UNL     1     140.742  10.250 -78.787  1.00  0.00     0.002 C
HETATM   21  C7  UNL     1     141.273  11.615 -78.487  1.00  0.00     0.002 C
HETATM   22  C8  UNL     1     142.268  11.981 -79.541  1.00  0.00     0.032 C
ENDBRANCH  17  18
ENDBRANCH  16  17
ENDBRANCH   1  16
BRANCH   5  23
HETATM   23  O6  UNL     1     144.388  15.904 -83.796  1.00  0.00    -0.390 OA
ATOM     24  H6  UNL     1     143.554  15.947 -84.248  1.00  0.00     0.210 HD
ENDBRANCH   5  23
BRANCH  12  25
HETATM   25  O9  UNL     1     146.697  13.018 -84.132  1.00  0.00    -0.390 OA
ATOM     26  H9  UNL     1     147.452  13.506 -83.824  1.00  0.00     0.210 HD
ENDBRANCH  12  25
BRANCH   4  27
HETATM   27  O5  UNL     1     145.806  16.390 -81.536  1.00  0.00    -0.388 OA
ATOM     28  H5  UNL     1     145.054  16.960 -81.641  1.00  0.00     0.210 HD
ENDBRANCH   4  27
BRANCH  10  29
HETATM   29  O7  UNL     1     142.653  12.977 -86.376  1.00  0.00    -0.368 OA
ATOM     30  H7  UNL     1     143.117  12.830 -87.192  1.00  0.00     0.212 HD
ENDBRANCH  10  29
BRANCH  11  31
HETATM   31  O8  UNL     1     144.977  11.806 -85.871  1.00  0.00    -0.389 OA
ATOM     32  H8  UNL     1     144.858  11.309 -85.070  1.00  0.00     0.210 HD
ENDBRANCH  11  31
BRANCH   3  33
HETATM   33  O4  UNL     1     144.347  14.592 -79.850  1.00  0.00    -0.358 OA
BRANCH  33  34
HETATM   34  C10 UNL     1     144.455  14.909 -78.571  1.00  0.00     0.175 C
BRANCH  34  35
HETATM   35  C11 UNL     1     143.652  16.000 -77.963  1.00  0.00     0.009 C
HETATM   36  C12 UNL     1     142.831  16.637 -79.093  1.00  0.00     0.007 C
HETATM   37  C13 UNL     1     143.470  17.910 -79.591  1.00  0.00     0.000 C
HETATM   38  C14 UNL     1     143.276  19.027 -78.556  1.00  0.00     0.000 C
HETATM   39  C15 UNL     1     143.532  18.378 -77.208  1.00  0.00     0.000 C
HETATM   40  C16 UNL     1     144.419  17.151 -77.375  1.00  0.00     0.007 C
ENDBRANCH  34  35
ENDBRANCH  33  34
ENDBRANCH   3  33
TORSDOF 13
ENDMDL