MODEL 2
REMARK VINA RESULT: -8.622260085      1.290      1.661
REMARK  12 active torsions:
REMARK  status: ('A' for Active; 'I' for Inactive)
REMARK    1  A    between atoms: C3_3  and  O1_4
REMARK    2  A    between atoms: C3_3  and  C21_39
REMARK    3  A    between atoms: O1_4  and  C4_5
REMARK    4  A    between atoms: C5_7  and  O3_8
REMARK    5  A    between atoms: O3_8  and  C6_9
REMARK    6  A    between atoms: C8_11  and  O4_12
REMARK    7  A    between atoms: C9_14  and  N1_15
REMARK    8  A    between atoms: C11_20  and  N2_21
REMARK    9  A    between atoms: C12_25  and  O5_26
REMARK   10  A    between atoms: O5_26  and  C13_27
REMARK   11  A    between atoms: C19_33  and  O6_34
REMARK   12  A    between atoms: C20_36  and  O7_37
ROOT
HETATM    1  C1  UNL     1     146.667  20.228 -78.456  1.00  0.00     0.015 C
HETATM    2  C2  UNL     1     145.683  19.536 -78.417  1.00  0.00    -0.074 C
HETATM    3  C3  UNL     1     144.489  18.677 -78.351  1.00  0.00     0.302 C
ENDROOT
BRANCH   3   4
HETATM    4  O1  UNL     1     144.826  17.350 -78.404  1.00  0.00    -0.330 OA
BRANCH   4   5
HETATM    5  C4  UNL     1     144.328  16.663 -79.496  1.00  0.00     0.296 C
HETATM    6  O2  UNL     1     145.048  15.445 -79.563  1.00  0.00    -0.326 OA
HETATM    7  C5  UNL     1     144.358  14.620 -80.515  1.00  0.00     0.295 C
HETATM    8  C12 UNL     1     144.576  15.181 -81.880  1.00  0.00     0.208 C
HETATM    9  C19 UNL     1     144.046  16.617 -81.961  1.00  0.00     0.185 C
HETATM   10  C20 UNL     1     144.616  17.395 -80.788  1.00  0.00     0.204 C
BRANCH   7  11
HETATM   11  O3  UNL     1     144.848  13.362 -80.369  1.00  0.00    -0.351 OA
BRANCH  11  12
HETATM   12  C6  UNL     1     143.903  12.415 -80.015  1.00  0.00     0.157 C
HETATM   13  C7  UNL     1     142.961  12.879 -78.970  1.00  0.00     0.068 C
HETATM   14  C8  UNL     1     141.824  11.958 -78.698  1.00  0.00     0.151 C
HETATM   15  C9  UNL     1     141.119  11.614 -80.006  1.00  0.00     0.214 C
HETATM   16  C10 UNL     1     142.130  10.891 -80.857  1.00  0.00     0.070 C
HETATM   17  C11 UNL     1     143.216  11.851 -81.242  1.00  0.00     0.214 C
BRANCH  14  18
HETATM   18  O4  UNL     1     142.210  10.760 -78.107  1.00  0.00    -0.393 OA
ATOM     19  H4  UNL     1     141.945   9.992 -78.600  1.00  0.00     0.210 HD
ENDBRANCH  14  18
BRANCH  15  20
HETATM   20  N1  UNL     1     139.992  10.783 -79.686  1.00  0.00    -0.072 N
ATOM     21  H13 UNL     1     140.234  10.005 -79.074  1.00  0.00     0.274 HD
ATOM     22  H12 UNL     1     139.326  11.241 -79.065  1.00  0.00     0.274 HD
ATOM     23  H11 UNL     1     139.573  10.480 -80.566  1.00  0.00     0.274 HD
ENDBRANCH  15  20
BRANCH  17  24
HETATM   24  N2  UNL     1     144.178  11.117 -82.041  1.00  0.00    -0.072 N
ATOM     25  H23 UNL     1     144.394  10.204 -81.641  1.00  0.00     0.274 HD
ATOM     26  H22 UNL     1     143.781  10.798 -82.925  1.00  0.00     0.274 HD
ATOM     27  H21 UNL     1     145.013  11.687 -82.177  1.00  0.00     0.274 HD
ENDBRANCH  17  24
ENDBRANCH  11  12
ENDBRANCH   7  11
BRANCH   8  28
HETATM   28  O5  UNL     1     144.080  14.378 -82.837  1.00  0.00    -0.373 OA
BRANCH  28  29
HETATM   29  C13 UNL     1     144.878  14.171 -83.939  1.00  0.00     0.122 C
HETATM   30  C14 UNL     1     144.105  13.136 -84.782  1.00  0.00     0.032 C
HETATM   31  C15 UNL     1     144.790  13.079 -86.121  1.00  0.00     0.002 C
HETATM   32  C16 UNL     1     146.158  12.435 -85.849  1.00  0.00     0.000 C
HETATM   33  C17 UNL     1     146.933  13.317 -84.930  1.00  0.00     0.002 C
HETATM   34  C18 UNL     1     146.196  13.523 -83.607  1.00  0.00     0.032 C
ENDBRANCH  28  29
ENDBRANCH   8  28
BRANCH   9  35
HETATM   35  O6  UNL     1     142.678  16.672 -81.879  1.00  0.00    -0.390 OA
ATOM     36  H6  UNL     1     142.333  17.506 -82.175  1.00  0.00     0.210 HD
ENDBRANCH   9  35
BRANCH  10  37
HETATM   37  O7  UNL     1     146.011  17.400 -80.968  1.00  0.00    -0.388 OA
ATOM     38  H7  UNL     1     146.407  17.615 -80.131  1.00  0.00     0.210 HD
ENDBRANCH  10  37
ENDBRANCH   4   5
ENDBRANCH   3   4
BRANCH   3  39
HETATM   39  C21 UNL     1     143.652  19.025 -77.177  1.00  0.00     0.215 C
HETATM   40  O8  UNL     1     143.651  18.284 -76.187  1.00  0.00    -0.645 OA
HETATM   41  O9  UNL     1     142.888  20.182 -77.224  1.00  0.00    -0.645 OA
ENDBRANCH   3  39
TORSDOF 12
ENDMDL