MODEL 5
REMARK VINA RESULT: -7.203467737      2.373      7.188
REMARK  10 active torsions:
REMARK  status: ('A' for Active; 'I' for Inactive)
REMARK    1  A    between atoms: C3_3  and  C4_4
REMARK       I    between atoms: C4_4  and  N1_6
REMARK    2  A    between atoms: N1_6  and  C5_8
REMARK    3  A    between atoms: C7_10  and  O2_11
REMARK    4  A    between atoms: O2_11  and  C8_12
REMARK    5  A    between atoms: C11_16  and  O4_17
REMARK    6  A    between atoms: C12_19  and  O5_20
REMARK    7  A    between atoms: O5_20  and  C13_21
REMARK    8  A    between atoms: C16_24  and  O6_25
REMARK    9  A    between atoms: C18_29  and  O8_30
REMARK   10  A    between atoms: C19_33  and  C20_34
ROOT
HETATM    1  C8  UNL     1     144.304  17.375 -77.715  1.00  0.00     0.294 C
HETATM    2  O3  UNL     1     144.341  18.466 -76.847  1.00  0.00    -0.351 OA
HETATM    3  C9  UNL     1     144.333  19.680 -77.524  1.00  0.00     0.152 C
HETATM    4  C10 UNL     1     142.930  20.047 -77.985  1.00  0.00     0.042 C
HETATM    5  C11 UNL     1     145.352  19.789 -78.601  1.00  0.00     0.178 C
HETATM    6  C12 UNL     1     145.546  18.551 -79.415  1.00  0.00     0.189 C
HETATM    7  C18 UNL     1     145.654  17.376 -78.430  1.00  0.00     0.205 C
ENDROOT
BRANCH   1   8
HETATM    8  O2  UNL     1     144.078  16.230 -77.010  1.00  0.00    -0.329 OA
BRANCH   8   9
HETATM    9  C7  UNL     1     142.891  15.661 -77.454  1.00  0.00     0.266 C
HETATM   10  C6  UNL     1     142.925  15.294 -78.916  1.00  0.00     0.089 C
HETATM   11  C5  UNL     1     143.495  13.908 -78.882  1.00  0.00     0.129 C
HETATM   12  C19 UNL     1     143.347  13.479 -77.468  1.00  0.00     0.248 C
HETATM   13  O9  UNL     1     142.737  14.470 -76.753  1.00  0.00    -0.343 OA
BRANCH  11  14
HETATM   14  N1  UNL     1     142.758  13.015 -79.799  1.00  0.00    -0.350 N
HETATM   15  C4  UNL     1     143.460  12.401 -80.829  1.00  0.00     0.241 C
HETATM   16  O1  UNL     1     144.724  12.684 -80.879  1.00  0.00    -0.269 OA
ATOM     17  H1  UNL     1     141.758  12.854 -79.680  1.00  0.00     0.163 HD
BRANCH  15  18
HETATM   18  C3  UNL     1     142.977  11.519 -81.818  1.00  0.00     0.070 C
HETATM   19  C2  UNL     1     143.610  10.900 -82.744  1.00  0.00    -0.026 C
HETATM   20  C1  UNL     1     145.034  10.939 -83.036  1.00  0.00     0.036 C
ENDBRANCH  15  18
ENDBRANCH  11  14
BRANCH  12  21
HETATM   21  C20 UNL     1     144.634  13.056 -76.839  1.00  0.00     0.205 C
HETATM   22  O10 UNL     1     144.727  11.971 -76.181  1.00  0.00    -0.646 OA
HETATM   23  O11 UNL     1     145.788  13.816 -76.937  1.00  0.00    -0.646 OA
ENDBRANCH  12  21
ENDBRANCH   8   9
ENDBRANCH   1   8
BRANCH   7  24
HETATM   24  O8  UNL     1     146.653  17.710 -77.532  1.00  0.00    -0.388 OA
ATOM     25  H8  UNL     1     147.078  16.918 -77.223  1.00  0.00     0.210 HD
ENDBRANCH   7  24
BRANCH   6  26
HETATM   26  O5  UNL     1     144.382  18.311 -80.147  1.00  0.00    -0.351 OA
BRANCH  26  27
HETATM   27  C13 UNL     1     144.625  18.074 -81.487  1.00  0.00     0.260 C
HETATM   28  C14 UNL     1     143.355  17.523 -82.088  1.00  0.00     0.063 C
HETATM   29  C15 UNL     1     143.608  16.715 -83.342  1.00  0.00     0.038 C
HETATM   30  C16 UNL     1     144.635  15.665 -83.069  1.00  0.00     0.142 C
HETATM   31  C17 UNL     1     145.205  15.848 -81.685  1.00  0.00     0.202 C
HETATM   32  O7  UNL     1     145.684  17.145 -81.607  1.00  0.00    -0.359 OA
BRANCH  30  33
HETATM   33  O6  UNL     1     144.139  14.391 -83.280  1.00  0.00    -0.393 OA
ATOM     34  H6  UNL     1     144.595  13.945 -83.983  1.00  0.00     0.210 HD
ENDBRANCH  30  33
ENDBRANCH  26  27
ENDBRANCH   6  26
BRANCH   5  35
HETATM   35  O4  UNL     1     146.584  20.091 -77.999  1.00  0.00    -0.390 OA
ATOM     36  H4  UNL     1     147.272  19.750 -78.558  1.00  0.00     0.210 HD
ENDBRANCH   5  35
TORSDOF 10
ENDMDL