MODEL 4
REMARK VINA RESULT: -9.293611877      3.225      7.689
REMARK  12 active torsions:
REMARK  status: ('A' for Active; 'I' for Inactive)
REMARK    1  A    between atoms: C2_2  and  O1_3
REMARK    2  A    between atoms: C4_6  and  O2_7
REMARK    3  A    between atoms: O2_7  and  C5_8
REMARK    4  A    between atoms: C5_8  and  C6_10
REMARK    5  A    between atoms: C9_13  and  N1_14
REMARK    6  A    between atoms: C11_19  and  O4_20
REMARK    7  A    between atoms: C13_23  and  O5_24
REMARK    8  A    between atoms: C14_26  and  O6_27
REMARK    9  A    between atoms: O6_27  and  S1_28
REMARK   10  A    between atoms: C15_31  and  N4_32
REMARK   11  A    between atoms: N4_32  and  N5_34
REMARK   12  A    between atoms: N5_34  and  N6_35
ROOT
HETATM    1  C1  UNL     1     144.535  18.487 -77.937  1.00  0.00     0.048 C
HETATM    2  C2  UNL     1     145.194  17.247 -78.458  1.00  0.00     0.082 C
HETATM    3  C3  UNL     1     145.104  17.062 -79.926  1.00  0.00     0.075 C
HETATM    4  C4  UNL     1     143.642  17.035 -80.320  1.00  0.00     0.166 C
HETATM    5  C13 UNL     1     142.784  16.237 -79.418  1.00  0.00     0.180 C
HETATM    6  C14 UNL     1     143.451  15.437 -78.371  1.00  0.00     0.202 C
HETATM    7  C15 UNL     1     144.690  16.005 -77.776  1.00  0.00     0.181 C
ENDROOT
BRANCH   4   8
HETATM    8  O2  UNL     1     143.596  16.600 -81.672  1.00  0.00    -0.313 OA
BRANCH   8   9
HETATM    9  C5  UNL     1     144.704  16.248 -82.408  1.00  0.00     0.263 C
HETATM   10  O3  UNL     1     145.454  17.172 -82.817  1.00  0.00    -0.265 OA
BRANCH   9  11
HETATM   11  C6  UNL     1     145.068  14.856 -82.747  1.00  0.00     0.088 C
HETATM   12  C7  UNL     1     144.460  14.521 -84.090  1.00  0.00     0.017 C
HETATM   13  C8  UNL     1     144.844  13.117 -84.448  1.00  0.00     0.028 C
HETATM   14  C9  UNL     1     144.387  12.117 -83.425  1.00  0.00     0.112 C
HETATM   15  C11 UNL     1     143.884  12.720 -82.162  1.00  0.00     0.141 C
HETATM   16  C12 UNL     1     144.665  13.901 -81.678  1.00  0.00     0.048 C
BRANCH  14  17
HETATM   17  N1  UNL     1     145.475  11.226 -83.125  1.00  0.00    -0.360 N
HETATM   18  C10 UNL     1     145.679  10.197 -83.874  1.00  0.00     0.197 C
HETATM   19  N2  UNL     1     144.853   9.919 -84.995  1.00  0.00    -0.067 NA
HETATM   20  N3  UNL     1     146.746   9.319 -83.584  1.00  0.00    -0.067 NA
ATOM     21  H1  UNL     1     146.080  11.406 -82.324  1.00  0.00     0.162 HD
ENDBRANCH  14  17
BRANCH  15  22
HETATM   22  O4  UNL     1     142.523  13.050 -82.210  1.00  0.00    -0.393 OA
ATOM     23  H4  UNL     1     142.147  13.215 -81.353  1.00  0.00     0.210 HD
ENDBRANCH  15  22
ENDBRANCH   9  11
ENDBRANCH   8   9
ENDBRANCH   4   8
BRANCH   5  24
HETATM   24  O5  UNL     1     141.946  15.367 -80.156  1.00  0.00    -0.390 OA
ATOM     25  H5  UNL     1     141.251  15.020 -79.609  1.00  0.00     0.210 HD
ENDBRANCH   5  24
BRANCH   2  26
HETATM   26  O1  UNL     1     146.567  17.351 -78.130  1.00  0.00    -0.388 OA
ATOM     27  H1  UNL     1     146.844  16.488 -77.848  1.00  0.00     0.210 HD
ENDBRANCH   2  26
BRANCH   6  28
HETATM   28  O6  UNL     1     142.535  15.223 -77.329  1.00  0.00    -0.252 OA
BRANCH  28  29
HETATM   29  S1  UNL     1     142.246  13.597 -77.031  1.00  0.00     0.401 S
HETATM   30  O7  UNL     1     141.924  13.418 -75.552  1.00  0.00    -0.179 OA
HETATM   31  O8  UNL     1     143.549  12.600 -77.433  1.00  0.00    -0.179 OA
ENDBRANCH  28  29
ENDBRANCH   6  28
BRANCH   7  32
HETATM   32  N4  UNL     1     145.792  15.031 -77.834  1.00  0.00    -0.242 N
ATOM     33  H4  UNL     1     146.384  15.022 -78.664  1.00  0.00     0.197 HD
BRANCH  32  34
HETATM   34  N5  UNL     1     146.030  14.241 -76.949  1.00  0.00    -0.248 NA
BRANCH  34  35
HETATM   35  N6  UNL     1     146.309  13.349 -76.154  1.00  0.00    -0.261 N
ATOM     36  H62 UNL     1     147.027  13.120 -76.841  1.00  0.00     0.193 HD
ATOM     37  H61 UNL     1     146.454  12.649 -75.426  1.00  0.00     0.193 HD
ENDBRANCH  34  35
ENDBRANCH  32  34
ENDBRANCH   7  32
TORSDOF 12
ENDMDL