MODEL 1
REMARK VINA RESULT: -8.177504017      0.000      0.000
REMARK  13 active torsions:
REMARK  status: ('A' for Active; 'I' for Inactive)
REMARK    1  A    between atoms: C2_2  and  C3_3
REMARK    2  A    between atoms: C3_3  and  O1_4
REMARK    3  A    between atoms: O1_4  and  C4_5
REMARK    4  A    between atoms: C5_6  and  C6_7
REMARK    5  A    between atoms: C9_12  and  O4_13
REMARK    6  A    between atoms: O4_13  and  C10_14
REMARK    7  A    between atoms: C13_17  and  O5_18
REMARK    8  A    between atoms: O5_18  and  C14_19
REMARK    9  A    between atoms: C16_22  and  O7_23
REMARK   10  A    between atoms: C17_25  and  O8_26
REMARK   11  A    between atoms: C18_28  and  O9_29
REMARK   12  A    between atoms: C19_31  and  N1_32
REMARK   13  A    between atoms: C21_37  and  O10_38
ROOT
HETATM    1  C10 UNL     1     142.447  13.896 -80.279  1.00  0.00     0.124 C
HETATM    2  C11 UNL     1     142.554  15.383 -80.470  1.00  0.00     0.034 C
HETATM    3  C12 UNL     1     142.934  16.137 -79.234  1.00  0.00     0.036 C
HETATM    4  C13 UNL     1     144.140  15.548 -78.542  1.00  0.00     0.155 C
HETATM    5  C19 UNL     1     143.698  14.173 -78.097  1.00  0.00     0.214 C
HETATM    6  C20 UNL     1     143.201  13.302 -79.182  1.00  0.00     0.067 C
ENDROOT
BRANCH   1   7
HETATM    7  O4  UNL     1     142.737  13.330 -81.514  1.00  0.00    -0.378 OA
BRANCH   7   8
HETATM    8  C9  UNL     1     143.822  12.524 -81.563  1.00  0.00     0.153 C
HETATM    9  C8  UNL     1     143.501  11.104 -82.004  1.00  0.00     0.035 C
HETATM   10  C7  UNL     1     144.777  10.507 -82.554  1.00  0.00     0.020 C
HETATM   11  C5  UNL     1     145.024  11.146 -83.888  1.00  0.00     0.118 C
HETATM   12  C4  UNL     1     145.040  12.644 -83.735  1.00  0.00     0.167 C
HETATM   13  C21 UNL     1     144.995  13.074 -82.326  1.00  0.00     0.176 C
BRANCH  11  14
HETATM   14  C6  UNL     1     146.287  10.595 -84.427  1.00  0.00     0.179 C
HETATM   15  O2  UNL     1     147.339  11.277 -84.350  1.00  0.00    -0.648 OA
HETATM   16  O3  UNL     1     146.372   9.346 -85.022  1.00  0.00    -0.648 OA
ENDBRANCH  11  14
BRANCH  12  17
HETATM   17  O1  UNL     1     144.000  13.238 -84.454  1.00  0.00    -0.379 OA
BRANCH  17  18
HETATM   18  C3  UNL     1     144.463  13.957 -85.538  1.00  0.00     0.195 C
BRANCH  18  19
HETATM   19  C2  UNL     1     144.429  15.412 -85.424  1.00  0.00    -0.011 C
HETATM   20  C1  UNL     1     144.108  16.211 -86.463  1.00  0.00     0.009 C
ENDBRANCH  18  19
ENDBRANCH  17  18
ENDBRANCH  12  17
BRANCH  13  21
HETATM   21  O10 UNL     1     145.164  14.426 -82.214  1.00  0.00    -0.390 OA
ATOM     22  H10 UNL     1     145.295  14.683 -81.309  1.00  0.00     0.210 HD
ENDBRANCH  13  21
ENDBRANCH   7   8
ENDBRANCH   1   7
BRANCH   5  23
HETATM   23  N1  UNL     1     142.642  14.379 -77.108  1.00  0.00    -0.072 N
ATOM     24  H13 UNL     1     142.996  14.581 -76.174  1.00  0.00     0.274 HD
ATOM     25  H12 UNL     1     142.129  15.252 -77.240  1.00  0.00     0.274 HD
ATOM     26  H11 UNL     1     142.047  13.551 -77.145  1.00  0.00     0.274 HD
ENDBRANCH   5  23
BRANCH   4  27
HETATM   27  O5  UNL     1     144.319  16.287 -77.363  1.00  0.00    -0.351 OA
BRANCH  27  28
HETATM   28  C14 UNL     1     143.818  17.581 -77.495  1.00  0.00     0.291 C
HETATM   29  O6  UNL     1     143.669  18.108 -76.231  1.00  0.00    -0.356 OA
HETATM   30  C15 UNL     1     143.138  19.388 -76.228  1.00  0.00     0.205 C
HETATM   31  C16 UNL     1     143.486  20.178 -77.448  1.00  0.00     0.173 C
HETATM   32  C17 UNL     1     144.874  19.820 -77.930  1.00  0.00     0.182 C
HETATM   33  C18 UNL     1     144.881  18.358 -78.282  1.00  0.00     0.204 C
BRANCH  31  34
HETATM   34  O7  UNL     1     142.535  20.041 -78.455  1.00  0.00    -0.391 OA
ATOM     35  H7  UNL     1     141.656  20.231 -78.149  1.00  0.00     0.210 HD
ENDBRANCH  31  34
BRANCH  32  36
HETATM   36  O8  UNL     1     145.194  20.537 -79.076  1.00  0.00    -0.390 OA
ATOM     37  H8  UNL     1     146.045  20.950 -78.987  1.00  0.00     0.210 HD
ENDBRANCH  32  36
BRANCH  33  38
HETATM   38  O9  UNL     1     146.125  17.834 -77.926  1.00  0.00    -0.388 OA
ATOM     39  H9  UNL     1     146.788  18.402 -78.300  1.00  0.00     0.210 HD
ENDBRANCH  33  38
ENDBRANCH  27  28
ENDBRANCH   4  27
TORSDOF 13
ENDMDL