MODEL 5
REMARK VINA RESULT: -7.860613228      1.993      7.426
REMARK  13 active torsions:
REMARK  status: ('A' for Active; 'I' for Inactive)
REMARK    1  A    between atoms: N1_1  and  C1_5
REMARK    2  A    between atoms: C1_5  and  C2_6
REMARK    3  A    between atoms: C2_6  and  C3_7
REMARK    4  A    between atoms: C6_10  and  O1_11
REMARK    5  A    between atoms: C8_14  and  O2_15
REMARK    6  A    between atoms: O2_15  and  C9_16
REMARK    7  A    between atoms: C10_17  and  O3_18
REMARK    8  A    between atoms: O3_18  and  C11_19
REMARK    9  A    between atoms: C14_24  and  O4_25
REMARK   10  A    between atoms: O4_25  and  C15_26
REMARK   11  A    between atoms: C19_31  and  O6_32
REMARK   12  A    between atoms: C20_34  and  O7_35
REMARK   13  A    between atoms: C21_37  and  O8_38
ROOT
HETATM    1  C9  UNL     1     144.288  15.226 -79.946  1.00  0.00     0.202 C
HETATM    2  C10 UNL     1     144.256  13.720 -79.822  1.00  0.00     0.254 C
HETATM    3  N2  UNL     1     144.239  13.035 -81.092  1.00  0.00    -0.343 N
ATOM      4  H2  UNL     1     143.752  12.140 -81.091  1.00  0.00     0.164 HD
HETATM    5  C14 UNL     1     144.744  13.378 -82.224  1.00  0.00     0.150 C
HETATM    6  C19 UNL     1     145.500  14.620 -82.507  1.00  0.00     0.223 C
HETATM    7  C20 UNL     1     144.663  15.857 -82.332  1.00  0.00     0.186 C
HETATM    8  C21 UNL     1     143.655  15.738 -81.214  1.00  0.00     0.183 C
ENDROOT
BRANCH   1   9
HETATM    9  O2  UNL     1     143.814  15.762 -78.806  1.00  0.00    -0.373 OA
BRANCH   9  10
HETATM   10  C8  UNL     1     143.424  17.044 -78.767  1.00  0.00     0.130 C
HETATM   11  C7  UNL     1     144.306  17.996 -79.621  1.00  0.00     0.057 A
HETATM   12  C6  UNL     1     145.539  18.555 -79.178  1.00  0.00     0.069 A
HETATM   13  C23 UNL     1     144.138  19.156 -78.921  1.00  0.00     0.038 A
HETATM   14  C5  UNL     1     146.080  19.720 -78.404  1.00  0.00     0.039 C
HETATM   15  C4  UNL     1     145.434  19.415 -77.039  1.00  0.00     0.013 C
HETATM   16  C3  UNL     1     144.052  18.989 -77.427  1.00  0.00    -0.029 C
HETATM   17  C22 UNL     1     143.691  17.564 -77.334  1.00  0.00     0.042 C
BRANCH  12  18
HETATM   18  O1  UNL     1     146.075  17.473 -78.432  1.00  0.00    -0.389 OA
ATOM     19  H1  UNL     1     146.935  17.395 -78.828  1.00  0.00     0.210 HD
ENDBRANCH  12  18
BRANCH  16  20
HETATM   20  C2  UNL     1     142.983  19.930 -76.949  1.00  0.00     0.037 C
BRANCH  20  21
HETATM   21  C1  UNL     1     142.588  19.789 -75.522  1.00  0.00     0.230 C
BRANCH  21  22
HETATM   22  N1  UNL     1     141.351  20.403 -75.148  1.00  0.00    -0.079 N
ATOM     23  H13 UNL     1     140.604  20.081 -75.763  1.00  0.00     0.274 HD
ATOM     24  H12 UNL     1     141.032  20.022 -74.257  1.00  0.00     0.274 HD
ATOM     25  H11 UNL     1     141.349  21.423 -75.108  1.00  0.00     0.274 HD
ENDBRANCH  21  22
ENDBRANCH  20  21
ENDBRANCH  16  20
ENDBRANCH   9  10
ENDBRANCH   1   9
BRANCH   2  26
HETATM   26  O3  UNL     1     143.146  13.269 -79.092  1.00  0.00    -0.359 OA
BRANCH  26  27
HETATM   27  C11 UNL     1     142.619  12.085 -79.595  1.00  0.00     0.124 A
HETATM   28  C12 UNL     1     142.624  10.849 -78.807  1.00  0.00     0.034 A
HETATM   29  C13 UNL     1     141.320  11.567 -79.050  1.00  0.00     0.034 A
ENDBRANCH  26  27
ENDBRANCH   2  26
BRANCH   8  30
HETATM   30  O8  UNL     1     142.601  14.975 -81.658  1.00  0.00    -0.390 OA
ATOM     31  H8  UNL     1     142.555  14.114 -81.260  1.00  0.00     0.210 HD
ENDBRANCH   8  30
BRANCH   7  32
HETATM   32  O7  UNL     1     143.941  16.038 -83.512  1.00  0.00    -0.390 OA
ATOM     33  H7  UNL     1     144.262  16.835 -83.919  1.00  0.00     0.210 HD
ENDBRANCH   7  32
BRANCH   5  34
HETATM   34  O4  UNL     1     144.554  12.484 -83.283  1.00  0.00    -0.306 OA
BRANCH  34  35
HETATM   35  C15 UNL     1     145.720  11.772 -83.713  1.00  0.00     0.267 C
HETATM   36  C16 UNL     1     145.443  11.306 -85.123  1.00  0.00     0.063 C
HETATM   37  C17 UNL     1     146.009   9.902 -85.088  1.00  0.00     0.031 C
HETATM   38  C18 UNL     1     145.786   9.532 -83.644  1.00  0.00     0.171 C
HETATM   39  O5  UNL     1     145.853  10.683 -82.901  1.00  0.00    -0.361 OA
ENDBRANCH  34  35
ENDBRANCH   5  34
BRANCH   6  40
HETATM   40  O6  UNL     1     146.066  14.531 -83.761  1.00  0.00    -0.385 OA
ATOM     41  H6  UNL     1     145.980  15.367 -84.204  1.00  0.00     0.210 HD
ENDBRANCH   6  40
TORSDOF 13
ENDMDL