MODEL 2
REMARK VINA RESULT: -7.665536045      2.211      5.436
REMARK  13 active torsions:
REMARK  status: ('A' for Active; 'I' for Inactive)
REMARK    1  A    between atoms: C2_2  and  C3_3
REMARK    2  A    between atoms: C3_3  and  O1_4
REMARK    3  A    between atoms: C6_7  and  O2_9
REMARK    4  A    between atoms: C8_11  and  O3_12
REMARK    5  A    between atoms: C9_14  and  O4_15
REMARK    6  A    between atoms: O4_15  and  C10_16
REMARK    7  A    between atoms: C11_17  and  O5_18
REMARK    8  A    between atoms: O5_18  and  C12_19
REMARK    9  A    between atoms: C18_26  and  C19_27
REMARK   10  A    between atoms: C19_27  and  O7_28
REMARK   11  A    between atoms: C20_30  and  O8_31
REMARK   12  A    between atoms: C21_33  and  N1_34
REMARK   13  A    between atoms: C22_38  and  O9_39
ROOT
HETATM    1  C10 UNL     1     144.227  13.210 -82.592  1.00  0.00     0.210 C
HETATM    2  C11 UNL     1     143.906  11.811 -82.133  1.00  0.00     0.291 C
HETATM    3  O6  UNL     1     144.382  10.901 -83.045  1.00  0.00    -0.349 OA
HETATM    4  C18 UNL     1     145.600  11.216 -83.584  1.00  0.00     0.179 C
HETATM    5  C20 UNL     1     145.397  12.322 -84.608  1.00  0.00     0.182 C
HETATM    6  C21 UNL     1     144.382  13.325 -84.100  1.00  0.00     0.248 C
ENDROOT
BRANCH   1   7
HETATM    7  O4  UNL     1     145.384  13.704 -81.999  1.00  0.00    -0.368 OA
BRANCH   7   8
HETATM    8  C9  UNL     1     145.161  14.915 -81.301  1.00  0.00     0.185 C
HETATM    9  C8  UNL     1     144.401  15.788 -82.233  1.00  0.00     0.183 C
HETATM   10  C6  UNL     1     143.650  16.904 -81.573  1.00  0.00     0.086 C
HETATM   11  C5  UNL     1     142.757  16.336 -80.526  1.00  0.00     0.085 C
HETATM   12  C7  UNL     1     144.580  17.981 -81.139  1.00  0.00     0.049 C
HETATM   13  C3  UNL     1     143.540  15.652 -79.481  1.00  0.00     0.108 C
HETATM   14  C22 UNL     1     144.523  14.635 -80.000  1.00  0.00     0.188 C
BRANCH   9  15
HETATM   15  O3  UNL     1     145.329  16.388 -83.109  1.00  0.00    -0.390 OA
ATOM     16  H3  UNL     1     145.082  17.303 -83.182  1.00  0.00     0.210 HD
ENDBRANCH   9  15
BRANCH  10  17
HETATM   17  O2  UNL     1     142.808  17.454 -82.569  1.00  0.00    -0.387 OA
ATOM     18  H2  UNL     1     143.347  18.038 -83.089  1.00  0.00     0.210 HD
ENDBRANCH  10  17
BRANCH  13  19
HETATM   19  C2  UNL     1     142.603  14.869 -78.592  1.00  0.00     0.003 C
HETATM   20  C1  UNL     1     143.103  14.355 -77.485  1.00  0.00     0.010 C
ENDBRANCH  13  19
BRANCH  13  21
HETATM   21  O1  UNL     1     144.199  16.553 -78.675  1.00  0.00    -0.378 OA
HETATM   22  C4  UNL     1     143.439  17.464 -78.002  1.00  0.00     0.203 C
ENDBRANCH  13  21
BRANCH  14  23
HETATM   23  O9  UNL     1     145.479  14.495 -78.963  1.00  0.00    -0.390 OA
ATOM     24  H9  UNL     1     146.131  15.161 -79.144  1.00  0.00     0.210 HD
ENDBRANCH  14  23
ENDBRANCH   7   8
ENDBRANCH   1   7
BRANCH   2  25
HETATM   25  O5  UNL     1     142.522  11.702 -82.025  1.00  0.00    -0.353 OA
BRANCH  25  26
HETATM   26  C12 UNL     1     142.029  11.759 -80.744  1.00  0.00     0.124 C
HETATM   27  C13 UNL     1     142.998  11.204 -79.718  1.00  0.00     0.032 C
HETATM   28  C14 UNL     1     142.251  11.195 -78.391  1.00  0.00     0.002 C
HETATM   29  C15 UNL     1     141.145  10.176 -78.377  1.00  0.00     0.000 C
HETATM   30  C16 UNL     1     140.806   9.828 -79.789  1.00  0.00     0.002 C
HETATM   31  C17 UNL     1     140.682  11.110 -80.592  1.00  0.00     0.032 C
ENDBRANCH  25  26
ENDBRANCH   2  25
BRANCH   6  32
HETATM   32  N1  UNL     1     143.126  13.167 -84.799  1.00  0.00    -0.070 N
ATOM     33  H13 UNL     1     142.744  12.232 -84.661  1.00  0.00     0.274 HD
ATOM     34  H12 UNL     1     142.388  13.713 -84.356  1.00  0.00     0.274 HD
ATOM     35  H11 UNL     1     143.201  13.389 -85.792  1.00  0.00     0.274 HD
ENDBRANCH   6  32
BRANCH   5  36
HETATM   36  O8  UNL     1     144.884  11.743 -85.758  1.00  0.00    -0.391 OA
ATOM     37  H8  UNL     1     144.139  11.211 -85.506  1.00  0.00     0.210 HD
ENDBRANCH   5  36
BRANCH   4  38
HETATM   38  C19 UNL     1     146.146   9.954 -84.252  1.00  0.00     0.198 C
BRANCH  38  39
HETATM   39  O7  UNL     1     145.137   9.104 -84.642  1.00  0.00    -0.398 OA
ATOM     40  H7  UNL     1     144.575   9.501 -85.297  1.00  0.00     0.209 HD
ENDBRANCH  38  39
ENDBRANCH   4  38
TORSDOF 13
ENDMDL