MODEL 1
REMARK VINA RESULT: -8.252523742      0.000      0.000
REMARK  13 active torsions:
REMARK  status: ('A' for Active; 'I' for Inactive)
REMARK    1  A    between atoms: C2_2  and  C3_3
REMARK    2  A    between atoms: C2_2  and  O1_5
REMARK    3  A    between atoms: O1_5  and  C5_6
REMARK    4  A    between atoms: C7_8  and  S1_9
REMARK    5  A    between atoms: S1_9  and  C8_10
REMARK    6  A    between atoms: C9_12  and  O3_13
REMARK    7  A    between atoms: C11_15  and  N1_16
REMARK    8  A    between atoms: N1_16  and  C12_18
REMARK    9  A    between atoms: C13_21  and  O4_22
REMARK   10  A    between atoms: C14_24  and  O5_25
REMARK   11  A    between atoms: C15_28  and  C16_29
REMARK   12  A    between atoms: C16_29  and  O7_30
REMARK   13  A    between atoms: C17_32  and  O8_33
ROOT
HETATM    1  C8  UNL     1     143.165  13.991 -80.412  1.00  0.00     0.219 C
HETATM    2  O2  UNL     1     143.869  15.124 -80.664  1.00  0.00    -0.341 OA
HETATM    3  C9  UNL     1     144.628  15.551 -79.559  1.00  0.00     0.285 C
HETATM    4  C11 UNL     1     143.619  16.129 -78.588  1.00  0.00     0.170 C
HETATM    5  C13 UNL     1     142.615  15.082 -78.219  1.00  0.00     0.177 C
HETATM    6  C14 UNL     1     142.711  13.807 -79.002  1.00  0.00     0.188 C
ENDROOT
BRANCH   1   7
HETATM    7  S1  UNL     1     144.127  12.564 -80.932  1.00  0.00    -0.103 SA
BRANCH   7   8
HETATM    8  C7  UNL     1     145.519  13.006 -82.011  1.00  0.00     0.188 C
HETATM    9  C6  UNL     1     145.123  13.886 -83.134  1.00  0.00     0.078 C
HETATM   10  C5  UNL     1     145.927  13.540 -84.368  1.00  0.00     0.163 C
HETATM   11  C17 UNL     1     145.580  12.118 -84.770  1.00  0.00     0.178 C
HETATM   12  C15 UNL     1     145.467  11.242 -83.534  1.00  0.00     0.177 C
HETATM   13  O6  UNL     1     146.074  11.838 -82.444  1.00  0.00    -0.365 OA
BRANCH  10  14
HETATM   14  O1  UNL     1     145.613  14.400 -85.437  1.00  0.00    -0.348 OA
BRANCH  14  15
HETATM   15  C2  UNL     1     144.356  14.847 -85.765  1.00  0.00     0.037 C
HETATM   16  C1  UNL     1     143.397  13.978 -86.019  1.00  0.00     0.046 C
BRANCH  15  17
HETATM   17  C3  UNL     1     144.076  16.290 -85.836  1.00  0.00     0.059 C
HETATM   18  C4  UNL     1     144.110  16.871 -87.210  1.00  0.00     0.012 C
ENDBRANCH  15  17
ENDBRANCH  14  15
ENDBRANCH  10  14
BRANCH  11  19
HETATM   19  O8  UNL     1     146.542  11.575 -85.593  1.00  0.00    -0.390 OA
ATOM     20  H8  UNL     1     146.154  11.052 -86.286  1.00  0.00     0.210 HD
ENDBRANCH  11  19
BRANCH  12  21
HETATM   21  C16 UNL     1     146.020   9.858 -83.785  1.00  0.00     0.198 C
BRANCH  21  22
HETATM   22  O7  UNL     1     145.276   9.266 -84.795  1.00  0.00    -0.398 OA
ATOM     23  H7  UNL     1     144.358   9.309 -84.555  1.00  0.00     0.209 HD
ENDBRANCH  21  22
ENDBRANCH  12  21
ENDBRANCH   7   8
ENDBRANCH   1   7
BRANCH   6  24
HETATM   24  O5  UNL     1     143.481  12.819 -78.390  1.00  0.00    -0.389 OA
ATOM     25  H5  UNL     1     143.821  13.146 -77.566  1.00  0.00     0.210 HD
ENDBRANCH   6  24
BRANCH   3  26
HETATM   26  O3  UNL     1     145.454  16.601 -79.959  1.00  0.00    -0.364 OA
HETATM   27  C10 UNL     1     145.175  17.149 -81.175  1.00  0.00     0.204 C
ENDBRANCH   3  26
BRANCH   5  28
HETATM   28  O4  UNL     1     142.585  14.757 -76.867  1.00  0.00    -0.391 OA
ATOM     29  H4  UNL     1     141.716  14.608 -76.514  1.00  0.00     0.210 HD
ENDBRANCH   5  28
BRANCH   4  30
HETATM   30  N1  UNL     1     144.166  16.895 -77.530  1.00  0.00    -0.357 N
ATOM     31  H1  UNL     1     144.788  16.388 -76.902  1.00  0.00     0.162 HD
BRANCH  30  32
HETATM   32  C12 UNL     1     143.976  18.256 -77.219  1.00  0.00     0.181 C
HETATM   33  N2  UNL     1     143.214  18.651 -76.094  1.00  0.00    -0.070 NA
HETATM   34  S2  UNL     1     144.614  19.457 -78.111  1.00  0.00    -0.044 SA
ENDBRANCH  30  32
ENDBRANCH   4  30
TORSDOF 13
ENDMDL