MODEL 1
REMARK VINA RESULT: -7.167285837      0.000      0.000
REMARK  8 active torsions:
REMARK  status: ('A' for Active; 'I' for Inactive)
REMARK    1  A    between atoms: C2_2  and  C3_4
REMARK    2  A    between atoms: C3_4  and  C4_5
REMARK    3  A    between atoms: N1_6  and  N2_8
REMARK       I    between atoms: N2_8  and  C5_10
REMARK    4  A    between atoms: C5_10  and  C6_12
REMARK       I    between atoms: N6_16  and  C7_17
REMARK    5  A    between atoms: C7_17  and  C8_19
REMARK    6  A    between atoms: C12_23  and  C13_24
REMARK    7  A    between atoms: N7_28  and  N8_30
REMARK       I    between atoms: N8_30  and  C17_32
REMARK    8  A    between atoms: C17_32  and  C18_34
ROOT
HETATM    1  N2  UNL     1     143.581  16.172 -80.049  1.00  0.00    -0.267 N
ATOM      2  H2  UNL     1     142.571  16.198 -79.915  1.00  0.00     0.190 HD
HETATM    3  C5  UNL     1     144.164  15.228 -80.894  1.00  0.00     0.277 C
HETATM    4  O2  UNL     1     145.433  15.227 -81.033  1.00  0.00    -0.268 OA
ENDROOT
BRANCH   1   5
HETATM    5  N1  UNL     1     144.423  17.095 -79.381  1.00  0.00    -0.307 N
HETATM    6  C4  UNL     1     143.960  18.091 -78.720  1.00  0.00     0.141 C
ATOM      7  H1  UNL     1     145.434  16.962 -79.427  1.00  0.00     0.186 HD
BRANCH   6   8
HETATM    8  C3  UNL     1     144.861  19.005 -78.055  1.00  0.00     0.110 C
HETATM    9  N7  UNL     1     144.367  19.964 -77.354  1.00  0.00    -0.293 N
ATOM     10  H7  UNL     1     145.019  20.597 -76.891  1.00  0.00     0.187 HD
BRANCH   8  11
HETATM   11  C2  UNL     1     146.303  18.868 -78.154  1.00  0.00     0.174 C
HETATM   12  C1  UNL     1     147.225  20.007 -78.215  1.00  0.00     0.098 C
HETATM   13  O1  UNL     1     146.796  17.689 -78.190  1.00  0.00    -0.291 OA
ENDBRANCH   8  11
BRANCH   9  14
HETATM   14  N8  UNL     1     143.035  20.192 -77.187  1.00  0.00    -0.260 N
HETATM   15  C17 UNL     1     142.486  20.263 -75.872  1.00  0.00     0.336 C
HETATM   16  O4  UNL     1     143.239  20.112 -74.888  1.00  0.00    -0.259 OA
ATOM     17  H8  UNL     1     142.432  20.313 -78.000  1.00  0.00     0.190 HD
BRANCH  15  18
HETATM   18  C18 UNL     1     141.057  20.507 -75.666  1.00  0.00     0.271 C
HETATM   19  O5  UNL     1     140.334  19.711 -75.008  1.00  0.00    -0.640 OA
HETATM   20  O6  UNL     1     140.488  21.647 -76.214  1.00  0.00    -0.640 OA
ENDBRANCH  15  18
ENDBRANCH   9  14
ENDBRANCH   6   8
ENDBRANCH   1   5
BRANCH   3  21
HETATM   21  C6  UNL     1     143.393  14.228 -81.636  1.00  0.00     0.312 C
HETATM   22  N3  UNL     1     142.074  14.033 -80.936  1.00  0.00    -0.091 NA
HETATM   23  N4  UNL     1     142.538  13.490 -79.731  1.00  0.00    -0.015 NA
HETATM   24  N5  UNL     1     143.666  12.702 -79.993  1.00  0.00    -0.005 NA
HETATM   25  N6  UNL     1     143.857  12.853 -81.392  1.00  0.00    -0.216 N
HETATM   26  C7  UNL     1     144.303  11.918 -82.311  1.00  0.00     0.243 C
HETATM   27  O3  UNL     1     144.696  10.788 -81.825  1.00  0.00    -0.271 OA
BRANCH  26  28
HETATM   28  C8  UNL     1     144.350  12.133 -83.770  1.00  0.00     0.084 C
HETATM   29  C9  UNL     1     143.042  12.541 -84.333  1.00  0.00     0.014 C
HETATM   30  C10 UNL     1     143.302  13.652 -85.328  1.00  0.00     0.001 C
HETATM   31  C11 UNL     1     144.570  14.261 -84.816  1.00  0.00     0.006 C
HETATM   32  C12 UNL     1     145.354  13.215 -84.104  1.00  0.00     0.006 C
BRANCH  32  33
HETATM   33  C13 UNL     1     146.495  12.681 -84.942  1.00  0.00    -0.047 C
HETATM   34  C14 UNL     1     146.687  13.444 -86.217  1.00  0.00     0.015 C
HETATM   35  C15 UNL     1     147.759  12.813 -84.122  1.00  0.00     0.015 C
HETATM   36  C16 UNL     1     146.313  11.233 -85.276  1.00  0.00     0.015 C
ENDBRANCH  32  33
ENDBRANCH  26  28
ENDBRANCH   3  21
TORSDOF 8
ENDMDL