MODEL 1
REMARK VINA RESULT: -4.646652082      0.000      0.000
REMARK  3 active torsions:
REMARK  status: ('A' for Active; 'I' for Inactive)
REMARK    1  A    between atoms: C1_4  and  C2_6
REMARK    2  A    between atoms: C2_6  and  N3_7
REMARK    3  A    between atoms: C4_14  and  N5_15
ROOT
HETATM    1  C2  UNL     1      21.855  -1.530  -3.707  1.00  0.00     0.241 C
HETATM    2  C3  UNL     1      22.361  -2.864  -3.291  1.00  0.00     0.264 C
HETATM    3  O3  UNL     1      23.172  -3.531  -3.979  1.00  0.00    -0.270 OA
HETATM    4  N4  UNL     1      21.750  -3.146  -2.043  1.00  0.00    -0.302 N
ATOM      5  H4  UNL     1      21.670  -4.076  -1.633  1.00  0.00     0.166 HD
HETATM    6  C4  UNL     1      21.264  -1.947  -1.440  1.00  0.00     0.370 C
HETATM    7  N6  UNL     1      19.862  -1.695  -1.528  1.00  0.00    -0.021 N
ATOM      8  H61 UNL     1      19.265  -1.765  -0.703  1.00  0.00     0.282 HD
ATOM      9  H62 UNL     1      19.243  -2.347  -2.010  1.00  0.00     0.282 HD
HETATM   10  C5  UNL     1      20.178  -0.409  -2.105  1.00  0.00     0.252 C
HETATM   11  C6  UNL     1      21.538  -0.857  -2.435  1.00  0.00     0.149 C
ENDROOT
BRANCH   1  12
HETATM   12  C1  UNL     1      20.731  -1.717  -4.648  1.00  0.00     0.132 C
HETATM   13  N1  UNL     1      20.508  -0.874  -5.583  1.00  0.00    -0.388 N
ATOM     14  H12 UNL     1      19.732  -1.003  -6.233  1.00  0.00     0.157 HD
ATOM     15  H11 UNL     1      21.121  -0.063  -5.672  1.00  0.00     0.157 HD
HETATM   16  N2  UNL     1      19.880  -2.841  -4.526  1.00  0.00    -0.085 NA
ENDBRANCH   1  12
BRANCH   1  17
HETATM   17  N3  UNL     1      22.955  -0.853  -4.395  1.00  0.00    -0.127 N
HETATM   18  O1  UNL     1      23.626   0.010  -3.814  1.00  0.00    -0.535 OA
HETATM   19  O2  UNL     1      23.294  -1.130  -5.696  1.00  0.00    -0.535 OA
ENDBRANCH   1  17
BRANCH   6  20
HETATM   20  N5  UNL     1      21.756  -1.671  -0.105  1.00  0.00    -0.025 N
ATOM     21  H53 UNL     1      22.648  -2.144   0.042  1.00  0.00     0.279 HD
ATOM     22  H52 UNL     1      22.054  -0.697  -0.039  1.00  0.00     0.279 HD
ATOM     23  H51 UNL     1      21.116  -1.892   0.656  1.00  0.00     0.279 HD
ENDBRANCH   6  20
TORSDOF 3
ENDMDL