MODEL 5
REMARK VINA RESULT: -4.606581836      3.004      3.981
REMARK  4 active torsions:
REMARK  status: ('A' for Active; 'I' for Inactive)
REMARK    1  A    between atoms: C3_3  and  O1_4
REMARK    2  A    between atoms: N1_7  and  N2_8
REMARK    3  A    between atoms: N3_10  and  N4_12
REMARK    4  A    between atoms: N4_12  and  N5_14
ROOT
HETATM    1  C1  UNL     1      20.120  -1.452   0.529  1.00  0.00     0.016 C
HETATM    2  C2  UNL     1      20.252  -1.423  -0.672  1.00  0.00    -0.058 C
HETATM    3  C3  UNL     1      20.411  -1.393  -2.130  1.00  0.00     0.231 C
HETATM    4  C4  UNL     1      21.824  -0.991  -2.467  1.00  0.00     0.228 C
HETATM    5  N1  UNL     1      21.968  -0.987  -3.894  1.00  0.00    -0.221 N
HETATM    6  C6  UNL     1      21.187  -1.873  -4.669  1.00  0.00     0.354 C
HETATM    7  O2  UNL     1      21.353  -2.007  -5.914  1.00  0.00    -0.244 OA
HETATM    8  N6  UNL     1      20.156  -2.672  -4.063  1.00  0.00    -0.250 N
ATOM      9  H6  UNL     1      19.514  -3.218  -4.638  1.00  0.00     0.187 HD
HETATM   10  N7  UNL     1      20.054  -2.684  -2.671  1.00  0.00    -0.083 NA
ENDROOT
BRANCH   3  11
HETATM   11  O1  UNL     1      19.568  -0.440  -2.717  1.00  0.00    -0.361 OA
ATOM     12  H1  UNL     1      19.732   0.429  -2.370  1.00  0.00     0.213 HD
ENDBRANCH   3  11
BRANCH   5  13
HETATM   13  N2  UNL     1      22.849  -0.138  -4.525  1.00  0.00    -0.221 N
HETATM   14  N3  UNL     1      23.656   0.637  -3.895  1.00  0.00    -0.212 N
ATOM     15  H3  UNL     1      23.692   0.671  -2.876  1.00  0.00     0.211 HD
ATOM     16  H2  UNL     1      22.863  -0.125  -5.545  1.00  0.00     0.210 HD
BRANCH  14  17
HETATM   17  N4  UNL     1      24.479   1.427  -4.694  1.00  0.00    -0.230 N
HETATM   18  C5  UNL     1      25.765   0.909  -5.091  1.00  0.00     0.201 C
BRANCH  17  19
HETATM   19  N5  UNL     1      24.043   2.682  -5.084  1.00  0.00    -0.328 N
ATOM     20  H52 UNL     1      23.055   2.934  -5.083  1.00  0.00     0.178 HD
ATOM     21  H51 UNL     1      24.727   3.378  -5.382  1.00  0.00     0.178 HD
ENDBRANCH  17  19
ENDBRANCH  14  17
ENDBRANCH   5  13
TORSDOF 4
ENDMDL