MODEL 2
REMARK VINA RESULT: -5.517518953      1.778      1.923
REMARK  2 active torsions:
REMARK  status: ('A' for Active; 'I' for Inactive)
REMARK    1  A    between atoms: O1_2  and  C2_3
REMARK    2  A    between atoms: C2_3  and  N1_4
ROOT
HETATM    1  N1  UNL     1      21.470  -3.005  -3.113  1.00  0.00    -0.237 N
HETATM    2  C3  UNL     1      22.051  -2.859  -1.897  1.00  0.00     0.166 A
HETATM    3  C4  UNL     1      21.442  -2.103  -0.892  1.00  0.00     0.162 A
HETATM    4  C5  UNL     1      20.231  -1.509  -1.176  1.00  0.00     0.281 A
HETATM    5  O2  UNL     1      19.690  -0.830  -0.261  1.00  0.00    -0.265 OA
HETATM    6  N2  UNL     1      19.704  -1.684  -2.381  1.00  0.00    -0.273 N
ATOM      7  H2  UNL     1      18.808  -1.240  -2.579  1.00  0.00     0.173 HD
HETATM    8  C6  UNL     1      20.277  -2.408  -3.357  1.00  0.00     0.336 A
HETATM    9  O3  UNL     1      19.703  -2.519  -4.468  1.00  0.00    -0.246 OA
HETATM   10  N3  UNL     1      22.076  -1.962   0.377  1.00  0.00    -0.278 N
ATOM     11  H3  UNL     1      21.637  -1.412   1.116  1.00  0.00     0.188 HD
HETATM   12  N4  UNL     1      23.297  -2.583   0.595  1.00  0.00    -0.132 N
ATOM     13  H4  UNL     1      23.753  -2.484   1.503  1.00  0.00     0.205 HD
HETATM   14  C7  UNL     1      23.926  -3.353  -0.417  1.00  0.00     0.692 A
HETATM   15  N5  UNL     1      25.074  -3.935  -0.209  1.00  0.00    -0.233 N
ATOM     16  H51 UNL     1      25.526  -4.489  -0.937  1.00  0.00     0.174 HD
ATOM     17  H52 UNL     1      25.525  -3.833   0.701  1.00  0.00     0.174 HD
HETATM   18  N6  UNL     1      23.299  -3.496  -1.682  1.00  0.00    -0.172 N
ATOM     19  H6  UNL     1      23.737  -4.046  -2.422  1.00  0.00     0.186 HD
ENDROOT
BRANCH   1  20
HETATM   20  C2  UNL     1      22.076  -3.790  -4.097  1.00  0.00     0.239 C
BRANCH  20  21
HETATM   21  O1  UNL     1      23.169  -3.147  -4.642  1.00  0.00    -0.351 OA
HETATM   22  C1  UNL     1      23.048  -2.644  -5.896  1.00  0.00     0.210 C
ENDBRANCH  20  21
ENDBRANCH   1  20
TORSDOF 2
ENDMDL