MODEL 5
REMARK VINA RESULT: -5.166499737      1.345      5.357
REMARK  2 active torsions:
REMARK  status: ('A' for Active; 'I' for Inactive)
REMARK       I    between atoms: N1_1  and  C1_5
REMARK       I    between atoms: C1_5  and  N2_6
REMARK       I    between atoms: C1_5  and  N3_10
REMARK    1  A    between atoms: N3_10  and  C2_12
REMARK    2  A    between atoms: C3_15  and  N5_16
ROOT
HETATM    1  C2  UNL     1      22.880  -2.020  -0.490  1.00  0.00     0.699 A
HETATM    2  N4  UNL     1      22.874  -1.948  -1.828  1.00  0.00    -0.022 N
ATOM      3  H4  UNL     1      23.759  -2.068  -2.322  1.00  0.00     0.203 HD
HETATM    4  C3  UNL     1      21.762  -1.726  -2.557  1.00  0.00     0.699 A
HETATM    5  N7  UNL     1      20.616  -1.574  -1.872  1.00  0.00    -0.140 N
ATOM      6  H7  UNL     1      19.753  -1.405  -2.389  1.00  0.00     0.189 HD
HETATM    7  C8  UNL     1      20.565  -1.638  -0.524  1.00  0.00     0.352 A
HETATM    8  O1  UNL     1      19.490  -1.495   0.115  1.00  0.00    -0.246 OA
HETATM    9  N8  UNL     1      21.708  -1.861   0.156  1.00  0.00    -0.140 N
ATOM     10  H8  UNL     1      21.686  -1.910   1.175  1.00  0.00     0.189 HD
ENDROOT
BRANCH   1  11
HETATM   11  N3  UNL     1      23.975  -2.233   0.134  1.00  0.00    -0.173 N
HETATM   12  C1  UNL     1      25.242  -1.692  -0.306  1.00  0.00     0.494 C
HETATM   13  N1  UNL     1      26.367  -2.327   0.312  1.00  0.00    -0.032 N
HETATM   14  N2  UNL     1      25.277  -0.285  -0.047  1.00  0.00    -0.032 N
ATOM     15  H13 UNL     1      27.250  -1.906   0.025  1.00  0.00     0.278 HD
ATOM     16  H12 UNL     1      26.423  -2.121   1.310  1.00  0.00     0.278 HD
ATOM     17  H11 UNL     1      26.342  -3.330   0.127  1.00  0.00     0.278 HD
ATOM     18  H23 UNL     1      25.332  -0.080   0.950  1.00  0.00     0.278 HD
ATOM     19  H22 UNL     1      26.160   0.136  -0.335  1.00  0.00     0.278 HD
ATOM     20  H21 UNL     1      24.475   0.167  -0.487  1.00  0.00     0.278 HD
ATOM     21  H3  UNL     1      23.955  -2.809   0.976  1.00  0.00     0.181 HD
ENDBRANCH   1  11
BRANCH   4  22
HETATM   22  N5  UNL     1      21.805  -1.659  -3.985  1.00  0.00    -0.214 N
HETATM   23  C4  UNL     1      23.024  -1.724  -4.732  1.00  0.00     0.168 C
HETATM   24  C5  UNL     1      23.064  -0.750  -5.883  1.00  0.00     0.252 C
HETATM   25  N6  UNL     1      21.793  -0.604  -6.542  1.00  0.00    -0.072 N
HETATM   26  C6  UNL     1      20.845  -1.632  -6.173  1.00  0.00     0.252 C
ATOM     27  H62 UNL     1      21.404   0.325  -6.382  1.00  0.00     0.277 HD
ATOM     28  H61 UNL     1      21.910  -0.562  -7.555  1.00  0.00     0.277 HD
HETATM   29  C7  UNL     1      20.558  -1.517  -4.704  1.00  0.00     0.168 C
ENDBRANCH   4  22
TORSDOF 2
ENDMDL