MODEL 4
REMARK VINA RESULT: -4.635461959      2.275      5.701
REMARK  5 active torsions:
REMARK  status: ('A' for Active; 'I' for Inactive)
REMARK    1  A    between atoms: N1_1  and  C1_5
REMARK    2  A    between atoms: C1_5  and  S1_6
REMARK    3  A    between atoms: S1_6  and  N2_9
REMARK    4  A    between atoms: N2_9  and  C2_11
REMARK    5  A    between atoms: N4_17  and  N5_19
ROOT
HETATM    1  C2  UNL     1      20.591  -2.498  -4.257  1.00  0.00     0.689 C
HETATM    2  N3  UNL     1      20.743  -3.524  -4.983  1.00  0.00    -0.225 N
ATOM      3  H3  UNL     1      20.769  -4.418  -4.492  1.00  0.00     0.177 HD
HETATM    4  C3  UNL     1      20.883  -3.591  -6.400  1.00  0.00     0.145 C
HETATM    5  C4  UNL     1      21.041  -2.288  -7.106  1.00  0.00     0.098 C
HETATM    6  C5  UNL     1      20.675  -1.115  -6.319  1.00  0.00     0.113 C
HETATM    7  N4  UNL     1      20.466   0.017  -6.894  1.00  0.00    -0.295 N
ATOM      8  H4  UNL     1      20.212   0.816  -6.314  1.00  0.00     0.187 HD
HETATM    9  N6  UNL     1      20.548  -1.224  -4.895  1.00  0.00    -0.179 N
ATOM     10  H6  UNL     1      20.426  -0.381  -4.333  1.00  0.00     0.185 HD
ENDROOT
BRANCH   1  11
HETATM   11  N2  UNL     1      20.456  -2.514  -2.825  1.00  0.00    -0.115 N
ATOM     12  H2  UNL     1      20.053  -3.340  -2.383  1.00  0.00     0.197 HD
BRANCH  11  13
HETATM   13  S1  UNL     1      20.939  -1.218  -1.837  1.00  0.00     0.268 S
HETATM   14  O1  UNL     1      19.923  -0.119  -1.932  1.00  0.00    -0.203 OA
HETATM   15  O2  UNL     1      22.261  -0.626  -2.272  1.00  0.00    -0.203 OA
BRANCH  13  16
HETATM   16  C1  UNL     1      21.095  -1.673  -0.131  1.00  0.00     0.392 C
BRANCH  16  17
HETATM   17  N1  UNL     1      19.742  -1.761   0.417  1.00  0.00    -0.065 N
ATOM     18  H13 UNL     1      19.324  -0.848   0.600  1.00  0.00     0.275 HD
ATOM     19  H12 UNL     1      19.054  -2.084  -0.264  1.00  0.00     0.275 HD
ATOM     20  H11 UNL     1      19.792  -2.352   1.247  1.00  0.00     0.275 HD
ENDBRANCH  16  17
ENDBRANCH  13  16
ENDBRANCH  11  13
ENDBRANCH   1  11
BRANCH   7  21
HETATM   21  N5  UNL     1      20.567   0.205  -8.253  1.00  0.00    -0.344 N
ATOM     22  H52 UNL     1      19.816  -0.170  -8.834  1.00  0.00     0.176 HD
ATOM     23  H51 UNL     1      21.344   0.695  -8.696  1.00  0.00     0.176 HD
ENDBRANCH   7  21
TORSDOF 5
ENDMDL