MODEL 4
REMARK VINA RESULT: -4.776910363      2.055      4.130
REMARK  5 active torsions:
REMARK  status: ('A' for Active; 'I' for Inactive)
REMARK    1  A    between atoms: N1_1  and  C1_4
REMARK    2  A    between atoms: N5_17  and  C6_18
REMARK    3  A    between atoms: C6_18  and  O3_19
REMARK    4  A    between atoms: O3_19  and  C7_20
REMARK    5  A    between atoms: C7_20  and  N6_21
ROOT
HETATM    1  C1  UNL     1      21.603  -1.684  -0.865  1.00  0.00     0.174 A
HETATM    2  C2  UNL     1      20.224  -1.647  -1.111  1.00  0.00     0.291 A
HETATM    3  O1  UNL     1      19.401  -1.753  -0.162  1.00  0.00    -0.264 OA
HETATM    4  N2  UNL     1      19.845  -1.494  -2.389  1.00  0.00    -0.303 N
ATOM      5  H2  UNL     1      18.846  -1.465  -2.595  1.00  0.00     0.171 HD
HETATM    6  C3  UNL     1      20.707  -1.377  -3.415  1.00  0.00     0.157 A
HETATM    7  N3  UNL     1      20.598  -1.219  -4.747  1.00  0.00    -0.291 N
ATOM      8  H3  UNL     1      19.713  -1.155  -5.251  1.00  0.00     0.172 HD
HETATM    9  C4  UNL     1      21.810  -1.158  -5.325  1.00  0.00     0.327 A
HETATM   10  O2  UNL     1      22.080  -1.014  -6.559  1.00  0.00    -0.247 OA
HETATM   11  N4  UNL     1      22.696  -1.281  -4.324  1.00  0.00    -0.291 N
ATOM     12  H4  UNL     1      23.709  -1.271  -4.444  1.00  0.00     0.172 HD
HETATM   13  C5  UNL     1      22.057  -1.419  -3.127  1.00  0.00     0.160 A
HETATM   14  N5  UNL     1      22.486  -1.571  -1.863  1.00  0.00    -0.289 N
ENDROOT
BRANCH  14  15
HETATM   15  C6  UNL     1      23.895  -1.606  -1.567  1.00  0.00     0.304 C
BRANCH  15  16
HETATM   16  O3  UNL     1      24.324  -0.438  -0.926  1.00  0.00    -0.345 OA
BRANCH  16  17
HETATM   17  C7  UNL     1      25.630  -0.568  -0.463  1.00  0.00     0.398 C
BRANCH  17  18
HETATM   18  N6  UNL     1      25.727  -1.872   0.178  1.00  0.00    -0.058 N
ATOM     19  H63 UNL     1      25.552  -1.839   1.183  1.00  0.00     0.276 HD
ATOM     20  H62 UNL     1      24.958  -2.496  -0.067  1.00  0.00     0.276 HD
ATOM     21  H61 UNL     1      26.643  -2.253  -0.058  1.00  0.00     0.276 HD
ENDBRANCH  17  18
ENDBRANCH  16  17
ENDBRANCH  15  16
ENDBRANCH  14  15
BRANCH   1  22
HETATM   22  N1  UNL     1      21.912  -1.838   0.382  1.00  0.00    -0.381 N
ATOM     23  H12 UNL     1      22.861  -1.959   0.737  1.00  0.00     0.157 HD
ATOM     24  H11 UNL     1      21.111  -1.834   1.013  1.00  0.00     0.157 HD
ENDBRANCH   1  22
TORSDOF 5
ENDMDL