MODEL 3
REMARK VINA RESULT: -4.824000021      1.899      3.861
REMARK  4 active torsions:
REMARK  status: ('A' for Active; 'I' for Inactive)
REMARK       I    between atoms: N1_1  and  C1_4
REMARK    1  A    between atoms: N3_6  and  C2_8
REMARK    2  A    between atoms: C3_9  and  C4_10
REMARK    3  A    between atoms: C5_13  and  C6_14
REMARK    4  A    between atoms: N6_20  and  N7_21
ROOT
HETATM    1  C2  UNL     1      22.567  -2.779  -2.846  1.00  0.00     0.151 A
HETATM    2  C3  UNL     1      22.130  -2.309  -1.617  1.00  0.00     0.105 A
HETATM    3  C5  UNL     1      20.789  -1.994  -1.482  1.00  0.00     0.093 A
HETATM    4  N5  UNL     1      19.955  -2.159  -2.557  1.00  0.00    -0.303 N
ATOM      5  H5  UNL     1      18.965  -1.930  -2.464  1.00  0.00     0.171 HD
HETATM    6  C7  UNL     1      20.416  -2.615  -3.725  1.00  0.00     0.347 A
HETATM    7  O3  UNL     1      19.561  -2.733  -4.662  1.00  0.00    -0.245 OA
HETATM    8  N6  UNL     1      21.688  -2.928  -3.903  1.00  0.00    -0.194 N
ENDROOT
BRANCH   1   9
HETATM    9  N3  UNL     1      23.721  -3.099  -3.098  1.00  0.00    -0.315 N
HETATM   10  C1  UNL     1      24.895  -2.633  -3.531  1.00  0.00     0.187 C
HETATM   11  N1  UNL     1      25.696  -1.898  -2.793  1.00  0.00    -0.373 N
HETATM   12  N2  UNL     1      25.410  -2.940  -4.873  1.00  0.00    -0.064 NA
ATOM     13  H12 UNL     1      26.593  -1.541  -3.124  1.00  0.00     0.158 HD
ATOM     14  H11 UNL     1      25.338  -1.685  -1.862  1.00  0.00     0.158 HD
ATOM     15  H3  UNL     1      23.825  -4.095  -2.905  1.00  0.00     0.170 HD
ENDBRANCH   1   9
BRANCH   2  16
HETATM   16  C4  UNL     1      23.008  -2.115  -0.466  1.00  0.00     0.271 C
HETATM   17  N4  UNL     1      23.168  -2.985   0.614  1.00  0.00    -0.057 NA
HETATM   18  O1  UNL     1      23.703  -1.034  -0.457  1.00  0.00    -0.271 OA
ENDBRANCH   2  16
BRANCH   8  19
HETATM   19  N7  UNL     1      22.128  -3.402  -5.144  1.00  0.00    -0.333 N
ATOM     20  H72 UNL     1      22.281  -2.752  -5.915  1.00  0.00     0.177 HD
ATOM     21  H71 UNL     1      22.300  -4.396  -5.296  1.00  0.00     0.177 HD
ENDBRANCH   8  19
BRANCH   3  22
HETATM   22  C6  UNL     1      20.233  -1.467  -0.249  1.00  0.00     0.289 C
HETATM   23  O2  UNL     1      19.815  -2.148   0.690  1.00  0.00    -0.300 OA
ENDBRANCH   3  22
TORSDOF 4
ENDMDL