MODEL 5
REMARK VINA RESULT: -4.888948791      1.411      2.227
REMARK  4 active torsions:
REMARK  status: ('A' for Active; 'I' for Inactive)
REMARK    1  A    between atoms: N1_1  and  C1_4
REMARK    2  A    between atoms: C2_9  and  S1_10
REMARK    3  A    between atoms: S1_10  and  N4_13
REMARK    4  A    between atoms: N7_18  and  N8_19
ROOT
HETATM    1  C1  UNL     1      23.557  -1.647  -0.435  1.00  0.00     0.713 A
HETATM    2  N2  UNL     1      22.592  -1.943   0.453  1.00  0.00    -0.128 N
ATOM      3  H2  UNL     1      22.728  -2.049   1.458  1.00  0.00     0.205 HD
HETATM    4  N3  UNL     1      21.428  -2.078  -0.188  1.00  0.00    -0.258 N
ATOM      5  H3  UNL     1      20.526  -2.301   0.234  1.00  0.00     0.190 HD
HETATM    6  C2  UNL     1      21.663  -1.866  -1.475  1.00  0.00     0.276 A
HETATM    7  N7  UNL     1      22.987  -1.595  -1.654  1.00  0.00    -0.061 N
ENDROOT
BRANCH   6   8
HETATM    8  S1  UNL     1      20.546  -1.899  -2.831  1.00  0.00     0.300 S
HETATM    9  O1  UNL     1      20.952  -0.877  -3.862  1.00  0.00    -0.197 OA
HETATM   10  O2  UNL     1      19.156  -1.574  -2.393  1.00  0.00    -0.197 OA
BRANCH   8  11
HETATM   11  N4  UNL     1      20.671  -3.472  -3.524  1.00  0.00    -0.254 N
HETATM   12  C3  UNL     1      20.269  -3.666  -4.718  1.00  0.00     0.210 C
HETATM   13  N5  UNL     1      19.720  -2.602  -5.478  1.00  0.00    -0.066 NA
HETATM   14  N6  UNL     1      20.390  -4.977  -5.252  1.00  0.00    -0.066 NA
ATOM     15  H4  UNL     1      21.064  -4.242  -2.982  1.00  0.00     0.181 HD
ENDBRANCH   8  11
ENDBRANCH   6   8
BRANCH   7  16
HETATM   16  N8  UNL     1      23.639  -1.318  -2.847  1.00  0.00    -0.322 N
ATOM     17  H82 UNL     1      24.597  -0.989  -2.971  1.00  0.00     0.178 HD
ATOM     18  H81 UNL     1      23.240  -1.406  -3.782  1.00  0.00     0.178 HD
ENDBRANCH   7  16
BRANCH   1  19
HETATM   19  N1  UNL     1      24.792  -1.453  -0.149  1.00  0.00    -0.231 N
ATOM     20  H12 UNL     1      25.348  -1.948   0.548  1.00  0.00     0.174 HD
ATOM     21  H11 UNL     1      25.397  -0.760  -0.591  1.00  0.00     0.174 HD
ENDBRANCH   1  19
TORSDOF 4
ENDMDL