MODEL 5
REMARK VINA RESULT: -5.119131417      1.467      1.582
REMARK  3 active torsions:
REMARK  status: ('A' for Active; 'I' for Inactive)
REMARK    1  A    between atoms: N1_1  and  C1_4
REMARK    2  A    between atoms: N4_11  and  C3_12
REMARK    3  A    between atoms: C3_12  and  C4_13
ROOT
HETATM    1  C1  UNL     1      20.910  -1.695   0.029  1.00  0.00     0.183 A
HETATM    2  N2  UNL     1      22.157  -2.085   0.348  1.00  0.00    -0.277 N
ATOM      3  H2  UNL     1      22.534  -1.951   1.287  1.00  0.00     0.189 HD
HETATM    4  N3  UNL     1      22.869  -2.648  -0.608  1.00  0.00    -0.249 N
ATOM      5  H3  UNL     1      23.821  -2.960  -0.412  1.00  0.00     0.192 HD
HETATM    6  C2  UNL     1      22.351  -2.819  -1.851  1.00  0.00     0.344 A
HETATM    7  O1  UNL     1      23.093  -3.368  -2.716  1.00  0.00    -0.245 OA
HETATM    8  N4  UNL     1      21.107  -2.430  -2.169  1.00  0.00    -0.258 N
HETATM    9  C6  UNL     1      20.360  -1.857  -1.226  1.00  0.00     0.296 A
HETATM   10  O3  UNL     1      19.170  -1.459  -1.439  1.00  0.00    -0.264 OA
ENDROOT
BRANCH   8  11
HETATM   11  C3  UNL     1      20.616  -2.631  -3.490  1.00  0.00     0.184 C
BRANCH  11  12
HETATM   12  C4  UNL     1      20.723  -1.473  -4.421  1.00  0.00     0.208 C
HETATM   13  N5  UNL     1      20.430  -1.930  -5.783  1.00  0.00    -0.320 N
HETATM   14  C5  UNL     1      21.557  -1.212  -6.257  1.00  0.00     0.319 C
ATOM     15  H5  UNL     1      19.716  -2.519  -6.211  1.00  0.00     0.166 HD
HETATM   16  O2  UNL     1      21.994  -0.805  -7.384  1.00  0.00    -0.247 OA
HETATM   17  N6  UNL     1      22.025  -1.123  -4.921  1.00  0.00    -0.320 N
ATOM     18  H6  UNL     1      22.922  -0.900  -4.491  1.00  0.00     0.166 HD
ENDBRANCH  11  12
ENDBRANCH   8  11
BRANCH   1  19
HETATM   19  N1  UNL     1      20.212  -1.139   0.977  1.00  0.00    -0.380 N
ATOM     20  H12 UNL     1      20.507  -1.237   1.948  1.00  0.00     0.158 HD
ATOM     21  H11 UNL     1      19.383  -0.619   0.689  1.00  0.00     0.158 HD
ENDBRANCH   1  19
TORSDOF 3
ENDMDL