MODEL 2
REMARK VINA RESULT: -5.289657992      2.411      2.836
REMARK  5 active torsions:
REMARK  status: ('A' for Active; 'I' for Inactive)
REMARK    1  A    between atoms: N1_1  and  C1_4
REMARK    2  A    between atoms: C4_14  and  N5_15
REMARK    3  A    between atoms: N5_15  and  C5_17
REMARK    4  A    between atoms: C5_17  and  C6_18
REMARK    5  A    between atoms: C6_18  and  N6_19
ROOT
HETATM    1  C1  UNL     1      22.861  -2.537  -0.079  1.00  0.00     0.681 A
HETATM    2  N2  UNL     1      21.689  -1.986   0.305  1.00  0.00    -0.141 N
ATOM      3  H2  UNL     1      21.411  -2.001   1.286  1.00  0.00     0.189 HD
HETATM    4  C2  UNL     1      20.893  -1.418  -0.615  1.00  0.00     0.350 A
HETATM    5  O1  UNL     1      19.795  -0.892  -0.309  1.00  0.00    -0.245 OA
HETATM    6  N3  UNL     1      21.309  -1.424  -1.900  1.00  0.00    -0.199 N
HETATM    7  C3  UNL     1      20.514  -0.852  -2.845  1.00  0.00     0.338 A
HETATM    8  O2  UNL     1      19.432  -0.350  -2.458  1.00  0.00    -0.246 OA
HETATM    9  N4  UNL     1      20.854  -0.816  -4.146  1.00  0.00    -0.294 N
ATOM     10  H4  UNL     1      20.235  -0.380  -4.830  1.00  0.00     0.172 HD
HETATM   11  C4  UNL     1      22.020  -1.363  -4.532  1.00  0.00     0.108 A
HETATM   12  C7  UNL     1      22.865  -1.956  -3.619  1.00  0.00     0.098 A
HETATM   13  C8  UNL     1      22.477  -1.971  -2.290  1.00  0.00     0.139 A
HETATM   14  N7  UNL     1      23.279  -2.548  -1.345  1.00  0.00    -0.176 N
ATOM     15  H7  UNL     1      24.171  -2.973  -1.601  1.00  0.00     0.186 HD
ENDROOT
BRANCH  11  16
HETATM   16  N5  UNL     1      22.368  -1.342  -5.773  1.00  0.00    -0.374 N
ATOM     17  H5  UNL     1      23.342  -1.194  -6.033  1.00  0.00     0.161 HD
BRANCH  16  18
HETATM   18  C5  UNL     1      21.373  -1.527  -6.777  1.00  0.00     0.148 C
BRANCH  18  19
HETATM   19  C6  UNL     1      21.247  -0.364  -7.720  1.00  0.00     0.249 C
BRANCH  19  20
HETATM   20  N6  UNL     1      20.175   0.522  -7.395  1.00  0.00    -0.078 N
ATOM     21  H63 UNL     1      19.718   0.234  -6.529  1.00  0.00     0.274 HD
ATOM     22  H62 UNL     1      20.534   1.431  -7.103  1.00  0.00     0.274 HD
ATOM     23  H61 UNL     1      19.492   0.628  -8.145  1.00  0.00     0.274 HD
ENDBRANCH  19  20
ENDBRANCH  18  19
ENDBRANCH  16  18
ENDBRANCH  11  16
BRANCH   1  24
HETATM   24  N1  UNL     1      23.616  -3.079   0.814  1.00  0.00    -0.234 N
ATOM     25  H12 UNL     1      23.237  -3.200   1.753  1.00  0.00     0.174 HD
ATOM     26  H11 UNL     1      24.559  -3.366   0.554  1.00  0.00     0.174 HD
ENDBRANCH   1  24
TORSDOF 5
ENDMDL