MODEL 4
REMARK VINA RESULT: -6.570963787      1.061      3.945
REMARK  6 active torsions:
REMARK  status: ('A' for Active; 'I' for Inactive)
REMARK    1  A    between atoms: C2_2  and  O1_3
REMARK    2  A    between atoms: O1_3  and  C3_4
REMARK    3  A    between atoms: C5_7  and  C6_8
REMARK    4  A    between atoms: C6_8  and  O3_10
REMARK    5  A    between atoms: C8_12  and  C9_13
REMARK       I    between atoms: C9_13  and  N1_15
REMARK    6  A    between atoms: N1_15  and  N2_17
REMARK       I    between atoms: N2_17  and  C10_19
REMARK       I    between atoms: C10_19  and  N3_21
ROOT
HETATM    1  C3  UNL     1      15.767  -9.567 -26.845  1.00  0.00     0.126 A
HETATM    2  S1  UNL     1      14.409 -10.413 -27.365  1.00  0.00    -0.075 SA
HETATM    3  C4  UNL     1      13.309  -9.135 -27.491  1.00  0.00     0.071 A
HETATM    4  C5  UNL     1      14.049  -8.019 -27.107  1.00  0.00     0.065 A
HETATM    5  C8  UNL     1      15.338  -8.239 -26.771  1.00  0.00     0.090 A
ENDROOT
BRANCH   5   6
HETATM    6  C9  UNL     1      16.341  -7.218 -26.324  1.00  0.00     0.274 C
HETATM    7  O4  UNL     1      17.183  -6.812 -27.204  1.00  0.00    -0.266 OA
HETATM    8  N1  UNL     1      16.428  -6.670 -25.053  1.00  0.00    -0.262 N
ATOM      9  H1  UNL     1      15.773  -6.954 -24.325  1.00  0.00     0.190 HD
BRANCH   8  10
HETATM   10  N2  UNL     1      17.438  -5.712 -24.774  1.00  0.00    -0.249 N
HETATM   11  C10 UNL     1      17.079  -4.395 -24.375  1.00  0.00     0.334 C
HETATM   12  O5  UNL     1      15.886  -4.059 -24.265  1.00  0.00    -0.246 OA
HETATM   13  N3  UNL     1      18.103  -3.462 -24.102  1.00  0.00    -0.346 N
HETATM   14  C11 UNL     1      17.779  -2.118 -23.697  1.00  0.00     0.151 C
ATOM     15  H3  UNL     1      19.080  -3.741 -24.192  1.00  0.00     0.163 HD
ATOM     16  H2  UNL     1      18.421  -5.968 -24.859  1.00  0.00     0.192 HD
ENDBRANCH   8  10
ENDBRANCH   5   6
BRANCH   1  17
HETATM   17  O1  UNL     1      17.070 -10.032 -26.536  1.00  0.00    -0.343 OA
BRANCH  17  18
HETATM   18  C2  UNL     1      17.265 -10.390 -25.181  1.00  0.00     0.172 C
HETATM   19  C1  UNL     1      18.490  -9.730 -24.596  1.00  0.00     0.034 C
ENDBRANCH  17  18
ENDBRANCH   1  17
BRANCH   4  20
HETATM   20  C6  UNL     1      13.314  -6.718 -26.995  1.00  0.00     0.294 C
HETATM   21  O2  UNL     1      12.163  -6.527 -27.428  1.00  0.00    -0.259 OA
BRANCH  20  22
HETATM   22  O3  UNL     1      13.901  -5.622 -26.378  1.00  0.00    -0.322 OA
HETATM   23  C7  UNL     1      14.028  -4.379 -27.053  1.00  0.00     0.213 C
ENDBRANCH  20  22
ENDBRANCH   4  20
TORSDOF 6
ENDMDL