MODEL 5
REMARK VINA RESULT: -7.379556320      1.899      2.426
REMARK  6 active torsions:
REMARK  status: ('A' for Active; 'I' for Inactive)
REMARK    1  A    between atoms: O1_2  and  C2_3
REMARK    2  A    between atoms: C4_5  and  C5_6
REMARK    3  A    between atoms: N1_7  and  N2_9
REMARK       I    between atoms: N2_9  and  C6_11
REMARK    4  A    between atoms: C6_11  and  C7_13
REMARK       I    between atoms: C7_13  and  N3_15
REMARK       I    between atoms: N3_15  and  C8_17
REMARK    5  A    between atoms: C11_21  and  O5_22
REMARK    6  A    between atoms: C13_24  and  O6_25
ROOT
HETATM    1  C5  UNL     1      11.330  -9.341 -26.555  1.00  0.00     0.118 C
HETATM    2  N1  UNL     1      12.215  -8.845 -27.370  1.00  0.00    -0.308 N
ATOM      3  H1  UNL     1      11.896  -8.206 -28.098  1.00  0.00     0.186 HD
ENDROOT
BRANCH   1   4
HETATM    4  C4  UNL     1       9.915  -9.003 -26.665  1.00  0.00    -0.014 A
HETATM    5  C3  UNL     1       8.959  -9.556 -25.841  1.00  0.00     0.052 A
HETATM    6  C2  UNL     1       7.624  -9.187 -26.003  1.00  0.00     0.104 A
HETATM    7  C13 UNL     1       7.216  -8.284 -26.960  1.00  0.00     0.133 A
HETATM    8  C11 UNL     1       8.182  -7.737 -27.779  1.00  0.00     0.104 A
HETATM    9  C10 UNL     1       9.513  -8.109 -27.613  1.00  0.00     0.052 A
BRANCH   6  10
HETATM   10  O1  UNL     1       6.657  -9.729 -25.189  1.00  0.00    -0.353 OA
HETATM   11  C1  UNL     1       6.056 -10.990 -25.424  1.00  0.00     0.210 C
ENDBRANCH   6  10
BRANCH   7  12
HETATM   12  O6  UNL     1       5.862  -7.928 -27.102  1.00  0.00    -0.356 OA
ATOM     13  H6  UNL     1       5.341  -8.248 -27.828  1.00  0.00     0.218 HD
ENDBRANCH   7  12
BRANCH   8  14
HETATM   14  O5  UNL     1       7.789  -6.829 -28.745  1.00  0.00    -0.353 OA
HETATM   15  C12 UNL     1       8.768  -6.227 -29.574  1.00  0.00     0.210 C
ENDBRANCH   8  14
ENDBRANCH   1   4
BRANCH   2  16
HETATM   16  N2  UNL     1      13.557  -9.138 -27.301  1.00  0.00    -0.262 N
HETATM   17  C6  UNL     1      14.513  -8.174 -26.835  1.00  0.00     0.328 C
HETATM   18  O2  UNL     1      14.145  -7.032 -26.479  1.00  0.00    -0.261 OA
ATOM     19  H2  UNL     1      13.881 -10.062 -27.587  1.00  0.00     0.190 HD
BRANCH  17  20
HETATM   20  C7  UNL     1      15.923  -8.509 -26.772  1.00  0.00     0.317 C
HETATM   21  O3  UNL     1      16.713  -7.935 -27.535  1.00  0.00    -0.262 OA
HETATM   22  N3  UNL     1      16.371  -9.481 -25.845  1.00  0.00    -0.290 N
HETATM   23  C8  UNL     1      17.723  -9.861 -25.725  1.00  0.00     0.220 C
ATOM     24  H3  UNL     1      15.684  -9.927 -25.238  1.00  0.00     0.172 HD
HETATM   25  C9  UNL     1      18.803  -9.276 -26.559  1.00  0.00     0.117 C
HETATM   26  O4  UNL     1      18.042 -10.730 -24.880  1.00  0.00    -0.274 OA
ENDBRANCH  17  20
ENDBRANCH   2  16
TORSDOF 6
ENDMDL