MODEL 1
REMARK VINA RESULT: -7.376272154      0.000      0.000
REMARK  7 active torsions:
REMARK  status: ('A' for Active; 'I' for Inactive)
REMARK    1  A    between atoms: C6_8  and  O3_9
REMARK    2  A    between atoms: C7_11  and  C8_12
REMARK    3  A    between atoms: C8_12  and  O4_13
REMARK    4  A    between atoms: C13_20  and  O6_21
REMARK    5  A    between atoms: O6_21  and  C14_22
REMARK    6  A    between atoms: C14_22  and  C15_23
REMARK    7  A    between atoms: C15_23  and  O7_24
ROOT
HETATM    1  C1  UNL     1       8.944  -5.063 -30.390  1.00  0.00     0.078 C
HETATM    2  C2  UNL     1       8.966  -6.509 -30.828  1.00  0.00     0.158 C
HETATM    3  C3  UNL     1       8.268  -6.658 -32.153  1.00  0.00     0.078 C
HETATM    4  O1  UNL     1       8.392  -7.346 -29.871  1.00  0.00    -0.345 OA
HETATM    5  C4  UNL     1       9.421  -7.908 -29.171  1.00  0.00     0.188 C
HETATM    6  C5  UNL     1      10.445  -8.076 -30.309  1.00  0.00     0.186 C
HETATM    7  O2  UNL     1      10.329  -6.868 -30.920  1.00  0.00    -0.345 OA
HETATM    8  C6  UNL     1      11.729  -8.369 -29.621  1.00  0.00     0.166 C
HETATM    9  C7  UNL     1      11.613  -9.782 -29.088  1.00  0.00     0.068 C
HETATM   10  C9  UNL     1      10.386 -10.064 -28.335  1.00  0.00     0.170 C
HETATM   11  O5  UNL     1      10.972  -9.605 -27.151  1.00  0.00    -0.371 OA
HETATM   12  C10 UNL     1      12.212  -9.924 -27.715  1.00  0.00     0.069 C
HETATM   13  C11 UNL     1      13.295  -8.940 -27.381  1.00  0.00     0.047 C
HETATM   14  C12 UNL     1      12.588 -11.334 -27.315  1.00  0.00     0.047 C
HETATM   15  C13 UNL     1       9.169  -9.299 -28.660  1.00  0.00     0.183 C
ENDROOT
BRANCH  15  16
HETATM   16  O6  UNL     1       8.396  -9.174 -27.507  1.00  0.00    -0.379 OA
BRANCH  16  17
HETATM   17  C14 UNL     1       7.812 -10.349 -27.110  1.00  0.00     0.194 C
BRANCH  17  18
HETATM   18  C15 UNL     1       6.862 -10.230 -25.962  1.00  0.00     0.190 C
BRANCH  18  19
HETATM   19  O7  UNL     1       5.837 -11.170 -26.047  1.00  0.00    -0.399 OA
ATOM     20  H7  UNL     1       5.924 -11.842 -25.381  1.00  0.00     0.209 HD
ENDBRANCH  18  19
ENDBRANCH  17  18
ENDBRANCH  16  17
ENDBRANCH  15  16
BRANCH   9  21
HETATM   21  C8  UNL     1      12.024 -10.851 -30.073  1.00  0.00     0.182 C
BRANCH  21  22
HETATM   22  O4  UNL     1      10.947 -11.490 -30.662  1.00  0.00    -0.400 OA
ATOM     23  H4  UNL     1      10.619 -11.036 -31.430  1.00  0.00     0.209 HD
ENDBRANCH  21  22
ENDBRANCH   9  21
BRANCH   8  24
HETATM   24  O3  UNL     1      12.850  -8.179 -30.381  1.00  0.00    -0.392 OA
ATOM     25  H3  UNL     1      13.261  -8.974 -30.697  1.00  0.00     0.210 HD
ENDBRANCH   8  24
TORSDOF 7
ENDMDL