MODEL 5
REMARK VINA RESULT: -7.614126674      1.588      1.687
REMARK  7 active torsions:
REMARK  status: ('A' for Active; 'I' for Inactive)
REMARK    1  A    between atoms: C2_2  and  C3_3
REMARK    2  A    between atoms: C3_3  and  C4_4
REMARK    3  A    between atoms: C4_4  and  C5_5
REMARK       I    between atoms: C5_5  and  N1_7
REMARK    4  A    between atoms: N1_7  and  C6_9
REMARK    5  A    between atoms: C6_9  and  N2_11
REMARK    6  A    between atoms: N2_11  and  N3_13
REMARK       I    between atoms: N3_13  and  C7_15
REMARK    7  A    between atoms: C7_15  and  C8_17
ROOT
HETATM    1  N3  UNL     1      13.687  -8.602 -27.274  1.00  0.00    -0.262 N
ATOM      2  H3  UNL     1      13.498  -9.038 -26.372  1.00  0.00     0.190 HD
HETATM    3  C7  UNL     1      14.923  -7.976 -27.503  1.00  0.00     0.288 C
HETATM    4  O2  UNL     1      15.172  -7.439 -28.597  1.00  0.00    -0.264 OA
ENDROOT
BRANCH   1   5
HETATM    5  N2  UNL     1      12.722  -8.631 -28.271  1.00  0.00    -0.273 N
ATOM      6  H2  UNL     1      12.845  -9.266 -29.060  1.00  0.00     0.189 HD
BRANCH   5   7
HETATM    7  C6  UNL     1      11.579  -7.811 -28.225  1.00  0.00     0.193 C
HETATM    8  S1  UNL     1      11.658  -6.252 -28.646  1.00  0.00    -0.039 SA
BRANCH   7   9
HETATM    9  N1  UNL     1      10.342  -8.360 -27.809  1.00  0.00    -0.303 N
HETATM   10  C5  UNL     1      10.101  -8.862 -26.509  1.00  0.00     0.223 C
HETATM   11  O1  UNL     1      11.041  -8.819 -25.659  1.00  0.00    -0.273 OA
ATOM     12  H1  UNL     1       9.581  -8.394 -28.486  1.00  0.00     0.171 HD
BRANCH  10  13
HETATM   13  C4  UNL     1       8.773  -9.417 -26.178  1.00  0.00     0.103 C
BRANCH  13  14
HETATM   14  C3  UNL     1       7.765  -8.331 -25.841  1.00  0.00     0.009 C
BRANCH  14  15
HETATM   15  C2  UNL     1       6.430  -9.040 -25.615  1.00  0.00    -0.004 C
HETATM   16  C1  UNL     1       6.611 -10.524 -25.417  1.00  0.00     0.005 C
ENDBRANCH  14  15
ENDBRANCH  13  14
ENDBRANCH  10  13
ENDBRANCH   7   9
ENDBRANCH   5   7
ENDBRANCH   1   5
BRANCH   3  17
HETATM   17  C8  UNL     1      15.921  -7.955 -26.447  1.00  0.00     0.127 A
HETATM   18  N4  UNL     1      16.656  -9.067 -26.198  1.00  0.00    -0.339 N
HETATM   19  C9  UNL     1      17.581  -9.121 -25.248  1.00  0.00     0.092 A
ATOM     20  H4  UNL     1      16.491  -9.899 -26.765  1.00  0.00     0.167 HD
HETATM   21  C10 UNL     1      18.395 -10.358 -24.977  1.00  0.00     0.090 C
HETATM   22  N5  UNL     1      17.786  -7.997 -24.501  1.00  0.00    -0.289 N
HETATM   23  N6  UNL     1      17.076  -6.916 -24.740  1.00  0.00    -0.301 N
ATOM     24  H5  UNL     1      18.488  -7.996 -23.761  1.00  0.00     0.188 HD
HETATM   25  C11 UNL     1      16.131  -6.822 -25.691  1.00  0.00     0.054 A
ATOM     26  H6  UNL     1      17.254  -6.093 -24.164  1.00  0.00     0.186 HD
HETATM   27  C12 UNL     1      15.388  -5.552 -25.884  1.00  0.00     0.072 C
ENDBRANCH   3  17
TORSDOF 7
ENDMDL