MODEL 5
REMARK VINA RESULT: -7.546396713      1.546      3.546
REMARK  7 active torsions:
REMARK  status: ('A' for Active; 'I' for Inactive)
REMARK    1  A    between atoms: C2_2  and  N1_3
REMARK    2  A    between atoms: N1_3  and  C3_5
REMARK    3  A    between atoms: C4_8  and  N3_9
REMARK    4  A    between atoms: N3_9  and  N4_11
REMARK    5  A    between atoms: N4_11  and  C5_13
REMARK    6  A    between atoms: C5_13  and  C6_14
REMARK    7  A    between atoms: C8_18  and  C9_19
ROOT
HETATM    1  C3  UNL     1      13.682  -8.300 -28.371  1.00  0.00     0.141 A
HETATM    2  N2  UNL     1      12.812  -9.319 -28.419  1.00  0.00    -0.174 N
ATOM      3  H2  UNL     1      11.927  -9.190 -28.909  1.00  0.00     0.186 HD
HETATM    4  C4  UNL     1      13.073 -10.511 -27.840  1.00  0.00     0.699 A
HETATM    5  N7  UNL     1      14.241 -10.742 -27.172  1.00  0.00    -0.179 N
ATOM      6  H7  UNL     1      14.420 -11.649 -26.741  1.00  0.00     0.185 HD
HETATM    7  C11 UNL     1      15.140  -9.765 -27.091  1.00  0.00     0.154 A
HETATM    8  C12 UNL     1      16.396  -9.975 -26.387  1.00  0.00     0.120 C
HETATM    9  N8  UNL     1      17.391 -10.144 -25.820  1.00  0.00    -0.190 NA
HETATM   10  C13 UNL     1      14.872  -8.549 -27.684  1.00  0.00     0.126 A
HETATM   11  C14 UNL     1      15.855  -7.518 -27.583  1.00  0.00     0.106 C
HETATM   12  N9  UNL     1      16.654  -6.692 -27.504  1.00  0.00    -0.191 NA
ENDROOT
BRANCH   4  13
HETATM   13  N3  UNL     1      12.181 -11.428 -27.938  1.00  0.00    -0.132 N
ATOM     14  H3  UNL     1      12.136 -12.127 -27.198  1.00  0.00     0.205 HD
BRANCH  13  15
HETATM   15  N4  UNL     1      11.283 -11.532 -28.973  1.00  0.00    -0.295 N
ATOM     16  H4  UNL     1      11.659 -11.544 -29.921  1.00  0.00     0.186 HD
BRANCH  15  17
HETATM   17  C5  UNL     1      10.009 -11.616 -28.843  1.00  0.00     0.138 C
BRANCH  17  18
HETATM   18  C6  UNL     1       9.227 -10.597 -28.170  1.00  0.00     0.066 A
HETATM   19  C7  UNL     1       9.287  -9.230 -28.421  1.00  0.00     0.120 A
HETATM   20  N5  UNL     1       8.420  -8.602 -27.607  1.00  0.00    -0.353 N
HETATM   21  C8  UNL     1       7.816  -9.523 -26.853  1.00  0.00     0.081 A
ATOM     22  H5  UNL     1       8.252  -7.597 -27.571  1.00  0.00     0.166 HD
HETATM   23  N6  UNL     1       8.307 -10.725 -27.199  1.00  0.00    -0.344 N
ATOM     24  H6  UNL     1       8.023 -11.611 -26.782  1.00  0.00     0.167 HD
BRANCH  21  25
HETATM   25  C9  UNL     1       6.767  -9.291 -25.796  1.00  0.00     0.072 C
HETATM   26  C10 UNL     1       6.199 -10.640 -25.406  1.00  0.00     0.013 C
ENDBRANCH  21  25
ENDBRANCH  17  18
ENDBRANCH  15  17
ENDBRANCH  13  15
ENDBRANCH   4  13
BRANCH   1  27
HETATM   27  N1  UNL     1      13.489  -7.154 -28.899  1.00  0.00    -0.375 N
ATOM     28  H1  UNL     1      14.279  -6.511 -28.955  1.00  0.00     0.161 HD
BRANCH  27  29
HETATM   29  C2  UNL     1      12.228  -6.722 -29.415  1.00  0.00     0.116 C
HETATM   30  C1  UNL     1      11.473  -5.943 -28.361  1.00  0.00     0.026 C
ENDBRANCH  27  29
ENDBRANCH   1  27
TORSDOF 7
ENDMDL