MODEL 5
REMARK VINA RESULT: -7.165802372      2.866      3.604
REMARK  7 active torsions:
REMARK  status: ('A' for Active; 'I' for Inactive)
REMARK    1  A    between atoms: C2_2  and  C3_3
REMARK    2  A    between atoms: C3_3  and  C4_4
REMARK       I    between atoms: C4_4  and  N1_6
REMARK    3  A    between atoms: N1_6  and  N2_8
REMARK    4  A    between atoms: C5_10  and  N3_11
REMARK    5  A    between atoms: C5_10  and  C10_23
REMARK       I    between atoms: N3_11  and  C6_13
REMARK       I    between atoms: C6_13  and  N4_15
REMARK    6  A    between atoms: N4_15  and  C7_17
REMARK    7  A    between atoms: C10_23  and  O4_25
ROOT
HETATM    1  N2  UNL     1      17.758  -7.132 -25.465  1.00  0.00    -0.278 N
ATOM      2  H2  UNL     1      18.122  -7.566 -24.617  1.00  0.00     0.189 HD
HETATM    3  C5  UNL     1      17.408  -7.896 -26.511  1.00  0.00     0.201 C
ENDROOT
BRANCH   3   4
HETATM    4  N3  UNL     1      16.923  -7.206 -27.616  1.00  0.00    -0.288 N
HETATM    5  C6  UNL     1      15.622  -7.207 -28.115  1.00  0.00     0.328 C
HETATM    6  O2  UNL     1      14.633  -7.802 -27.707  1.00  0.00    -0.247 OA
HETATM    7  N4  UNL     1      15.404  -6.384 -29.294  1.00  0.00    -0.288 N
ATOM      8  H4  UNL     1      15.568  -6.741 -30.235  1.00  0.00     0.172 HD
ATOM      9  H3  UNL     1      17.598  -6.631 -28.120  1.00  0.00     0.172 HD
BRANCH   7  10
HETATM   10  C7  UNL     1      14.985  -5.155 -29.087  1.00  0.00     0.152 A
HETATM   11  N5  UNL     1      14.352  -4.651 -28.030  1.00  0.00    -0.346 N
HETATM   12  C8  UNL     1      14.025  -3.393 -28.036  1.00  0.00     0.097 A
ATOM     13  H5  UNL     1      14.126  -5.242 -27.229  1.00  0.00     0.167 HD
HETATM   14  C9  UNL     1      14.354  -2.650 -29.139  1.00  0.00     0.070 A
HETATM   15  S1  UNL     1      15.125  -3.809 -30.128  1.00  0.00    -0.064 SA
ENDBRANCH   7  10
ENDBRANCH   3   4
BRANCH   3  16
HETATM   16  C10 UNL     1      17.578  -9.299 -26.349  1.00  0.00     0.328 C
HETATM   17  O3  UNL     1      16.727 -10.185 -26.487  1.00  0.00    -0.256 OA
BRANCH  16  18
HETATM   18  O4  UNL     1      18.868  -9.819 -25.981  1.00  0.00    -0.320 OA
HETATM   19  C11 UNL     1      19.015 -10.449 -24.737  1.00  0.00     0.213 C
ENDBRANCH  16  18
ENDBRANCH   3  16
BRANCH   1  20
HETATM   20  N1  UNL     1      17.625  -5.751 -25.536  1.00  0.00    -0.268 N
HETATM   21  C4  UNL     1      16.518  -5.091 -24.995  1.00  0.00     0.239 C
HETATM   22  O1  UNL     1      15.596  -5.718 -24.421  1.00  0.00    -0.272 OA
ATOM     23  H1  UNL     1      18.355  -5.204 -25.995  1.00  0.00     0.190 HD
BRANCH  21  24
HETATM   24  C3  UNL     1      16.412  -3.617 -25.090  1.00  0.00     0.131 C
BRANCH  24  25
HETATM   25  C2  UNL     1      15.132  -3.102 -24.578  1.00  0.00    -0.028 C
HETATM   26  C1  UNL     1      15.116  -2.291 -23.545  1.00  0.00     0.007 C
ENDBRANCH  24  25
ENDBRANCH  21  24
ENDBRANCH   1  20
TORSDOF 7
ENDMDL