MODEL 2
REMARK VINA RESULT: -6.994859917      1.033      1.045
REMARK  7 active torsions:
REMARK  status: ('A' for Active; 'I' for Inactive)
REMARK    1  A    between atoms: C2_2  and  O1_3
REMARK    2  A    between atoms: O1_3  and  C3_4
REMARK    3  A    between atoms: C3_4  and  C4_6
REMARK    4  A    between atoms: C5_7  and  C6_8
REMARK    5  A    between atoms: C7_9  and  S1_10
REMARK    6  A    between atoms: S1_10  and  N1_13
REMARK    7  A    between atoms: N1_13  and  N2_15
ROOT
HETATM    1  C6  UNL     1      14.635  -7.611 -26.960  1.00  0.00     0.012 A
HETATM    2  C7  UNL     1      15.854  -7.319 -26.340  1.00  0.00     0.115 A
HETATM    3  C8  UNL     1      15.960  -5.946 -26.170  1.00  0.00     0.032 A
HETATM    4  C9  UNL     1      17.132  -5.277 -25.541  1.00  0.00     0.070 C
HETATM    5  N3  UNL     1      14.859  -5.383 -26.661  1.00  0.00    -0.356 N
HETATM    6  C10 UNL     1      14.567  -3.952 -26.680  1.00  0.00     0.156 C
HETATM    7  C11 UNL     1      14.055  -6.378 -27.138  1.00  0.00     0.019 A
HETATM    8  C12 UNL     1      12.730  -6.119 -27.764  1.00  0.00     0.069 C
ENDROOT
BRANCH   2   9
HETATM    9  S1  UNL     1      17.086  -8.448 -25.850  1.00  0.00     0.278 S
HETATM   10  O3  UNL     1      18.229  -8.354 -26.866  1.00  0.00    -0.199 OA
HETATM   11  O4  UNL     1      16.591  -9.848 -25.808  1.00  0.00    -0.199 OA
BRANCH   9  12
HETATM   12  N1  UNL     1      17.703  -8.055 -24.271  1.00  0.00    -0.229 N
ATOM     13  H1  UNL     1      17.726  -7.108 -23.894  1.00  0.00     0.199 HD
BRANCH  12  14
HETATM   14  N2  UNL     1      18.163  -9.169 -23.580  1.00  0.00    -0.336 N
ATOM     15  H22 UNL     1      19.095  -9.560 -23.721  1.00  0.00     0.177 HD
ATOM     16  H21 UNL     1      17.474  -9.542 -22.927  1.00  0.00     0.177 HD
ENDBRANCH  12  14
ENDBRANCH   9  12
ENDBRANCH   2   9
BRANCH   1  17
HETATM   17  C5  UNL     1      14.198  -8.949 -27.271  1.00  0.00     0.021 C
HETATM   18  C4  UNL     1      12.972  -9.412 -27.300  1.00  0.00     0.083 C
BRANCH  18  19
HETATM   19  C3  UNL     1      12.713 -10.826 -27.644  1.00  0.00     0.282 C
HETATM   20  O2  UNL     1      12.888 -11.688 -26.759  1.00  0.00    -0.260 OA
BRANCH  19  21
HETATM   21  O1  UNL     1      12.287 -11.241 -28.892  1.00  0.00    -0.319 OA
BRANCH  21  22
HETATM   22  C2  UNL     1      11.362 -12.332 -29.018  1.00  0.00     0.174 C
HETATM   23  C1  UNL     1       9.938 -11.857 -28.895  1.00  0.00     0.034 C
ENDBRANCH  21  22
ENDBRANCH  19  21
ENDBRANCH  18  19
ENDBRANCH   1  17
TORSDOF 7
ENDMDL