MODEL 2
REMARK VINA RESULT: -8.576194143      1.079      1.439
REMARK  4 active torsions:
REMARK  status: ('A' for Active; 'I' for Inactive)
REMARK    1  A    between atoms: C2_2  and  C3_3
REMARK    2  A    between atoms: C3_3  and  C5_6
REMARK       I    between atoms: C5_6  and  N2_8
REMARK    3  A    between atoms: N2_8  and  N3_9
REMARK    4  A    between atoms: C6_11  and  C8_14
REMARK       I    between atoms: N7_20  and  C10_22
ROOT
HETATM    1  C3  UNL     1       7.792  -9.523 -26.745  1.00  0.00     0.201 C
HETATM    2  C4  UNL     1       6.963 -10.380 -25.906  1.00  0.00     0.074 C
HETATM    3  N1  UNL     1       6.313 -11.059 -25.237  1.00  0.00    -0.196 NA
ENDROOT
BRANCH   1   4
HETATM    4  C2  UNL     1       8.671  -8.588 -25.994  1.00  0.00     0.026 C
HETATM    5  C1  UNL     1       7.921  -7.292 -25.755  1.00  0.00     0.007 C
ENDBRANCH   1   4
BRANCH   1   6
HETATM    6  C5  UNL     1       8.710 -10.494 -27.525  1.00  0.00     0.330 C
HETATM    7  O1  UNL     1       8.109 -11.404 -28.179  1.00  0.00    -0.254 OA
HETATM    8  N2  UNL     1      10.018 -10.237 -27.399  1.00  0.00    -0.284 NA
BRANCH   8   9
HETATM    9  N3  UNL     1      11.288  -9.987 -27.276  1.00  0.00    -0.219 N
HETATM   10  C6  UNL     1      12.231 -10.055 -28.095  1.00  0.00     0.175 C
HETATM   11  C7  UNL     1      12.044 -10.457 -29.437  1.00  0.00     0.123 C
HETATM   12  N4  UNL     1      11.898 -10.773 -30.560  1.00  0.00    -0.190 NA
ATOM     13  H3  UNL     1      11.565  -9.681 -26.344  1.00  0.00     0.203 HD
BRANCH  10  14
HETATM   14  C8  UNL     1      13.588  -9.709 -27.645  1.00  0.00     0.132 A
HETATM   15  N5  UNL     1      14.560 -10.481 -27.228  1.00  0.00    -0.289 N
HETATM   16  N6  UNL     1      15.678 -10.000 -26.874  1.00  0.00    -0.279 N
ATOM     17  H5  UNL     1      14.415 -11.489 -27.186  1.00  0.00     0.188 HD
HETATM   18  C9  UNL     1      15.869  -8.681 -26.924  1.00  0.00     0.168 A
ATOM     19  H6  UNL     1      16.426 -10.616 -26.554  1.00  0.00     0.189 HD
HETATM   20  N7  UNL     1      16.866  -7.929 -26.632  1.00  0.00    -0.306 N
HETATM   21  S1  UNL     1      14.317  -8.160 -27.526  1.00  0.00    -0.030 SA
HETATM   22  C10 UNL     1      18.083  -8.359 -26.155  1.00  0.00     0.219 C
ATOM     23  H7  UNL     1      16.746  -6.925 -26.766  1.00  0.00     0.171 HD
HETATM   24  C11 UNL     1      18.363  -9.506 -25.253  1.00  0.00     0.117 C
HETATM   25  O2  UNL     1      19.114  -7.682 -26.533  1.00  0.00    -0.274 OA
ENDBRANCH  10  14
ENDBRANCH   8   9
ENDBRANCH   1   6
TORSDOF 4
ENDMDL