MODEL 1
REMARK VINA RESULT: -7.506890607      0.000      0.000
REMARK  4 active torsions:
REMARK  status: ('A' for Active; 'I' for Inactive)
REMARK    1  A    between atoms: C4_4  and  N1_5
REMARK       I    between atoms: N1_5  and  C5_7
REMARK    2  A    between atoms: C6_11  and  S2_12
REMARK    3  A    between atoms: S2_12  and  N3_15
REMARK       I    between atoms: N3_15  and  C7_17
REMARK    4  A    between atoms: C7_17  and  C8_19
ROOT
HETATM    1  C8  UNL     1       8.794  -9.048 -26.013  1.00  0.00     0.227 C
HETATM    2  C9  UNL     1       7.983 -10.024 -26.768  1.00  0.00     0.068 C
HETATM    3  N4  UNL     1       7.354 -10.779 -27.374  1.00  0.00    -0.197 NA
ENDROOT
BRANCH   1   4
HETATM    4  C7  UNL     1      10.015  -8.703 -26.778  1.00  0.00     0.244 C
HETATM    5  N3  UNL     1      10.072  -8.987 -28.167  1.00  0.00    -0.249 N
ATOM      6  H3  UNL     1       9.280  -9.425 -28.638  1.00  0.00     0.182 HD
HETATM    7  O4  UNL     1      10.986  -8.165 -26.196  1.00  0.00    -0.272 OA
BRANCH   5   8
HETATM    8  S2  UNL     1      11.500  -8.582 -29.050  1.00  0.00     0.272 S
HETATM    9  O2  UNL     1      11.554  -7.098 -29.256  1.00  0.00    -0.200 OA
HETATM   10  O3  UNL     1      11.422  -9.226 -30.389  1.00  0.00    -0.200 OA
BRANCH   8  11
HETATM   11  C6  UNL     1      12.918  -9.099 -28.144  1.00  0.00     0.128 A
HETATM   12  C2  UNL     1      13.228 -10.340 -27.652  1.00  0.00    -0.029 A
HETATM   13  C1  UNL     1      12.263 -11.486 -27.876  1.00  0.00     0.050 C
HETATM   14  C3  UNL     1      14.384 -10.467 -26.991  1.00  0.00     0.046 A
HETATM   15  C4  UNL     1      15.159  -9.347 -26.863  1.00  0.00     0.079 A
HETATM   16  S1  UNL     1      14.250  -8.152 -27.669  1.00  0.00    -0.058 SA
BRANCH  15  17
HETATM   17  N1  UNL     1      16.436  -9.223 -26.201  1.00  0.00    -0.305 N
HETATM   18  C5  UNL     1      17.597  -9.624 -26.906  1.00  0.00     0.333 C
HETATM   19  N2  UNL     1      18.864  -9.514 -26.283  1.00  0.00    -0.040 NA
HETATM   20  O1  UNL     1      17.504 -10.072 -28.067  1.00  0.00    -0.251 OA
ATOM     21  H1  UNL     1      16.501  -8.856 -25.252  1.00  0.00     0.171 HD
ENDBRANCH  15  17
ENDBRANCH   8  11
ENDBRANCH   5   8
ENDBRANCH   1   4
TORSDOF 4
ENDMDL