MODEL 5
REMARK VINA RESULT: -6.239846838      1.498      2.315
REMARK  3 active torsions:
REMARK  status: ('A' for Active; 'I' for Inactive)
REMARK    1  A    between atoms: C2_2  and  N1_3
REMARK    2  A    between atoms: N1_3  and  C3_5
REMARK    3  A    between atoms: C3_5  and  C4_6
ROOT
HETATM    1  C4  UNL     1     -64.968 -35.420 -29.124  1.00  0.00     0.085 C
HETATM    2  C5  UNL     1     -63.822 -34.788 -28.392  1.00  0.00     0.245 C
HETATM    3  N2  UNL     1     -64.560 -33.528 -28.362  1.00  0.00    -0.065 N
ATOM      4  H21 UNL     1     -64.076 -32.630 -28.369  1.00  0.00     0.278 HD
ATOM      5  H22 UNL     1     -65.055 -33.223 -27.523  1.00  0.00     0.278 HD
HETATM    6  C6  UNL     1     -65.275 -34.010 -29.530  1.00  0.00     0.135 C
HETATM    7  C7  UNL     1     -64.748 -33.491 -30.816  1.00  0.00     0.040 C
HETATM    8  C8  UNL     1     -65.674 -33.793 -31.967  1.00  0.00     0.002 C
HETATM    9  C9  UNL     1     -66.831 -32.860 -32.091  1.00  0.00     0.000 C
HETATM   10  C10 UNL     1     -66.943 -31.818 -31.035  1.00  0.00     0.000 C
HETATM   11  C11 UNL     1     -67.090 -32.315 -29.640  1.00  0.00     0.002 C
HETATM   12  C12 UNL     1     -66.776 -33.759 -29.442  1.00  0.00     0.040 C
ENDROOT
BRANCH   1  13
HETATM   13  C3  UNL     1     -64.563 -36.393 -30.163  1.00  0.00     0.069 C
BRANCH  13  14
HETATM   14  N1  UNL     1     -64.290 -37.665 -29.681  1.00  0.00    -0.382 N
ATOM     15  H1  UNL     1     -63.524 -37.749 -29.013  1.00  0.00     0.163 HD
BRANCH  14  16
HETATM   16  C2  UNL     1     -64.953 -38.825 -30.018  1.00  0.00     0.056 C
HETATM   17  C1  UNL     1     -66.289 -38.649 -30.720  1.00  0.00     0.054 C
ENDBRANCH  14  16
ENDBRANCH  13  14
ENDBRANCH   1  13
TORSDOF 3
ENDMDL