MODEL 3
REMARK VINA RESULT: -6.653168983      0.661      1.444
REMARK  2 active torsions:
REMARK  status: ('A' for Active; 'I' for Inactive)
REMARK    1  A    between atoms: C2_2  and  C3_3
REMARK    2  A    between atoms: C5_5  and  C6_6
ROOT
HETATM    1  C3  UNL     1     -66.106 -33.950 -29.156  1.00  0.00     0.017 C
HETATM    2  C4  UNL     1     -65.283 -34.347 -30.384  1.00  0.00     0.045 C
HETATM    3  C5  UNL     1     -65.960 -33.354 -31.342  1.00  0.00     0.068 C
HETATM    4  C11 UNL     1     -65.677 -32.059 -30.601  1.00  0.00     0.071 C
HETATM    5  C12 UNL     1     -66.688 -32.691 -29.707  1.00  0.00     0.129 C
HETATM    6  O1  UNL     1     -67.256 -33.208 -30.908  1.00  0.00    -0.374 OA
ENDROOT
BRANCH   3   7
HETATM    7  C6  UNL     1     -65.632 -33.434 -32.750  1.00  0.00     0.023 C
HETATM    8  C7  UNL     1     -66.811 -33.139 -33.618  1.00  0.00     0.035 C
HETATM    9  C8  UNL     1     -66.355 -33.245 -35.065  1.00  0.00     0.232 C
HETATM   10  N1  UNL     1     -65.237 -32.405 -35.363  1.00  0.00    -0.075 N
HETATM   11  C9  UNL     1     -64.783 -31.630 -34.223  1.00  0.00     0.232 C
ATOM     12  H12 UNL     1     -64.471 -32.948 -35.761  1.00  0.00     0.277 HD
ATOM     13  H11 UNL     1     -65.441 -31.797 -36.157  1.00  0.00     0.277 HD
HETATM   14  C10 UNL     1     -64.462 -32.519 -33.044  1.00  0.00     0.035 C
ENDBRANCH   3   7
BRANCH   1  15
HETATM   15  C2  UNL     1     -65.363 -33.880 -27.897  1.00  0.00     0.002 C
HETATM   16  C1  UNL     1     -63.946 -34.320 -27.919  1.00  0.00     0.005 C
ENDBRANCH   1  15
TORSDOF 2
ENDMDL