MODEL 4
REMARK VINA RESULT: -6.282815059      1.491      2.499
REMARK  2 active torsions:
REMARK  status: ('A' for Active; 'I' for Inactive)
REMARK    1  A    between atoms: C2_2  and  C3_3
REMARK    2  A    between atoms: C3_3  and  C4_4
ROOT
HETATM    1  C4  UNL     1     -65.577 -35.149 -30.413  1.00  0.00     0.121 C
HETATM    2  C5  UNL     1     -65.302 -34.165 -31.470  1.00  0.00     0.033 C
HETATM    3  C6  UNL     1     -65.998 -32.870 -31.419  1.00  0.00     0.014 C
HETATM    4  C7  UNL     1     -66.719 -32.546 -30.157  1.00  0.00    -0.016 C
HETATM    5  C8  UNL     1     -66.548 -31.115 -29.752  1.00  0.00     0.031 C
HETATM    6  C9  UNL     1     -67.800 -30.342 -29.611  1.00  0.00     0.114 C
HETATM    7  N1  UNL     1     -68.897 -30.999 -29.008  1.00  0.00    -0.421 N
ATOM      8  H1  UNL     1     -69.642 -30.483 -28.540  1.00  0.00     0.153 HD
HETATM    9  C10 UNL     1     -68.905 -32.419 -29.091  1.00  0.00     0.114 C
HETATM   10  C11 UNL     1     -68.177 -32.869 -30.324  1.00  0.00     0.031 C
HETATM   11  C12 UNL     1     -66.098 -33.398 -29.048  1.00  0.00     0.177 C
HETATM   12  O1  UNL     1     -66.392 -34.714 -29.383  1.00  0.00    -0.385 OA
ENDROOT
BRANCH   1  13
HETATM   13  C3  UNL     1     -64.296 -35.668 -29.766  1.00  0.00     0.031 C
BRANCH  13  14
HETATM   14  C2  UNL     1     -64.243 -37.177 -29.785  1.00  0.00    -0.002 C
HETATM   15  C1  UNL     1     -65.446 -37.783 -30.464  1.00  0.00     0.005 C
ENDBRANCH  13  14
ENDBRANCH   1  13
TORSDOF 2
ENDMDL