MODEL 4
REMARK VINA RESULT: -6.649792809      0.850      1.130
REMARK  3 active torsions:
REMARK  status: ('A' for Active; 'I' for Inactive)
REMARK    1  A    between atoms: C3_6  and  C4_7
REMARK    2  A    between atoms: C4_7  and  C5_8
REMARK    3  A    between atoms: C5_8  and  C6_9
ROOT
HETATM    1  C4  UNL     1     -64.732 -35.259 -29.589  1.00  0.00     0.033 C
ENDROOT
BRANCH   1   2
HETATM    2  C3  UNL     1     -64.943 -36.500 -30.472  1.00  0.00     0.186 C
HETATM    3  N1  UNL     1     -66.360 -36.890 -30.426  1.00  0.00    -0.071 N
HETATM    4  C2  UNL     1     -66.247 -38.298 -30.834  1.00  0.00     0.233 C
ATOM      5  H12 UNL     1     -66.999 -36.316 -30.977  1.00  0.00     0.277 HD
ATOM      6  H11 UNL     1     -66.841 -36.719 -29.542  1.00  0.00     0.277 HD
HETATM    7  C1  UNL     1     -65.224 -38.800 -29.833  1.00  0.00     0.029 C
HETATM    8  C12 UNL     1     -64.199 -37.662 -29.852  1.00  0.00     0.034 C
ENDBRANCH   1   2
BRANCH   1   9
HETATM    9  C5  UNL     1     -65.725 -34.254 -30.037  1.00  0.00     0.009 C
BRANCH   9  10
HETATM   10  C6  UNL     1     -65.218 -33.015 -30.667  1.00  0.00     0.017 C
HETATM   11  C7  UNL     1     -66.368 -32.144 -31.117  1.00  0.00     0.039 C
HETATM   12  C8  UNL     1     -66.602 -32.670 -32.516  1.00  0.00     0.122 C
HETATM   13  C9  UNL     1     -65.722 -31.839 -33.449  1.00  0.00     0.034 C
HETATM   14  O1  UNL     1     -65.895 -33.886 -32.598  1.00  0.00    -0.380 OA
HETATM   15  C10 UNL     1     -64.345 -32.218 -32.883  1.00  0.00     0.035 C
HETATM   16  C11 UNL     1     -64.673 -33.420 -32.049  1.00  0.00     0.126 C
ENDBRANCH   9  10
ENDBRANCH   1   9
TORSDOF 3
ENDMDL