MODEL 3
REMARK VINA RESULT: -5.817281104      0.856      1.291
REMARK  4 active torsions:
REMARK  status: ('A' for Active; 'I' for Inactive)
REMARK    1  A    between atoms: N1_2  and  C3_4
REMARK    2  A    between atoms: C3_4  and  C4_5
REMARK    3  A    between atoms: C4_5  and  N2_6
REMARK    4  A    between atoms: N2_6  and  C5_8
ROOT
HETATM    1  C5  UNL     1     -65.603 -34.008 -31.667  1.00  0.00     0.084 C
HETATM    2  C6  UNL     1     -64.500 -33.059 -31.987  1.00  0.00     0.025 C
HETATM    3  C7  UNL     1     -64.513 -32.657 -33.429  1.00  0.00     0.002 C
HETATM    4  C8  UNL     1     -65.836 -32.414 -34.036  1.00  0.00     0.001 C
HETATM    5  C9  UNL     1     -67.002 -33.087 -33.410  1.00  0.00     0.011 C
HETATM    6  C10 UNL     1     -66.908 -33.234 -31.921  1.00  0.00    -0.028 C
HETATM    7  C11 UNL     1     -66.904 -31.897 -31.252  1.00  0.00     0.017 C
HETATM    8  C12 UNL     1     -68.096 -34.022 -31.435  1.00  0.00     0.017 C
ENDROOT
BRANCH   1   9
HETATM    9  N2  UNL     1     -65.661 -34.462 -30.328  1.00  0.00    -0.415 N
ATOM     10  H2  UNL     1     -66.080 -33.907 -29.581  1.00  0.00     0.153 HD
BRANCH   9  11
HETATM   11  C4  UNL     1     -65.077 -35.780 -30.090  1.00  0.00     0.144 C
BRANCH  11  12
HETATM   12  C3  UNL     1     -66.010 -36.880 -30.462  1.00  0.00     0.290 C
BRANCH  12  13
HETATM   13  N1  UNL     1     -65.514 -38.160 -30.105  1.00  0.00     0.081 N
HETATM   14  C1  UNL     1     -66.206 -39.230 -30.842  1.00  0.00     0.309 C
HETATM   15  C2  UNL     1     -64.111 -38.364 -30.100  1.00  0.00     0.309 C
ENDBRANCH  12  13
ENDBRANCH  11  12
ENDBRANCH   9  11
ENDBRANCH   1   9
TORSDOF 4
ENDMDL