MODEL 2
REMARK VINA RESULT: -6.995868270      1.706      2.870
REMARK  4 active torsions:
REMARK  status: ('A' for Active; 'I' for Inactive)
REMARK    1  A    between atoms: C3_3  and  C4_4
REMARK    2  A    between atoms: C4_4  and  C5_5
REMARK    3  A    between atoms: C5_5  and  C6_6
REMARK    4  A    between atoms: C7_7  and  N1_8
ROOT
HETATM    1  C1  UNL     1     -67.834 -39.044 -31.286  1.00  0.00     0.012 C
HETATM    2  C2  UNL     1     -66.707 -38.974 -30.890  1.00  0.00    -0.117 C
HETATM    3  C3  UNL     1     -65.349 -38.911 -30.404  1.00  0.00     0.093 C
ENDROOT
BRANCH   3   4
HETATM    4  C4  UNL     1     -64.935 -37.509 -29.985  1.00  0.00     0.013 C
BRANCH   4   5
HETATM    5  C5  UNL     1     -65.938 -36.559 -30.595  1.00  0.00     0.013 C
BRANCH   5   6
HETATM    6  C6  UNL     1     -65.788 -35.146 -30.068  1.00  0.00     0.001 A
HETATM    7  C7  UNL     1     -64.554 -34.801 -29.337  1.00  0.00     0.198 A
HETATM    8  C8  UNL     1     -64.679 -34.277 -30.708  1.00  0.00     0.032 A
HETATM    9  C9  UNL     1     -65.753 -33.325 -31.112  1.00  0.00    -0.003 A
HETATM   10  C10 UNL     1     -65.615 -31.907 -30.621  1.00  0.00     0.011 C
HETATM   11  C11 UNL     1     -66.818 -34.142 -30.430  1.00  0.00    -0.034 A
HETATM   12  C12 UNL     1     -67.550 -33.466 -29.316  1.00  0.00     0.016 C
HETATM   13  C13 UNL     1     -67.836 -34.702 -31.433  1.00  0.00     0.016 C
BRANCH   7  14
HETATM   14  N1  UNL     1     -64.583 -33.914 -28.184  1.00  0.00    -0.074 N
ATOM     15  H13 UNL     1     -64.495 -34.485 -27.344  1.00  0.00     0.274 HD
ATOM     16  H12 UNL     1     -63.710 -33.387 -28.170  1.00  0.00     0.274 HD
ATOM     17  H11 UNL     1     -65.351 -33.257 -28.042  1.00  0.00     0.274 HD
ENDBRANCH   7  14
ENDBRANCH   5   6
ENDBRANCH   4   5
ENDBRANCH   3   4
TORSDOF 4
ENDMDL