MODEL 5
REMARK VINA RESULT: -5.595761315      2.263      3.142
REMARK  4 active torsions:
REMARK  status: ('A' for Active; 'I' for Inactive)
REMARK    1  A    between atoms: C2_2  and  C5_5
REMARK    2  A    between atoms: C5_5  and  N1_8
REMARK    3  A    between atoms: N1_8  and  C8_10
REMARK    4  A    between atoms: C8_10  and  C9_11
ROOT
HETATM    1  N1  UNL     1     -67.318 -34.242 -30.279  1.00  0.00    -0.410 N
ATOM      2  H1  UNL     1     -67.532 -35.227 -30.122  1.00  0.00     0.154 HD
ENDROOT
BRANCH   1   3
HETATM    3  C5  UNL     1     -66.157 -33.796 -29.672  1.00  0.00     0.025 C
HETATM    4  C6  UNL     1     -65.896 -32.325 -30.135  1.00  0.00     0.038 C
HETATM    5  C7  UNL     1     -66.206 -33.670 -28.160  1.00  0.00     0.038 C
BRANCH   3   6
HETATM    6  C2  UNL     1     -64.977 -34.613 -30.036  1.00  0.00    -0.027 C
HETATM    7  C1  UNL     1     -64.250 -34.101 -31.223  1.00  0.00     0.017 C
HETATM    8  C3  UNL     1     -65.299 -36.077 -30.263  1.00  0.00     0.017 C
HETATM    9  C4  UNL     1     -63.932 -34.632 -28.892  1.00  0.00     0.017 C
ENDBRANCH   3   6
ENDBRANCH   1   3
BRANCH   1  10
HETATM   10  C8  UNL     1     -68.220 -33.578 -31.051  1.00  0.00     0.146 C
BRANCH  10  11
HETATM   11  C9  UNL     1     -68.303 -34.299 -32.424  1.00  0.00     0.138 C
HETATM   12  C10 UNL     1     -68.319 -35.791 -32.220  1.00  0.00     0.035 C
HETATM   13  C11 UNL     1     -69.540 -36.197 -33.013  1.00  0.00     0.029 C
HETATM   14  C12 UNL     1     -70.385 -34.924 -32.881  1.00  0.00     0.168 C
HETATM   15  O1  UNL     1     -69.444 -33.948 -33.079  1.00  0.00    -0.384 OA
ENDBRANCH  10  11
ENDBRANCH   1  10
TORSDOF 4
ENDMDL