MODEL 1
REMARK VINA RESULT: -6.637486494      0.000      0.000
REMARK  3 active torsions:
REMARK  status: ('A' for Active; 'I' for Inactive)
REMARK    1  A    between atoms: C2_3  and  C3_4
REMARK    2  A    between atoms: C3_4  and  N2_5
REMARK    3  A    between atoms: N2_5  and  C4_7
ROOT
HETATM    1  N1  UNL     1     -68.881 -37.745 -33.090  1.00  0.00    -0.197 NA
HETATM    2  C1  UNL     1     -68.257 -38.206 -32.243  1.00  0.00     0.060 C
HETATM    3  C2  UNL     1     -67.432 -38.815 -31.169  1.00  0.00     0.143 C
ENDROOT
BRANCH   3   4
HETATM    4  C3  UNL     1     -66.427 -37.776 -30.682  1.00  0.00     0.128 C
BRANCH   4   5
HETATM    5  N2  UNL     1     -66.985 -36.494 -30.901  1.00  0.00    -0.412 N
ATOM      6  H2  UNL     1     -67.886 -36.369 -31.362  1.00  0.00     0.154 HD
BRANCH   5   7
HETATM    7  C4  UNL     1     -66.218 -35.393 -30.443  1.00  0.00     0.026 C
HETATM    8  C5  UNL     1     -66.983 -34.440 -29.555  1.00  0.00     0.035 C
HETATM    9  C6  UNL     1     -66.051 -33.346 -29.096  1.00  0.00    -0.012 C
HETATM   10  C7  UNL     1     -64.833 -33.900 -28.392  1.00  0.00     0.009 C
HETATM   11  C11 UNL     1     -65.548 -32.522 -30.268  1.00  0.00     0.009 C
HETATM   12  C8  UNL     1     -64.066 -34.780 -29.340  1.00  0.00    -0.012 C
HETATM   13  C9  UNL     1     -63.670 -34.063 -30.605  1.00  0.00     0.009 C
HETATM   14  C13 UNL     1     -65.002 -35.905 -29.725  1.00  0.00     0.035 C
HETATM   15  C10 UNL     1     -64.892 -33.454 -31.255  1.00  0.00    -0.012 C
HETATM   16  C12 UNL     1     -65.829 -34.539 -31.665  1.00  0.00     0.035 C
ENDBRANCH   5   7
ENDBRANCH   4   5
ENDBRANCH   3   4
TORSDOF 3
ENDMDL