MODEL 3
REMARK VINA RESULT: -6.551405198      1.737      4.641
REMARK  3 active torsions:
REMARK  status: ('A' for Active; 'I' for Inactive)
REMARK    1  A    between atoms: C2_2  and  N1_3
REMARK    2  A    between atoms: N1_3  and  C3_4
REMARK    3  A    between atoms: N1_3  and  C9_10
ROOT
HETATM    1  N1  UNL     1     -66.220 -33.952 -30.421  1.00  0.00     0.099 N
ENDROOT
BRANCH   1   2
HETATM    2  C2  UNL     1     -67.666 -33.770 -30.210  1.00  0.00     0.269 C
HETATM    3  C1  UNL     1     -67.996 -32.748 -29.179  1.00  0.00     0.037 C
ENDBRANCH   1   2
BRANCH   1   4
HETATM    4  C3  UNL     1     -65.781 -33.654 -31.754  1.00  0.00     0.223 C
HETATM    5  C4  UNL     1     -66.870 -33.409 -32.760  1.00  0.00     0.036 C
HETATM    6  C5  UNL     1     -66.202 -33.247 -34.143  1.00  0.00     0.002 C
HETATM    7  C6  UNL     1     -65.221 -32.141 -34.216  1.00  0.00     0.000 C
HETATM    8  C7  UNL     1     -64.223 -32.337 -33.093  1.00  0.00     0.002 C
HETATM    9  C8  UNL     1     -65.079 -32.272 -31.816  1.00  0.00     0.036 C
ENDBRANCH   1   4
BRANCH   1  10
HETATM   10  C9  UNL     1     -66.003 -35.320 -30.027  1.00  0.00     0.250 C
HETATM   11  C10 UNL     1     -64.531 -35.629 -29.718  1.00  0.00     0.065 C
HETATM   12  C11 UNL     1     -64.352 -37.111 -30.073  1.00  0.00     0.234 C
HETATM   13  N2  UNL     1     -65.726 -37.609 -30.112  1.00  0.00    -0.073 N
HETATM   14  C12 UNL     1     -66.403 -36.463 -30.823  1.00  0.00     0.268 C
ATOM     15  H22 UNL     1     -65.852 -38.530 -30.533  1.00  0.00     0.277 HD
ATOM     16  H21 UNL     1     -66.128 -37.873 -29.213  1.00  0.00     0.277 HD
ENDBRANCH   1  10
TORSDOF 3
ENDMDL