MODEL 3
REMARK VINA RESULT: -10.272937956      3.609      5.367
REMARK  9 active torsions:
REMARK  status: ('A' for Active; 'I' for Inactive)
REMARK    1  A    between atoms: O1_2  and  C2_3
REMARK    2  A    between atoms: C7_8  and  O2_9
REMARK    3  A    between atoms: O2_9  and  C8_10
REMARK    4  A    between atoms: C8_10  and  C9_11
REMARK    5  A    between atoms: C9_11  and  C10_12
REMARK    6  A    between atoms: C10_12  and  C11_13
REMARK    7  A    between atoms: C12_14  and  C13_15
REMARK    8  A    between atoms: C13_15  and  N1_16
REMARK    9  A    between atoms: C16_19  and  C17_20
ROOT
HETATM    1  C10 UNL     1       3.861  -5.430  49.236  1.00  0.00     0.029 C
ENDROOT
BRANCH   1   2
HETATM    2  C9  UNL     1       3.127  -5.416  50.551  1.00  0.00     0.030 C
BRANCH   2   3
HETATM    3  C8  UNL     1       3.006  -4.024  51.131  1.00  0.00     0.176 C
BRANCH   3   4
HETATM    4  O2  UNL     1       4.133  -3.617  51.819  1.00  0.00    -0.348 OA
BRANCH   4   5
HETATM    5  C7  UNL     1       4.260  -3.183  53.092  1.00  0.00     0.102 A
HETATM    6  C2  UNL     1       4.973  -2.035  53.427  1.00  0.00     0.102 A
HETATM    7  C3  UNL     1       5.099  -1.598  54.718  1.00  0.00     0.047 A
HETATM    8  C4  UNL     1       4.492  -2.328  55.745  1.00  0.00    -0.049 A
HETATM    9  C5  UNL     1       3.777  -3.471  55.449  1.00  0.00    -0.049 A
HETATM   10  C27 UNL     1       4.655  -1.816  57.121  1.00  0.00     0.039 C
HETATM   11  C6  UNL     1       3.678  -3.871  54.130  1.00  0.00     0.047 A
HETATM   12  C24 UNL     1       3.116  -4.275  56.522  1.00  0.00     0.039 C
HETATM   13  C25 UNL     1       3.612  -3.876  57.880  1.00  0.00     0.005 C
HETATM   14  C26 UNL     1       3.517  -2.365  57.988  1.00  0.00     0.005 C
BRANCH   6  15
HETATM   15  O1  UNL     1       5.547  -1.359  52.388  1.00  0.00    -0.353 OA
HETATM   16  C1  UNL     1       6.868  -1.494  51.918  1.00  0.00     0.210 C
ENDBRANCH   6  15
ENDBRANCH   4   5
ENDBRANCH   3   4
ENDBRANCH   2   3
ENDBRANCH   1   2
BRANCH   1  17
HETATM   17  C11 UNL     1       3.089  -5.918  48.093  1.00  0.00    -0.026 C
HETATM   18  C12 UNL     1       2.258  -5.089  47.246  1.00  0.00     0.007 C
BRANCH  18  19
HETATM   19  C13 UNL     1       1.055  -4.345  47.590  1.00  0.00     0.059 C
BRANCH  19  20
HETATM   20  N1  UNL     1       0.729  -3.063  47.181  1.00  0.00    -0.293 NA
HETATM   21  C14 UNL     1       1.798  -2.180  46.933  1.00  0.00     0.095 C
HETATM   22  C15 UNL     1       1.657  -0.855  47.679  1.00  0.00     0.020 C
HETATM   23  C16 UNL     1       0.342  -0.216  47.225  1.00  0.00    -0.008 C
HETATM   24  C22 UNL     1      -0.758  -1.145  47.603  1.00  0.00     0.020 C
HETATM   25  C23 UNL     1      -0.286  -2.502  48.076  1.00  0.00     0.095 C
BRANCH  23  26
HETATM   26  C17 UNL     1       0.274   1.149  47.864  1.00  0.00    -0.007 C
HETATM   27  C18 UNL     1      -0.920   1.316  48.735  1.00  0.00     0.024 C
HETATM   28  C19 UNL     1      -0.944   2.790  49.159  1.00  0.00     0.114 C
HETATM   29  N2  UNL     1      -1.323   3.540  48.004  1.00  0.00    -0.421 N
HETATM   30  C20 UNL     1      -0.618   3.249  46.805  1.00  0.00     0.114 C
ATOM     31  H2  UNL     1      -2.058   4.245  48.038  1.00  0.00     0.153 HD
HETATM   32  C21 UNL     1       0.489   2.272  46.892  1.00  0.00     0.024 C
ENDBRANCH  23  26
ENDBRANCH  19  20
ENDBRANCH  18  19
ENDBRANCH   1  17
TORSDOF 9
ENDMDL