MODEL 1
REMARK VINA RESULT: -9.190964053      0.000      0.000
REMARK  12 active torsions:
REMARK  status: ('A' for Active; 'I' for Inactive)
REMARK    1  A    between atoms: C9_9  and  C10_10
REMARK    2  A    between atoms: C10_10  and  C11_12
REMARK    3  A    between atoms: C12_15  and  C13_16
REMARK    4  A    between atoms: C13_16  and  C14_17
REMARK    5  A    between atoms: C15_18  and  C16_19
REMARK    6  A    between atoms: C16_19  and  C17_20
REMARK    7  A    between atoms: C17_20  and  C18_21
REMARK    8  A    between atoms: C18_21  and  C19_22
REMARK    9  A    between atoms: C19_22  and  C20_23
REMARK   10  A    between atoms: C20_23  and  C21_24
REMARK   11  A    between atoms: C21_24  and  C22_25
REMARK   12  A    between atoms: C24_27  and  O4_28
ROOT
HETATM    1  C1  UNL     1       2.461  -4.399  51.291  1.00  0.00     0.014 C
HETATM    2  C2  UNL     1       2.797  -4.463  49.996  1.00  0.00    -0.084 C
HETATM    3  C3  UNL     1       3.784  -5.499  49.619  1.00  0.00     0.034 C
HETATM    4  C4  UNL     1       3.611  -5.960  48.180  1.00  0.00     0.005 C
HETATM    5  C5  UNL     1       2.239  -5.674  47.678  1.00  0.00     0.005 C
HETATM    6  C6  UNL     1       1.882  -4.194  47.707  1.00  0.00    -0.006 C
HETATM    7  C7  UNL     1       2.462  -3.538  46.488  1.00  0.00     0.009 C
HETATM    8  C8  UNL     1       2.170  -2.078  46.540  1.00  0.00     0.047 C
HETATM    9  C9  UNL     1       2.640  -1.374  47.781  1.00  0.00     0.133 C
HETATM   10  O3  UNL     1       3.776  -0.659  47.399  1.00  0.00    -0.363 OA
HETATM   11  C12 UNL     1       5.006  -1.113  47.541  1.00  0.00     0.155 C
HETATM   12  C24 UNL     1       5.210  -2.264  48.483  1.00  0.00     0.151 C
HETATM   13  C25 UNL     1       4.180  -2.167  49.621  1.00  0.00     0.021 C
HETATM   14  C26 UNL     1       4.462  -0.849  50.322  1.00  0.00     0.013 C
HETATM   15  C27 UNL     1       2.784  -2.179  49.012  1.00  0.00     0.043 C
HETATM   16  C28 UNL     1       2.161  -3.509  48.990  1.00  0.00     0.025 C
ENDROOT
BRANCH  11  17
HETATM   17  C13 UNL     1       5.626  -1.435  46.210  1.00  0.00     0.061 C
BRANCH  17  18
HETATM   18  C14 UNL     1       7.099  -1.325  46.175  1.00  0.00    -0.028 C
HETATM   19  C15 UNL     1       7.765  -0.232  46.517  1.00  0.00    -0.031 C
BRANCH  19  20
HETATM   20  C16 UNL     1       9.238  -0.134  46.477  1.00  0.00     0.027 C
BRANCH  20  21
HETATM   21  C17 UNL     1       9.675  -0.410  45.072  1.00  0.00     0.004 C
BRANCH  21  22
HETATM   22  C18 UNL     1      11.167  -0.535  45.006  1.00  0.00     0.000 C
BRANCH  22  23
HETATM   23  C19 UNL     1      11.609  -1.765  45.752  1.00  0.00     0.000 C
BRANCH  23  24
HETATM   24  C20 UNL     1      12.956  -1.501  46.371  1.00  0.00     0.000 C
BRANCH  24  25
HETATM   25  C21 UNL     1      12.815  -0.496  47.478  1.00  0.00    -0.000 C
BRANCH  25  26
HETATM   26  C22 UNL     1      12.664  -1.147  48.814  1.00  0.00    -0.005 C
HETATM   27  C23 UNL     1      11.466  -0.574  49.525  1.00  0.00     0.005 C
ENDBRANCH  25  26
ENDBRANCH  24  25
ENDBRANCH  23  24
ENDBRANCH  22  23
ENDBRANCH  21  22
ENDBRANCH  20  21
ENDBRANCH  19  20
ENDBRANCH  17  18
ENDBRANCH  11  17
BRANCH  12  28
HETATM   28  O4  UNL     1       6.472  -2.126  49.062  1.00  0.00    -0.393 OA
ATOM     29  H4  UNL     1       7.120  -2.174  48.368  1.00  0.00     0.210 HD
ENDBRANCH  12  28
BRANCH   9  30
HETATM   30  C10 UNL     1       1.652  -0.266  48.068  1.00  0.00     0.221 C
HETATM   31  O1  UNL     1       2.163   0.909  48.217  1.00  0.00    -0.287 OA
BRANCH  30  32
HETATM   32  C11 UNL     1       0.246  -0.343  48.194  1.00  0.00     0.311 C
HETATM   33  O2  UNL     1      -0.514   0.634  48.051  1.00  0.00    -0.298 OA
ENDBRANCH  30  32
ENDBRANCH   9  30
TORSDOF 12
ENDMDL