MODEL 2
REMARK VINA RESULT: -7.706033211      2.497      5.590
REMARK  12 active torsions:
REMARK  status: ('A' for Active; 'I' for Inactive)
REMARK    1  A    between atoms: C3_3  and  C4_4
REMARK    2  A    between atoms: C8_8  and  C9_9
REMARK    3  A    between atoms: C9_9  and  S2_11
REMARK    4  A    between atoms: S2_11  and  C10_12
REMARK    5  A    between atoms: C10_12  and  C11_13
REMARK    6  A    between atoms: C11_13  and  C12_14
REMARK    7  A    between atoms: C12_14  and  N1_15
REMARK    8  A    between atoms: C12_14  and  C17_24
REMARK    9  A    between atoms: N1_15  and  S3_17
REMARK   10  A    between atoms: S3_17  and  C13_20
REMARK   11  A    between atoms: C13_20  and  C14_21
REMARK   12  A    between atoms: C14_21  and  C15_22
ROOT
HETATM    1  C1  UNL     1      -1.674   2.903  48.870  1.00  0.00     0.112 C
HETATM    2  C2  UNL     1      -1.398   1.516  48.454  1.00  0.00    -0.111 C
HETATM    3  C3  UNL     1      -1.190   0.395  48.133  1.00  0.00    -0.101 C
ENDROOT
BRANCH   3   4
HETATM    4  C4  UNL     1      -0.960  -0.989  47.731  1.00  0.00     0.082 C
HETATM    5  C5  UNL     1      -0.501  -1.842  48.885  1.00  0.00     0.045 C
HETATM    6  C6  UNL     1       0.295  -2.893  48.198  1.00  0.00    -0.029 C
HETATM    7  C7  UNL     1       0.657  -2.489  46.991  1.00  0.00    -0.019 C
HETATM    8  C8  UNL     1       0.140  -1.115  46.739  1.00  0.00     0.075 C
BRANCH   8   9
HETATM    9  C9  UNL     1       1.272  -0.195  46.979  1.00  0.00     0.054 C
HETATM   10  S1  UNL     1       1.295   1.026  46.233  1.00  0.00    -0.077 SA
BRANCH   9  11
HETATM   11  S2  UNL     1       2.573  -0.511  48.134  1.00  0.00    -0.122 SA
BRANCH  11  12
HETATM   12  C10 UNL     1       4.208  -0.665  47.355  1.00  0.00     0.082 C
BRANCH  12  13
HETATM   13  C11 UNL     1       4.963  -1.803  47.926  1.00  0.00     0.036 C
BRANCH  13  14
HETATM   14  C12 UNL     1       4.770  -1.982  49.453  1.00  0.00     0.097 C
BRANCH  14  15
HETATM   15  N1  UNL     1       6.017  -1.684  50.038  1.00  0.00    -0.314 N
ATOM     16  H1  UNL     1       6.841  -1.555  49.452  1.00  0.00     0.172 HD
BRANCH  15  17
HETATM   17  S3  UNL     1       6.134  -1.544  51.708  1.00  0.00     0.226 S
HETATM   18  O1  UNL     1       7.543  -1.091  52.060  1.00  0.00    -0.206 OA
HETATM   19  O2  UNL     1       5.266  -0.385  52.205  1.00  0.00    -0.206 OA
BRANCH  17  20
HETATM   20  C13 UNL     1       5.709  -2.915  52.681  1.00  0.00     0.163 C
BRANCH  20  21
HETATM   21  C14 UNL     1       4.726  -2.671  53.778  1.00  0.00     0.016 C
BRANCH  21  22
HETATM   22  C15 UNL     1       4.089  -3.962  54.265  1.00  0.00    -0.004 C
HETATM   23  C16 UNL     1       3.623  -3.760  55.726  1.00  0.00     0.005 C
ENDBRANCH  21  22
ENDBRANCH  20  21
ENDBRANCH  17  20
ENDBRANCH  15  17
ENDBRANCH  14  15
BRANCH  14  24
HETATM   24  C17 UNL     1       4.276  -3.401  49.572  1.00  0.00     0.009 C
HETATM   25  C18 UNL     1       3.218  -3.590  50.628  1.00  0.00     0.007 C
HETATM   26  C19 UNL     1       2.420  -4.873  50.362  1.00  0.00     0.000 C
HETATM   27  C20 UNL     1       3.343  -5.988  49.926  1.00  0.00     0.000 C
HETATM   28  C21 UNL     1       3.980  -5.614  48.632  1.00  0.00     0.000 C
HETATM   29  C22 UNL     1       3.912  -4.108  48.338  1.00  0.00     0.007 C
ENDBRANCH  14  24
ENDBRANCH  13  14
ENDBRANCH  12  13
ENDBRANCH  11  12
ENDBRANCH   9  11
ENDBRANCH   8   9
ENDBRANCH   3   4
TORSDOF 12
ENDMDL