MODEL 5
REMARK VINA RESULT: -9.287364195      0.978      1.668
REMARK  10 active torsions:
REMARK  status: ('A' for Active; 'I' for Inactive)
REMARK    1  A    between atoms: C2_2  and  C4_4
REMARK    2  A    between atoms: C4_4  and  C5_5
REMARK    3  A    between atoms: C9_10  and  C10_11
REMARK    4  A    between atoms: C10_11  and  C11_12
REMARK    5  A    between atoms: C11_12  and  N1_13
REMARK       I    between atoms: N1_13  and  C12_15
REMARK    6  A    between atoms: C12_15  and  C13_17
REMARK    7  A    between atoms: C13_17  and  C14_18
REMARK    8  A    between atoms: C14_18  and  C16_20
REMARK    9  A    between atoms: C16_20  and  C18_22
REMARK   10  A    between atoms: C19_23  and  C20_24
ROOT
HETATM    1  N1  UNL     1       2.307  -4.162  47.644  1.00  0.00    -0.361 N
ATOM      2  H1  UNL     1       1.884  -5.009  48.023  1.00  0.00     0.162 HD
HETATM    3  C12 UNL     1       3.557  -3.719  48.139  1.00  0.00     0.218 C
HETATM    4  O2  UNL     1       4.061  -2.674  47.665  1.00  0.00    -0.274 OA
ENDROOT
BRANCH   1   5
HETATM    5  C11 UNL     1       1.626  -3.422  46.606  1.00  0.00     0.125 C
BRANCH   5   6
HETATM    6  C10 UNL     1       0.269  -2.938  47.036  1.00  0.00     0.052 C
BRANCH   6   7
HETATM    7  C9  UNL     1       0.259  -2.223  48.349  1.00  0.00     0.133 C
HETATM    8  C8  UNL     1      -1.066  -1.792  48.832  1.00  0.00     0.040 C
HETATM    9  C7  UNL     1      -1.671  -0.624  48.073  1.00  0.00     0.081 C
HETATM   10  C6  UNL     1      -1.022   0.653  48.458  1.00  0.00     0.140 C
HETATM   11  C5  UNL     1       0.288   1.168  48.030  1.00  0.00     0.155 C
HETATM   12  O1  UNL     1      -1.660   1.339  49.217  1.00  0.00    -0.297 OA
HETATM   13  C26 UNL     1       1.316   0.087  47.891  1.00  0.00     0.270 C
HETATM   14  O3  UNL     1       1.221  -1.208  48.327  1.00  0.00    -0.315 OA
HETATM   15  O4  UNL     1       2.389   0.381  47.315  1.00  0.00    -0.264 OA
BRANCH  11  16
HETATM   16  C4  UNL     1       0.302   1.943  46.759  1.00  0.00     0.026 C
BRANCH  16  17
HETATM   17  C2  UNL     1       0.231   3.423  46.872  1.00  0.00    -0.021 C
HETATM   18  C1  UNL     1       0.486   3.896  48.292  1.00  0.00     0.009 C
HETATM   19  C3  UNL     1      -0.944   4.084  46.224  1.00  0.00     0.009 C
ENDBRANCH  16  17
ENDBRANCH  11  16
ENDBRANCH   6   7
ENDBRANCH   5   6
ENDBRANCH   1   5
BRANCH   3  20
HETATM   20  C13 UNL     1       4.298  -4.462  49.213  1.00  0.00     0.111 C
BRANCH  20  21
HETATM   21  C14 UNL     1       4.285  -3.723  50.502  1.00  0.00     0.019 C
HETATM   22  C15 UNL     1       3.800  -2.292  50.336  1.00  0.00     0.015 C
BRANCH  21  23
HETATM   23  C16 UNL     1       3.619  -4.333  51.657  1.00  0.00    -0.080 C
HETATM   24  C17 UNL     1       2.124  -4.546  51.443  1.00  0.00     0.044 C
BRANCH  23  25
HETATM   25  C18 UNL     1       3.969  -3.862  53.001  1.00  0.00    -0.001 C
HETATM   26  C19 UNL     1       3.687  -4.368  54.169  1.00  0.00    -0.022 C
BRANCH  26  27
HETATM   27  C20 UNL     1       4.138  -3.741  55.430  1.00  0.00     0.008 C
HETATM   28  C21 UNL     1       3.067  -3.818  56.504  1.00  0.00     0.008 C
HETATM   29  C22 UNL     1       3.765  -3.608  57.835  1.00  0.00     0.001 C
HETATM   30  C23 UNL     1       5.068  -2.877  57.645  1.00  0.00     0.000 C
HETATM   31  C24 UNL     1       4.975  -1.783  56.609  1.00  0.00     0.001 C
HETATM   32  C25 UNL     1       4.550  -2.324  55.248  1.00  0.00     0.008 C
ENDBRANCH  26  27
ENDBRANCH  23  25
ENDBRANCH  21  23
ENDBRANCH  20  21
ENDBRANCH   3  20
TORSDOF 10
ENDMDL