MODEL 1
REMARK VINA RESULT: -8.410630638      0.000      0.000
REMARK  14 active torsions:
REMARK  status: ('A' for Active; 'I' for Inactive)
REMARK    1  A    between atoms: C2_2  and  C3_3
REMARK    2  A    between atoms: C3_3  and  C4_4
REMARK    3  A    between atoms: C4_4  and  C5_5
REMARK    4  A    between atoms: C5_5  and  C6_6
REMARK    5  A    between atoms: C6_6  and  C7_7
REMARK    6  A    between atoms: C7_7  and  C8_8
REMARK    7  A    between atoms: C8_8  and  C9_9
REMARK    8  A    between atoms: C9_9  and  C10_10
REMARK    9  A    between atoms: C10_10  and  C11_12
REMARK   10  A    between atoms: C11_12  and  O2_14
REMARK   11  A    between atoms: O2_14  and  C12_15
REMARK   12  A    between atoms: N1_21  and  C18_22
REMARK   13  A    between atoms: C18_22  and  O3_23
REMARK   14  A    between atoms: C18_22  and  N2_25
ROOT
HETATM    1  C12 UNL     1       5.134  -1.652  49.421  1.00  0.00     0.138 C
HETATM    2  C13 UNL     1       5.415  -2.141  48.027  1.00  0.00     0.039 C
HETATM    3  C14 UNL     1       5.308  -0.944  47.121  1.00  0.00     0.006 C
HETATM    4  C15 UNL     1       5.502   0.239  48.049  1.00  0.00     0.015 C
HETATM    5  C16 UNL     1       4.682  -0.215  49.238  1.00  0.00     0.034 C
HETATM    6  C17 UNL     1       3.242  -0.186  48.895  1.00  0.00     0.133 C
HETATM    7  N1  UNL     1       2.972  -0.226  47.438  1.00  0.00    -0.347 N
HETATM    8  C24 UNL     1       3.906  -0.799  46.529  1.00  0.00     0.131 C
ENDROOT
BRANCH   1   9
HETATM    9  O2  UNL     1       6.286  -1.730  50.203  1.00  0.00    -0.315 OA
BRANCH   9  10
HETATM   10  C11 UNL     1       6.331  -1.514  51.562  1.00  0.00     0.274 C
HETATM   11  O1  UNL     1       7.414  -1.044  52.025  1.00  0.00    -0.264 OA
BRANCH  10  12
HETATM   12  C10 UNL     1       5.198  -1.803  52.473  1.00  0.00     0.158 C
HETATM   13  S1  UNL     1       5.450  -1.000  54.097  1.00  0.00    -0.082 SA
BRANCH  12  14
HETATM   14  C9  UNL     1       5.077  -3.276  52.655  1.00  0.00     0.026 C
BRANCH  14  15
HETATM   15  C8  UNL     1       3.750  -3.684  53.268  1.00  0.00     0.002 C
BRANCH  15  16
HETATM   16  C7  UNL     1       2.864  -4.388  52.302  1.00  0.00     0.000 C
BRANCH  16  17
HETATM   17  C6  UNL     1       3.404  -4.251  50.908  1.00  0.00     0.000 C
BRANCH  17  18
HETATM   18  C5  UNL     1       3.166  -5.525  50.150  1.00  0.00     0.000 C
BRANCH  18  19
HETATM   19  C4  UNL     1       3.890  -5.504  48.804  1.00  0.00     0.000 C
BRANCH  19  20
HETATM   20  C3  UNL     1       2.881  -5.843  47.741  1.00  0.00    -0.000 C
BRANCH  20  21
HETATM   21  C2  UNL     1       1.658  -4.963  47.751  1.00  0.00    -0.005 C
HETATM   22  C1  UNL     1       2.017  -3.708  46.970  1.00  0.00     0.005 C
ENDBRANCH  20  21
ENDBRANCH  19  20
ENDBRANCH  18  19
ENDBRANCH  17  18
ENDBRANCH  16  17
ENDBRANCH  15  16
ENDBRANCH  14  15
ENDBRANCH  12  14
ENDBRANCH  10  12
ENDBRANCH   9  10
ENDBRANCH   1   9
BRANCH   7  23
HETATM   23  C18 UNL     1       1.749   0.333  47.033  1.00  0.00     0.217 C
BRANCH  23  24
HETATM   24  O3  UNL     1       1.812   1.067  45.940  1.00  0.00    -0.333 OA
ATOM     25  H3  UNL     1       1.041   1.025  45.388  1.00  0.00     0.220 HD
ENDBRANCH  23  24
BRANCH  23  26
HETATM   26  N2  UNL     1       0.466   0.260  47.571  1.00  0.00    -0.348 N
HETATM   27  C19 UNL     1      -0.216   1.338  48.227  1.00  0.00     0.126 C
HETATM   28  C20 UNL     1      -1.716   1.055  48.314  1.00  0.00     0.020 C
HETATM   29  C21 UNL     1      -2.074  -0.256  48.894  1.00  0.00     0.003 C
HETATM   30  C22 UNL     1      -1.002  -1.264  48.733  1.00  0.00     0.020 C
HETATM   31  C23 UNL     1      -0.247  -1.039  47.463  1.00  0.00     0.126 C
ENDBRANCH  23  26
ENDBRANCH   7  23
TORSDOF 14
ENDMDL