MODEL 4
REMARK VINA RESULT: -8.726568454      4.338      6.481
REMARK  12 active torsions:
REMARK  status: ('A' for Active; 'I' for Inactive)
REMARK    1  A    between atoms: C2_2  and  C3_3
REMARK    2  A    between atoms: C3_3  and  C4_4
REMARK    3  A    between atoms: C4_4  and  C5_5
REMARK    4  A    between atoms: C5_5  and  N1_7
REMARK    5  A    between atoms: N1_7  and  C7_9
REMARK    6  A    between atoms: C7_9  and  C8_10
REMARK    7  A    between atoms: C8_10  and  N2_11
REMARK    8  A    between atoms: C8_10  and  C25_30
REMARK       I    between atoms: N2_11  and  C9_13
REMARK    9  A    between atoms: C9_13  and  C10_15
REMARK   10  A    between atoms: C10_15  and  C11_16
REMARK   11  A    between atoms: C11_16  and  C12_17
REMARK   12  A    between atoms: C25_30  and  O3_32
ROOT
HETATM    1  N2  UNL     1       8.887  -0.364  46.608  1.00  0.00    -0.318 N
ATOM      2  H2  UNL     1       9.074   0.173  45.761  1.00  0.00     0.169 HD
HETATM    3  C9  UNL     1       7.594  -0.973  46.662  1.00  0.00     0.242 C
HETATM    4  O1  UNL     1       7.121  -1.412  45.602  1.00  0.00    -0.269 OA
ENDROOT
BRANCH   3   5
HETATM    5  C10 UNL     1       6.942  -1.046  47.926  1.00  0.00     0.048 C
BRANCH   5   6
HETATM    6  C11 UNL     1       5.990  -2.129  48.313  1.00  0.00     0.042 C
BRANCH   6   7
HETATM    7  C12 UNL     1       4.718  -1.749  48.939  1.00  0.00    -0.035 C
HETATM    8  C13 UNL     1       4.889  -0.338  49.632  1.00  0.00     0.016 C
HETATM    9  C14 UNL     1       4.566  -2.662  50.261  1.00  0.00     0.020 C
HETATM   10  C15 UNL     1       3.662  -3.444  49.388  1.00  0.00    -0.031 C
HETATM   11  C16 UNL     1       4.132  -4.690  48.953  1.00  0.00     0.011 C
HETATM   12  C18 UNL     1       2.417  -4.021  49.934  1.00  0.00    -0.005 C
HETATM   13  C24 UNL     1       3.385  -2.169  48.754  1.00  0.00     0.011 C
HETATM   14  C17 UNL     1       3.117  -5.368  49.841  1.00  0.00     0.006 C
HETATM   15  C19 UNL     1       1.314  -3.958  48.936  1.00  0.00     0.006 C
HETATM   16  C20 UNL     1       1.083  -2.571  48.389  1.00  0.00     0.010 C
HETATM   17  C21 UNL     1       2.408  -2.096  47.687  1.00  0.00    -0.043 C
HETATM   18  C22 UNL     1       2.113  -0.633  47.397  1.00  0.00     0.015 C
HETATM   19  C23 UNL     1       2.553  -2.777  46.412  1.00  0.00     0.015 C
ENDBRANCH   6   7
ENDBRANCH   5   6
ENDBRANCH   3   5
BRANCH   1  20
HETATM   20  C8  UNL     1       9.798  -0.387  47.413  1.00  0.00     0.126 C
BRANCH  20  21
HETATM   21  C7  UNL     1      10.854  -0.415  48.340  1.00  0.00     0.119 C
BRANCH  21  22
HETATM   22  N1  UNL     1      11.085   0.463  49.377  1.00  0.00    -0.393 N
ATOM     23  H1  UNL     1      10.754   1.421  49.260  1.00  0.00     0.159 HD
BRANCH  22  24
HETATM   24  C5  UNL     1      11.737   0.152  50.579  1.00  0.00     0.077 C
HETATM   25  C6  UNL     1      11.297   1.244  51.599  1.00  0.00     0.032 C
BRANCH  24  26
HETATM   26  C4  UNL     1      11.180  -1.182  51.075  1.00  0.00     0.024 C
BRANCH  26  27
HETATM   27  C3  UNL     1       9.884  -0.925  51.815  1.00  0.00     0.002 C
BRANCH  27  28
HETATM   28  C2  UNL     1       8.786  -1.721  51.179  1.00  0.00    -0.004 C
HETATM   29  C1  UNL     1       7.504  -1.421  51.928  1.00  0.00     0.005 C
ENDBRANCH  27  28
ENDBRANCH  26  27
ENDBRANCH  24  26
ENDBRANCH  22  24
ENDBRANCH  21  22
ENDBRANCH  20  21
BRANCH  20  30
HETATM   30  C25 UNL     1      10.858  -0.404  45.960  1.00  0.00     0.311 C
HETATM   31  O2  UNL     1      11.037  -1.563  45.666  1.00  0.00    -0.258 OA
BRANCH  30  32
HETATM   32  O3  UNL     1      11.215   0.733  45.502  1.00  0.00    -0.321 OA
HETATM   33  C26 UNL     1      12.609   1.069  45.345  1.00  0.00     0.213 C
ENDBRANCH  30  32
ENDBRANCH  20  30
ENDBRANCH   1  20
TORSDOF 12
ENDMDL