MODEL 5
REMARK VINA RESULT: -8.288686053      1.342      3.267
REMARK  12 active torsions:
REMARK  status: ('A' for Active; 'I' for Inactive)
REMARK    1  A    between atoms: N1_4  and  C4_5
REMARK    2  A    between atoms: C4_5  and  C5_6
REMARK    3  A    between atoms: C5_6  and  C6_7
REMARK    4  A    between atoms: C6_7  and  C7_8
REMARK    5  A    between atoms: C7_8  and  C8_9
REMARK    6  A    between atoms: C8_9  and  C9_10
REMARK    7  A    between atoms: C9_10  and  C10_11
REMARK    8  A    between atoms: C10_11  and  C11_12
REMARK    9  A    between atoms: C11_12  and  O1_13
REMARK   10  A    between atoms: O1_13  and  C12_14
REMARK   11  A    between atoms: C12_14  and  C13_16
REMARK   12  A    between atoms: C20_23  and  O3_24
ROOT
HETATM    1  C10 UNL     1       7.120  -1.376  47.311  1.00  0.00     0.027 C
ENDROOT
BRANCH   1   2
HETATM    2  C9  UNL     1       6.203  -1.664  48.476  1.00  0.00     0.002 C
BRANCH   2   3
HETATM    3  C8  UNL     1       4.935  -2.275  48.016  1.00  0.00     0.000 C
BRANCH   3   4
HETATM    4  C7  UNL     1       4.323  -3.065  49.177  1.00  0.00     0.000 C
BRANCH   4   5
HETATM    5  C6  UNL     1       3.434  -4.174  48.716  1.00  0.00     0.002 C
BRANCH   5   6
HETATM    6  C5  UNL     1       2.430  -3.804  47.680  1.00  0.00     0.020 C
BRANCH   6   7
HETATM    7  C4  UNL     1       1.035  -3.592  48.159  1.00  0.00     0.122 C
BRANCH   7   8
HETATM    8  N1  UNL     1       0.472  -2.330  47.879  1.00  0.00    -0.392 N
HETATM    9  C3  UNL     1      -0.840  -2.063  48.325  1.00  0.00     0.126 C
HETATM   10  C2  UNL     1      -1.170  -0.611  48.020  1.00  0.00     0.000 C
HETATM   11  C1  UNL     1      -2.363  -0.128  48.777  1.00  0.00     0.011 C
HETATM   12  C27 UNL     1       0.049   0.190  48.425  1.00  0.00     0.020 C
HETATM   13  C24 UNL     1       1.177  -0.080  47.478  1.00  0.00    -0.015 C
HETATM   14  C23 UNL     1       1.064  -1.484  46.931  1.00  0.00     0.067 C
HETATM   15  C25 UNL     1       2.482   0.145  48.229  1.00  0.00     0.020 C
HETATM   16  C26 UNL     1       1.043   0.885  46.319  1.00  0.00     0.020 C
ENDBRANCH   7   8
ENDBRANCH   6   7
ENDBRANCH   5   6
ENDBRANCH   4   5
ENDBRANCH   3   4
ENDBRANCH   2   3
ENDBRANCH   1   2
BRANCH   1  17
HETATM   17  C11 UNL     1       7.027   0.069  46.918  1.00  0.00     0.178 C
BRANCH  17  18
HETATM   18  O1  UNL     1       8.297   0.629  46.713  1.00  0.00    -0.321 OA
BRANCH  18  19
HETATM   19  C12 UNL     1       9.202   0.072  45.853  1.00  0.00     0.268 C
HETATM   20  O2  UNL     1       8.965  -0.183  44.648  1.00  0.00    -0.264 OA
BRANCH  19  21
HETATM   21  C13 UNL     1      10.582  -0.277  46.318  1.00  0.00     0.055 C
HETATM   22  C14 UNL     1      10.992  -1.657  45.800  1.00  0.00     0.025 C
HETATM   23  C15 UNL     1      12.463  -1.798  46.071  1.00  0.00    -0.010 C
HETATM   24  C16 UNL     1      13.193  -0.935  45.049  1.00  0.00     0.005 C
HETATM   25  C21 UNL     1      12.866  -1.476  47.473  1.00  0.00     0.042 C
HETATM   26  C17 UNL     1      12.457   0.359  44.793  1.00  0.00     0.006 C
HETATM   27  C18 UNL     1      11.591   0.766  45.967  1.00  0.00     0.007 C
HETATM   28  C19 UNL     1      12.517   0.923  47.156  1.00  0.00     0.043 C
HETATM   29  C20 UNL     1      12.180  -0.247  48.027  1.00  0.00     0.060 C
HETATM   30  C22 UNL     1      10.662  -0.346  47.829  1.00  0.00     0.058 C
BRANCH  29  31
HETATM   31  O3  UNL     1      12.525  -0.078  49.347  1.00  0.00    -0.390 OA
ATOM     32  H3  UNL     1      12.829   0.797  49.557  1.00  0.00     0.210 HD
ENDBRANCH  29  31
ENDBRANCH  19  21
ENDBRANCH  18  19
ENDBRANCH  17  18
ENDBRANCH   1  17
TORSDOF 12
ENDMDL