MODEL 2
REMARK VINA RESULT: -8.830448177      1.673      1.987
REMARK  11 active torsions:
REMARK  status: ('A' for Active; 'I' for Inactive)
REMARK    1  A    between atoms: C2_2  and  C3_3
REMARK    2  A    between atoms: C3_3  and  C4_4
REMARK    3  A    between atoms: C3_3  and  C12_14
REMARK    4  A    between atoms: C4_4  and  C5_5
REMARK    5  A    between atoms: C5_5  and  C6_6
REMARK    6  A    between atoms: C16_18  and  O1_19
REMARK    7  A    between atoms: C18_22  and  C19_23
REMARK    8  A    between atoms: C19_23  and  C21_25
REMARK    9  A    between atoms: C21_25  and  C22_26
REMARK   10  A    between atoms: C22_26  and  C24_29
REMARK   11  A    between atoms: C25_30  and  S1_31
ROOT
HETATM    1  C22 UNL     1       6.206  -1.693  47.668  1.00  0.00     0.116 C
HETATM    2  C23 UNL     1       6.881  -0.428  47.157  1.00  0.00     0.068 C
HETATM    3  N2  UNL     1       7.394   0.543  46.730  1.00  0.00    -0.197 NA
ENDROOT
BRANCH   1   4
HETATM    4  C21 UNL     1       4.795  -1.508  47.286  1.00  0.00     0.027 C
BRANCH   4   5
HETATM    5  C19 UNL     1       3.702  -1.504  48.294  1.00  0.00    -0.012 C
HETATM    6  C20 UNL     1       3.181  -0.108  48.459  1.00  0.00     0.010 C
BRANCH   5   7
HETATM    7  C18 UNL     1       2.681  -2.512  47.840  1.00  0.00     0.000 C
HETATM    8  C12 UNL     1       2.380  -3.689  48.643  1.00  0.00    -0.036 C
HETATM    9  C13 UNL     1       1.456  -3.550  49.799  1.00  0.00     0.016 C
HETATM   10  C14 UNL     1       1.643  -4.663  47.688  1.00  0.00     0.012 C
HETATM   11  C15 UNL     1       0.501  -4.043  46.971  1.00  0.00     0.032 C
HETATM   12  C16 UNL     1       0.223  -2.613  47.250  1.00  0.00     0.118 C
HETATM   13  C17 UNL     1       1.440  -1.773  47.435  1.00  0.00     0.037 C
BRANCH   8  14
HETATM   14  C3  UNL     1       3.595  -4.506  49.077  1.00  0.00    -0.006 C
BRANCH  14  15
HETATM   15  C2  UNL     1       3.694  -5.848  48.467  1.00  0.00     0.001 C
HETATM   16  C1  UNL     1       4.993  -6.570  48.411  1.00  0.00     0.005 C
ENDBRANCH  14  15
BRANCH  14  17
HETATM   17  C4  UNL     1       3.764  -4.400  50.539  1.00  0.00     0.010 C
BRANCH  17  18
HETATM   18  C5  UNL     1       4.535  -3.362  51.222  1.00  0.00     0.040 C
BRANCH  18  19
HETATM   19  C6  UNL     1       4.315  -3.203  52.677  1.00  0.00    -0.043 A
HETATM   20  C7  UNL     1       3.889  -4.165  53.529  1.00  0.00     0.010 A
HETATM   21  C8  UNL     1       3.725  -3.946  54.905  1.00  0.00     0.025 A
HETATM   22  C9  UNL     1       3.999  -2.711  55.443  1.00  0.00     0.005 A
HETATM   23  C10 UNL     1       3.830  -2.457  56.909  1.00  0.00     0.068 C
HETATM   24  N1  UNL     1       4.419  -1.753  54.602  1.00  0.00    -0.369 N
HETATM   25  C11 UNL     1       4.578  -1.958  53.287  1.00  0.00     0.095 A
ATOM     26  H1  UNL     1       4.627  -0.829  54.980  1.00  0.00     0.165 HD
ENDBRANCH  18  19
ENDBRANCH  17  18
ENDBRANCH  14  17
ENDBRANCH   8  14
BRANCH  12  27
HETATM   27  O1  UNL     1      -0.509  -2.143  46.112  1.00  0.00    -0.396 OA
ATOM     28  H1  UNL     1      -0.578  -1.202  46.229  1.00  0.00     0.210 HD
ENDBRANCH  12  27
ENDBRANCH   5   7
ENDBRANCH   4   5
ENDBRANCH   1   4
BRANCH   1  29
HETATM   29  C24 UNL     1       6.576  -1.749  49.077  1.00  0.00    -0.001 C
HETATM   30  C25 UNL     1       7.838  -1.708  49.498  1.00  0.00     0.042 C
BRANCH  30  31
HETATM   31  S1  UNL     1       8.251  -1.779  51.242  1.00  0.00    -0.146 SA
HETATM   32  C26 UNL     1       9.867  -1.027  51.568  1.00  0.00     0.095 C
ENDBRANCH  30  31
ENDBRANCH   1  29
TORSDOF 11
ENDMDL