MODEL 5
REMARK VINA RESULT: -9.248301595      2.106      3.260
REMARK  10 active torsions:
REMARK  status: ('A' for Active; 'I' for Inactive)
REMARK    1  A    between atoms: O1_2  and  N1_3
REMARK    2  A    between atoms: C2_5  and  C4_7
REMARK    3  A    between atoms: C5_8  and  C6_9
REMARK    4  A    between atoms: C6_9  and  C7_10
REMARK    5  A    between atoms: C7_10  and  C8_11
REMARK    6  A    between atoms: C8_11  and  C9_12
REMARK    7  A    between atoms: C9_12  and  C10_13
REMARK    8  A    between atoms: C10_13  and  N2_14
REMARK    9  A    between atoms: C13_17  and  N3_18
REMARK       I    between atoms: N3_18  and  C14_20
REMARK   10  A    between atoms: C14_20  and  C15_22
ROOT
HETATM    1  C9  UNL     1       6.062  -2.038  49.379  1.00  0.00     0.030 C
ENDROOT
BRANCH   1   2
HETATM    2  C8  UNL     1       6.594  -1.361  48.148  1.00  0.00     0.002 C
BRANCH   2   3
HETATM    3  C7  UNL     1       5.497  -0.772  47.328  1.00  0.00     0.004 C
BRANCH   3   4
HETATM    4  C6  UNL     1       4.520  -1.802  46.839  1.00  0.00     0.034 C
BRANCH   4   5
HETATM    5  C5  UNL     1       3.146  -1.376  47.202  1.00  0.00    -0.074 C
HETATM    6  C4  UNL     1       2.001  -2.281  46.941  1.00  0.00     0.065 C
HETATM    7  C25 UNL     1       0.698  -1.494  46.917  1.00  0.00    -0.005 C
HETATM    8  C24 UNL     1       0.535  -0.588  48.090  1.00  0.00     0.009 C
HETATM    9  C26 UNL     1      -0.448  -2.412  46.667  1.00  0.00     0.011 C
HETATM   10  C23 UNL     1       1.647   0.398  48.140  1.00  0.00     0.028 C
HETATM   11  C22 UNL     1       2.951  -0.178  47.743  1.00  0.00    -0.023 C
BRANCH   6  12
HETATM   12  C2  UNL     1       1.953  -3.435  47.862  1.00  0.00     0.015 C
HETATM   13  N1  UNL     1       2.170  -3.226  49.112  1.00  0.00    -0.275 N
ATOM     14  H1  UNL     1       2.369  -2.281  49.439  1.00  0.00     0.193 HD
HETATM   15  C3  UNL     1       1.668  -4.826  47.443  1.00  0.00     0.066 C
BRANCH  13  16
HETATM   16  O1  UNL     1       2.137  -4.254  50.005  1.00  0.00    -0.285 OA
HETATM   17  C1  UNL     1       3.342  -4.887  50.459  1.00  0.00     0.237 C
ENDBRANCH  13  16
ENDBRANCH   6  12
ENDBRANCH   4   5
ENDBRANCH   3   4
ENDBRANCH   2   3
ENDBRANCH   1   2
BRANCH   1  18
HETATM   18  C10 UNL     1       6.863  -1.592  50.573  1.00  0.00     0.272 C
BRANCH  18  19
HETATM   19  N2  UNL     1       6.028  -1.168  51.694  1.00  0.00     0.088 N
HETATM   20  C11 UNL     1       6.819  -0.955  52.863  1.00  0.00     0.274 C
HETATM   21  C12 UNL     1       5.974  -0.807  54.099  1.00  0.00     0.055 C
HETATM   22  C13 UNL     1       4.990  -1.949  54.232  1.00  0.00     0.087 C
HETATM   23  C20 UNL     1       4.068  -1.808  53.010  1.00  0.00     0.055 C
HETATM   24  C21 UNL     1       4.955  -2.102  51.826  1.00  0.00     0.274 C
BRANCH  22  25
HETATM   25  N3  UNL     1       4.230  -1.948  55.432  1.00  0.00    -0.356 N
HETATM   26  C14 UNL     1       3.707  -3.151  55.980  1.00  0.00     0.222 C
HETATM   27  O2  UNL     1       3.957  -4.225  55.337  1.00  0.00    -0.273 OA
ATOM     28  H3  UNL     1       4.055  -1.065  55.911  1.00  0.00     0.162 HD
BRANCH  26  29
HETATM   29  C15 UNL     1       2.908  -3.177  57.233  1.00  0.00     0.078 C
HETATM   30  C16 UNL     1       3.219  -1.877  57.988  1.00  0.00     0.014 C
HETATM   31  C17 UNL     1       4.640  -2.122  58.509  1.00  0.00     0.001 C
HETATM   32  C18 UNL     1       4.903  -3.594  58.364  1.00  0.00     0.001 C
HETATM   33  C19 UNL     1       3.503  -4.176  58.238  1.00  0.00     0.014 C
ENDBRANCH  26  29
ENDBRANCH  22  25
ENDBRANCH  18  19
ENDBRANCH   1  18
TORSDOF 10
ENDMDL