MODEL 2
REMARK VINA RESULT: -9.136414592      5.516      8.535
REMARK  11 active torsions:
REMARK  status: ('A' for Active; 'I' for Inactive)
REMARK    1  A    between atoms: C2_2  and  N1_3
REMARK    2  A    between atoms: N1_3  and  C4_5
REMARK    3  A    between atoms: C4_5  and  C5_6
REMARK    4  A    between atoms: C5_6  and  O1_7
REMARK    5  A    between atoms: C5_6  and  C6_9
REMARK    6  A    between atoms: C6_9  and  C7_10
REMARK    7  A    between atoms: C8_11  and  C9_12
REMARK    8  A    between atoms: C10_13  and  C11_14
REMARK    9  A    between atoms: C11_14  and  C12_15
REMARK   10  A    between atoms: C13_16  and  C14_17
REMARK   11  A    between atoms: C14_17  and  C15_18
ROOT
HETATM    1  C12 UNL     1       1.429  -3.713  46.906  1.00  0.00    -0.027 C
HETATM    2  C13 UNL     1       1.725  -4.434  47.949  1.00  0.00    -0.028 C
ENDROOT
BRANCH   2   3
HETATM    3  C14 UNL     1       1.719  -3.960  49.335  1.00  0.00     0.059 C
BRANCH   3   4
HETATM    4  C15 UNL     1       3.107  -3.458  49.655  1.00  0.00     0.135 C
HETATM    5  C16 UNL     1       3.452  -3.579  51.136  1.00  0.00     0.039 C
HETATM    6  C17 UNL     1       4.939  -3.526  51.216  1.00  0.00     0.011 A
HETATM    7  C18 UNL     1       5.453  -2.296  50.507  1.00  0.00     0.099 A
HETATM    8  C27 UNL     1       5.557  -3.094  52.514  1.00  0.00     0.028 A
HETATM    9  C19 UNL     1       4.389  -1.463  49.909  1.00  0.00     0.264 C
HETATM   10  C20 UNL     1       5.985  -1.832  51.846  1.00  0.00    -0.023 A
HETATM   11  O2  UNL     1       4.402  -0.201  49.884  1.00  0.00    -0.265 OA
HETATM   12  O3  UNL     1       3.298  -2.095  49.332  1.00  0.00    -0.315 OA
HETATM   13  C21 UNL     1       7.506  -1.717  51.761  1.00  0.00     0.016 C
HETATM   14  C22 UNL     1       5.327  -0.621  52.414  1.00  0.00     0.014 C
HETATM   15  C23 UNL     1       5.537  -0.693  53.936  1.00  0.00     0.028 C
HETATM   16  C24 UNL     1       4.638  -1.828  54.362  1.00  0.00    -0.024 C
HETATM   17  C25 UNL     1       4.678  -2.939  53.659  1.00  0.00    -0.082 C
HETATM   18  C26 UNL     1       3.765  -4.049  54.114  1.00  0.00     0.043 C
ENDBRANCH   3   4
ENDBRANCH   2   3
BRANCH   1  19
HETATM   19  C11 UNL     1       1.029  -2.286  46.848  1.00  0.00     0.054 C
BRANCH  19  20
HETATM   20  C10 UNL     1      -0.409  -2.125  46.585  1.00  0.00    -0.023 C
HETATM   21  C9  UNL     1      -1.340  -1.699  47.417  1.00  0.00    -0.004 C
BRANCH  21  22
HETATM   22  C8  UNL     1      -1.123  -1.301  48.773  1.00  0.00    -0.004 C
HETATM   23  C7  UNL     1      -1.280  -0.103  49.243  1.00  0.00    -0.024 C
BRANCH  23  24
HETATM   24  C6  UNL     1      -1.712   1.044  48.438  1.00  0.00     0.060 C
BRANCH  24  25
HETATM   25  C5  UNL     1      -1.196   2.382  48.974  1.00  0.00     0.149 C
BRANCH  25  26
HETATM   26  C4  UNL     1      -0.051   2.821  48.129  1.00  0.00     0.303 C
BRANCH  26  27
HETATM   27  N1  UNL     1      -0.345   3.046  46.749  1.00  0.00     0.086 N
HETATM   28  C3  UNL     1      -0.536   4.464  46.508  1.00  0.00     0.310 C
BRANCH  27  29
HETATM   29  C2  UNL     1       0.595   2.532  45.807  1.00  0.00     0.267 C
HETATM   30  C1  UNL     1       1.109   1.168  46.229  1.00  0.00     0.037 C
ENDBRANCH  27  29
ENDBRANCH  26  27
ENDBRANCH  25  26
BRANCH  25  31
HETATM   31  O1  UNL     1      -0.894   2.299  50.316  1.00  0.00    -0.394 OA
ATOM     32  H1  UNL     1      -1.600   1.945  50.844  1.00  0.00     0.210 HD
ENDBRANCH  25  31
ENDBRANCH  24  25
ENDBRANCH  23  24
ENDBRANCH  21  22
ENDBRANCH  19  20
ENDBRANCH   1  19
TORSDOF 11
ENDMDL