MODEL 1
REMARK VINA RESULT: -8.432328802      0.000      0.000
REMARK  0 active torsions:
REMARK  status: ('A' for Active; 'I' for Inactive)
REMARK       I    between atoms: C1_2  and  N2_4
ROOT
HETATM    1  N1  UNL     1      -7.663  -4.548  -4.943  1.00  0.00    -0.040 NA
HETATM    2  C1  UNL     1      -8.553  -3.610  -5.529  1.00  0.00     0.333 C
HETATM    3  O1  UNL     1      -8.922  -3.691  -6.729  1.00  0.00    -0.251 OA
HETATM    4  N2  UNL     1      -9.036  -2.561  -4.743  1.00  0.00    -0.314 N
ATOM      5  H2  UNL     1      -9.807  -2.769  -4.109  1.00  0.00     0.170 HD
HETATM    6  C2  UNL     1      -8.591  -1.360  -4.752  1.00  0.00     0.025 C
HETATM    7  C3  UNL     1      -7.471  -0.965  -5.643  1.00  0.00     0.058 C
HETATM    8  C4  UNL     1      -8.019   0.252  -6.409  1.00  0.00     0.011 C
HETATM    9  C5  UNL     1      -8.025   1.371  -5.432  1.00  0.00     0.047 C
HETATM   10  C6  UNL     1      -8.873   1.007  -4.235  1.00  0.00    -0.002 A
HETATM   11  S1  UNL     1      -9.675   1.929  -3.042  1.00  0.00    -0.075 SA
HETATM   12  C7  UNL     1     -10.355   0.664  -2.124  1.00  0.00     0.088 A
HETATM   13  N3  UNL     1     -11.125   0.346  -1.034  1.00  0.00    -0.335 N
ATOM     14  H3  UNL     1     -11.554   1.011  -0.390  1.00  0.00     0.168 HD
HETATM   15  C8  UNL     1     -11.220  -1.020  -0.960  1.00  0.00     0.126 A
HETATM   16  N4  UNL     1     -11.807  -1.889  -0.158  1.00  0.00    -0.326 N
ATOM     17  H4  UNL     1     -12.355  -1.575   0.643  1.00  0.00     0.169 HD
HETATM   18  C9  UNL     1     -11.666  -3.189  -0.421  1.00  0.00     0.145 A
HETATM   19  S2  UNL     1     -12.288  -4.480   0.412  1.00  0.00    -0.052 SA
HETATM   20  S3  UNL     1     -10.693  -3.193  -1.819  1.00  0.00    -0.056 SA
HETATM   21  C10 UNL     1     -10.507  -1.506  -2.005  1.00  0.00     0.066 A
HETATM   22  C11 UNL     1      -9.938  -0.454  -2.774  1.00  0.00     0.032 A
HETATM   23  C12 UNL     1      -9.160  -0.283  -3.884  1.00  0.00     0.014 A
ENDROOT
TORSDOF 0
ENDMDL