MODEL 2
REMARK VINA RESULT: -5.635412641      1.678      2.237
REMARK  2 active torsions:
REMARK  status: ('A' for Active; 'I' for Inactive)
REMARK    1  A    between atoms: C2_2  and  N1_4
REMARK    2  A    between atoms: C18_29  and  N7_30
ROOT
HETATM    1  N1  UNL     1      -9.613   1.752  -2.598  1.00  0.00    -0.244 N
HETATM    2  N2  UNL     1      -9.247   2.504  -3.565  1.00  0.00    -0.235 N
ATOM      3  H2  UNL     1      -9.065   3.506  -3.497  1.00  0.00     0.209 HD
HETATM    4  N3  UNL     1      -9.142   1.793  -4.649  1.00  0.00    -0.283 N
ATOM      5  H3  UNL     1      -8.868   2.127  -5.573  1.00  0.00     0.188 HD
HETATM    6  C4  UNL     1      -9.456   0.568  -4.323  1.00  0.00     0.088 A
HETATM    7  C5  UNL     1      -9.806   0.422  -2.958  1.00  0.00     0.099 A
HETATM    8  C6  UNL     1     -10.360  -0.686  -2.176  1.00  0.00     0.022 A
HETATM    9  C7  UNL     1     -11.501  -0.149  -1.441  1.00  0.00     0.016 A
HETATM   10  C8  UNL     1     -12.294  -0.787  -0.561  1.00  0.00     0.001 A
HETATM   11  C9  UNL     1     -12.034  -2.085  -0.298  1.00  0.00     0.002 A
HETATM   12  C10 UNL     1     -10.986  -2.648  -0.952  1.00  0.00     0.030 A
HETATM   13  C11 UNL     1     -10.120  -1.993  -1.905  1.00  0.00     0.045 A
HETATM   14  N4  UNL     1      -9.279  -3.047  -2.405  1.00  0.00    -0.353 N
ATOM     15  H4  UNL     1      -9.616  -3.960  -2.100  1.00  0.00     0.166 HD
HETATM   16  C12 UNL     1      -8.117  -3.175  -3.199  1.00  0.00     0.072 C
HETATM   17  C13 UNL     1      -8.467  -4.229  -4.178  1.00  0.00     0.138 C
HETATM   18  N5  UNL     1      -8.466  -4.244  -5.551  1.00  0.00    -0.313 N
ATOM     19  H5  UNL     1      -8.373  -5.159  -5.991  1.00  0.00     0.185 HD
HETATM   20  N6  UNL     1      -8.580  -3.119  -6.438  1.00  0.00    -0.323 N
ATOM     21  H6  UNL     1      -8.335  -3.198  -7.426  1.00  0.00     0.181 HD
HETATM   22  C14 UNL     1      -9.055  -1.874  -5.881  1.00  0.00     0.165 A
HETATM   23  C15 UNL     1      -9.313  -0.654  -5.145  1.00  0.00     0.006 A
HETATM   24  C16 UNL     1      -8.077  -1.308  -4.949  1.00  0.00    -0.035 A
HETATM   25  C17 UNL     1      -6.991  -1.308  -4.241  1.00  0.00     0.096 C
HETATM   26  C18 UNL     1      -6.966  -2.409  -3.172  1.00  0.00     0.035 C
ENDROOT
BRANCH   1  27
HETATM   27  C2  UNL     1      -9.728   2.366  -1.295  1.00  0.00     0.023 C
HETATM   28  C1  UNL     1     -10.413   3.481  -1.217  1.00  0.00     0.040 C
HETATM   29  C3  UNL     1      -9.124   1.807  -0.090  1.00  0.00     0.069 C
ENDBRANCH   1  27
BRANCH  26  30
HETATM   30  N7  UNL     1      -5.822  -2.333  -2.492  1.00  0.00    -0.400 N
ATOM     31  H72 UNL     1      -6.021  -2.390  -1.494  1.00  0.00     0.156 HD
ATOM     32  H71 UNL     1      -4.823  -2.235  -2.674  1.00  0.00     0.156 HD
ENDBRANCH  26  30
TORSDOF 2
ENDMDL