MODEL 2
REMARK VINA RESULT: -6.382465526      1.613      6.346
REMARK  0 active torsions:
REMARK  status: ('A' for Active; 'I' for Inactive)
ROOT
HETATM    1  C1  UNL     1      -7.996   2.803  -0.257  1.00  0.00     0.072 C
HETATM    2  C2  UNL     1      -9.042   1.996  -0.941  1.00  0.00     0.048 A
HETATM    3  N1  UNL     1      -8.915   0.790  -1.307  1.00  0.00    -0.343 N
ATOM      4  H1  UNL     1      -8.064   0.246  -1.164  1.00  0.00     0.164 HD
HETATM    5  C3  UNL     1     -10.103   0.262  -1.951  1.00  0.00     0.219 A
HETATM    6  N2  UNL     1     -11.023   1.379  -1.899  1.00  0.00    -0.327 N
ATOM      7  H2  UNL     1     -11.980   1.377  -2.251  1.00  0.00     0.165 HD
HETATM    8  C4  UNL     1     -10.371   2.474  -1.279  1.00  0.00     0.120 A
HETATM    9  N3  UNL     1     -10.813   3.663  -1.040  1.00  0.00    -0.384 N
ATOM     10  H31 UNL     1     -11.747   3.998  -1.277  1.00  0.00     0.157 HD
ATOM     11  H32 UNL     1     -10.344   4.451  -0.594  1.00  0.00     0.157 HD
HETATM   12  C5  UNL     1     -10.682  -0.871  -1.230  1.00  0.00     0.039 A
HETATM   13  C6  UNL     1     -11.670  -0.453  -0.368  1.00  0.00     0.016 A
HETATM   14  C7  UNL     1     -12.352  -1.366   0.418  1.00  0.00     0.001 A
HETATM   15  C8  UNL     1     -12.071  -2.710   0.369  1.00  0.00     0.002 A
HETATM   16  C9  UNL     1     -11.090  -3.157  -0.482  1.00  0.00     0.030 A
HETATM   17  C10 UNL     1     -10.416  -2.244  -1.261  1.00  0.00     0.045 A
HETATM   18  N4  UNL     1      -9.459  -2.906  -2.061  1.00  0.00    -0.353 N
ATOM     19  H4  UNL     1      -9.144  -3.824  -1.747  1.00  0.00     0.166 HD
HETATM   20  C11 UNL     1      -8.893  -2.401  -3.274  1.00  0.00     0.065 A
HETATM   21  C12 UNL     1      -8.136  -3.379  -3.893  1.00  0.00    -0.033 A
HETATM   22  C13 UNL     1      -7.982  -4.729  -3.316  1.00  0.00     0.050 C
HETATM   23  C14 UNL     1      -7.510  -3.074  -5.084  1.00  0.00     0.015 A
HETATM   24  C15 UNL     1      -7.617  -1.834  -5.668  1.00  0.00    -0.059 A
HETATM   25  C16 UNL     1      -6.931  -1.513  -6.967  1.00  0.00     0.048 C
HETATM   26  C17 UNL     1      -8.384  -0.893  -5.012  1.00  0.00     0.038 A
HETATM   27  C18 UNL     1      -9.033  -1.142  -3.818  1.00  0.00     0.061 A
HETATM   28  N5  UNL     1      -9.764  -0.015  -3.333  1.00  0.00    -0.336 N
HETATM   29  C19 UNL     1     -10.183   0.921  -4.370  1.00  0.00     0.154 C
ENDROOT
TORSDOF 0
ENDMDL