MODEL 2
REMARK VINA RESULT: -10.002833248      1.748      4.420
REMARK  0 active torsions:
REMARK  status: ('A' for Active; 'I' for Inactive)
ROOT
HETATM    1  N1  UNL     1     -11.116  -3.703  -0.837  1.00  0.00    -0.191 NA
HETATM    2  C1  UNL     1     -10.898  -2.558  -0.676  1.00  0.00     0.105 C
HETATM    3  C2  UNL     1     -10.633  -1.117  -0.499  1.00  0.00     0.112 A
HETATM    4  C3  UNL     1     -11.056  -0.534   0.667  1.00  0.00     0.112 A
HETATM    5  N2  UNL     1     -11.712  -1.125   1.782  1.00  0.00    -0.093 NA
HETATM    6  S1  UNL     1     -10.614   1.086   0.488  1.00  0.00    -0.053 SA
HETATM    7  C4  UNL     1      -9.897   1.005  -1.069  1.00  0.00     0.115 A
HETATM    8  N3  UNL     1      -9.417   2.170  -1.613  1.00  0.00    -0.300 N
ATOM      9  H3  UNL     1      -8.982   2.790  -0.931  1.00  0.00     0.171 HD
HETATM   10  C5  UNL     1      -9.408   2.656  -2.869  1.00  0.00     0.325 C
HETATM   11  O1  UNL     1      -9.174   3.872  -2.928  1.00  0.00    -0.247 OA
HETATM   12  N4  UNL     1      -9.608   2.044  -4.052  1.00  0.00    -0.306 N
ATOM     13  H4  UNL     1      -9.993   2.652  -4.775  1.00  0.00     0.171 HD
HETATM   14  C6  UNL     1      -9.391   0.768  -4.459  1.00  0.00     0.071 A
HETATM   15  C7  UNL     1      -9.111   0.889  -5.805  1.00  0.00     0.033 A
HETATM   16  C8  UNL     1      -8.798  -0.193  -6.548  1.00  0.00     0.014 A
HETATM   17  C9  UNL     1      -8.762  -1.429  -5.930  1.00  0.00    -0.023 A
HETATM   18  C10 UNL     1      -8.418  -2.546  -6.697  1.00  0.00     0.012 A
HETATM   19  C11 UNL     1      -8.350  -3.777  -6.124  1.00  0.00     0.001 A
HETATM   20  C12 UNL     1      -8.629  -3.885  -4.785  1.00  0.00     0.001 A
HETATM   21  C13 UNL     1      -8.971  -2.782  -4.018  1.00  0.00     0.015 A
HETATM   22  C14 UNL     1      -9.043  -1.549  -4.582  1.00  0.00     0.010 A
HETATM   23  C15 UNL     1      -9.370  -0.449  -3.803  1.00  0.00     0.114 A
HETATM   24  O2  UNL     1      -9.592  -0.874  -2.573  1.00  0.00    -0.303 OA
HETATM   25  C16 UNL     1     -10.025  -0.323  -1.411  1.00  0.00     0.133 A
ENDROOT
TORSDOF 0
ENDMDL