MODEL 4
REMARK VINA RESULT: -0.940680752      8.582     12.177
REMARK  3 active torsions:
REMARK  status: ('A' for Active; 'I' for Inactive)
REMARK    1  A    between atoms: C3_5  and  N2_6
REMARK    2  A    between atoms: C4_10  and  C5_11
REMARK    3  A    between atoms: C6_12  and  C7_13
ROOT
HETATM    1  C7  UNL     1     -11.948  -2.565   0.478  1.00  0.00     0.067 A
HETATM    2  S2  UNL     1     -11.283  -1.039   0.146  1.00  0.00    -0.083 SA
HETATM    3  C8  UNL     1     -10.754  -1.312  -1.461  1.00  0.00     0.012 A
HETATM    4  C9  UNL     1     -11.122  -2.611  -1.686  1.00  0.00     0.049 A
HETATM    5  C10 UNL     1     -11.741  -3.261  -0.681  1.00  0.00    -0.009 A
HETATM    6  C11 UNL     1     -12.221  -4.709  -0.769  1.00  0.00     0.052 C
HETATM    7  N3  UNL     1     -10.764  -3.081  -3.016  1.00  0.00    -0.388 N
ATOM      8  H3  UNL     1     -11.360  -3.777  -3.465  1.00  0.00     0.159 HD
HETATM    9  C12 UNL     1      -9.619  -2.611  -3.713  1.00  0.00     0.129 C
HETATM   10  C13 UNL     1      -9.111  -1.279  -3.327  1.00  0.00    -0.027 C
HETATM   11  C14 UNL     1      -7.805  -1.454  -2.571  1.00  0.00     0.016 C
HETATM   12  C15 UNL     1      -8.771  -0.446  -4.565  1.00  0.00     0.016 C
HETATM   13  C16 UNL     1     -10.058  -0.461  -2.501  1.00  0.00     0.059 C
ENDROOT
BRANCH   1  14
HETATM   14  C6  UNL     1     -12.585  -3.018   1.707  1.00  0.00    -0.053 C
HETATM   15  C5  UNL     1     -13.119  -3.410   2.714  1.00  0.00    -0.051 C
BRANCH  15  16
HETATM   16  C4  UNL     1     -13.745  -3.897   3.938  1.00  0.00     0.084 A
HETATM   17  C2  UNL     1     -14.794  -3.363   4.628  1.00  0.00     0.033 A
HETATM   18  C1  UNL     1     -15.467  -2.093   4.134  1.00  0.00     0.070 C
HETATM   19  N1  UNL     1     -15.190  -3.980   5.714  1.00  0.00    -0.339 N
HETATM   20  C3  UNL     1     -14.546  -5.090   6.082  1.00  0.00     0.143 A
ATOM     21  H1  UNL     1     -15.970  -3.621   6.264  1.00  0.00     0.168 HD
HETATM   22  S1  UNL     1     -13.359  -5.268   4.871  1.00  0.00    -0.043 SA
BRANCH  20  23
HETATM   23  N2  UNL     1     -14.800  -5.838   7.134  1.00  0.00    -0.380 N
ATOM     24  H22 UNL     1     -15.451  -6.616   7.244  1.00  0.00     0.158 HD
ATOM     25  H21 UNL     1     -14.371  -5.763   8.056  1.00  0.00     0.158 HD
ENDBRANCH  20  23
ENDBRANCH  15  16
ENDBRANCH   1  14
TORSDOF 3
ENDMDL