MODEL 1
REMARK VINA RESULT: -7.873656183      0.000      0.000
REMARK  0 active torsions:
REMARK  status: ('A' for Active; 'I' for Inactive)
ROOT
HETATM    1  N1  UNL     1      -7.344  -6.480  -3.845  1.00  0.00    -0.191 NA
HETATM    2  C1  UNL     1      -7.763  -5.449  -3.547  1.00  0.00     0.102 C
HETATM    3  C2  UNL     1      -8.272  -4.146  -3.161  1.00  0.00     0.073 A
HETATM    4  C3  UNL     1      -8.617  -3.876  -1.853  1.00  0.00     0.027 A
HETATM    5  C4  UNL     1      -9.103  -2.648  -1.459  1.00  0.00     0.032 A
HETATM    6  C5  UNL     1      -9.241  -1.671  -2.413  1.00  0.00     0.047 A
HETATM    7  C6  UNL     1      -8.905  -1.903  -3.743  1.00  0.00     0.053 A
HETATM    8  C7  UNL     1      -9.010  -0.982  -4.795  1.00  0.00     0.117 A
HETATM    9  C8  UNL     1      -8.644  -1.334  -6.089  1.00  0.00     0.287 A
HETATM   10  O1  UNL     1      -8.755  -0.475  -6.999  1.00  0.00    -0.264 OA
HETATM   11  N2  UNL     1      -8.179  -2.563  -6.372  1.00  0.00    -0.264 N
ATOM     12  H2  UNL     1      -7.911  -2.819  -7.322  1.00  0.00     0.190 HD
HETATM   13  N3  UNL     1      -8.083  -3.414  -5.394  1.00  0.00    -0.295 N
ATOM     14  H3  UNL     1      -7.730  -4.346  -5.610  1.00  0.00     0.187 HD
HETATM   15  C9  UNL     1      -8.417  -3.151  -4.115  1.00  0.00     0.083 A
HETATM   16  N4  UNL     1      -9.459   0.372  -4.782  1.00  0.00    -0.349 N
ATOM     17  H4  UNL     1      -9.797   0.757  -5.664  1.00  0.00     0.166 HD
HETATM   18  C10 UNL     1      -9.479   1.246  -3.636  1.00  0.00     0.060 A
HETATM   19  C11 UNL     1      -9.355   2.568  -3.983  1.00  0.00     0.033 A
HETATM   20  C12 UNL     1      -9.341   3.484  -2.955  1.00  0.00     0.014 A
HETATM   21  C13 UNL     1      -9.447   3.101  -1.637  1.00  0.00    -0.024 A
HETATM   22  C14 UNL     1      -9.419   4.074  -0.658  1.00  0.00     0.012 A
HETATM   23  C15 UNL     1      -9.512   3.718   0.648  1.00  0.00     0.001 A
HETATM   24  C16 UNL     1      -9.635   2.386   1.009  1.00  0.00     0.001 A
HETATM   25  C17 UNL     1      -9.668   1.386   0.041  1.00  0.00     0.014 A
HETATM   26  C18 UNL     1      -9.573   1.764  -1.266  1.00  0.00     0.003 A
HETATM   27  C19 UNL     1      -9.589   0.845  -2.290  1.00  0.00     0.070 A
HETATM   28  N5  UNL     1      -9.768  -0.477  -1.802  1.00  0.00    -0.353 N
ATOM     29  H5  UNL     1     -10.314  -0.591  -0.948  1.00  0.00     0.166 HD
ENDROOT
TORSDOF 0
ENDMDL