MODEL 2
REMARK VINA RESULT: -5.943716397      1.568      1.742
REMARK  3 active torsions:
REMARK  status: ('A' for Active; 'I' for Inactive)
REMARK    1  A    between atoms: C4_5  and  C5_6
REMARK    2  A    between atoms: C8_15  and  N3_16
REMARK    3  A    between atoms: N3_16  and  C9_18
ROOT
HETATM    1  C5  UNL     1     -11.041  -0.733  -0.965  1.00  0.00     0.144 C
HETATM    2  C6  UNL     1     -12.144  -0.418  -1.984  1.00  0.00     0.055 C
HETATM    3  N1  UNL     1     -10.457   0.514  -0.477  1.00  0.00    -0.349 N
ATOM      4  H1  UNL     1     -10.461   0.654   0.533  1.00  0.00     0.163 HD
HETATM    5  C7  UNL     1      -9.887   1.552  -1.255  1.00  0.00     0.142 C
HETATM    6  N2  UNL     1      -9.811   2.683  -0.660  1.00  0.00    -0.380 N
ATOM      7  H21 UNL     1      -9.401   3.431  -1.220  1.00  0.00     0.158 HD
ATOM      8  H22 UNL     1     -10.155   2.750   0.297  1.00  0.00     0.158 HD
HETATM    9  S2  UNL     1      -9.285   1.434  -2.932  1.00  0.00    -0.019 SA
HETATM   10  C8  UNL     1      -8.806  -0.227  -3.267  1.00  0.00     0.151 C
HETATM   11  N4  UNL     1      -9.182  -1.302  -2.696  1.00  0.00    -0.305 N
ATOM     12  H4  UNL     1      -8.747  -2.137  -3.088  1.00  0.00     0.171 HD
HETATM   13  C13 UNL     1     -10.069  -1.583  -1.638  1.00  0.00     0.257 C
HETATM   14  O1  UNL     1     -10.007  -2.762  -1.213  1.00  0.00    -0.270 OA
ENDROOT
BRANCH   1  15
HETATM   15  C4  UNL     1     -11.688  -1.449   0.185  1.00  0.00     0.020 A
HETATM   16  S1  UNL     1     -12.075  -0.769   1.694  1.00  0.00    -0.103 SA
HETATM   17  C3  UNL     1     -12.753  -2.137   2.450  1.00  0.00     0.056 A
HETATM   18  C2  UNL     1     -12.656  -3.102   1.486  1.00  0.00    -0.054 A
HETATM   19  C1  UNL     1     -13.161  -4.512   1.761  1.00  0.00     0.048 C
HETATM   20  C14 UNL     1     -12.103  -2.743   0.310  1.00  0.00     0.024 A
ENDBRANCH   1  15
BRANCH  10  21
HETATM   21  N3  UNL     1      -7.874  -0.388  -4.319  1.00  0.00    -0.362 N
ATOM     22  H3  UNL     1      -6.915  -0.079  -4.160  1.00  0.00     0.162 HD
BRANCH  21  23
HETATM   23  C9  UNL     1      -8.194  -0.961  -5.602  1.00  0.00     0.021 C
HETATM   24  C10 UNL     1      -9.107   0.002  -6.368  1.00  0.00     0.037 C
HETATM   25  C11 UNL     1      -6.970  -1.157  -6.437  1.00  0.00     0.037 C
HETATM   26  C12 UNL     1      -8.883  -2.302  -5.449  1.00  0.00     0.037 C
ENDBRANCH  21  23
ENDBRANCH  10  21
TORSDOF 3
ENDMDL