MODEL 3
REMARK VINA RESULT: -4.357503327      1.554      6.707
REMARK  1 active torsions:
REMARK  status: ('A' for Active; 'I' for Inactive)
REMARK    1  A    between atoms: O1_1  and  C1_3
ROOT
HETATM    1  C1  UNL     1     -11.539   0.273  -1.507  1.00  0.00     0.247 A
HETATM    2  N1  UNL     1     -11.142   0.891  -0.276  1.00  0.00    -0.337 N
ATOM      3  H1  UNL     1     -11.563   0.545   0.586  1.00  0.00     0.164 HD
HETATM    4  C2  UNL     1     -10.205   1.948  -0.171  1.00  0.00     0.058 A
HETATM    5  C3  UNL     1      -9.602   2.265   1.050  1.00  0.00     0.031 A
HETATM    6  C4  UNL     1      -8.699   3.310   1.073  1.00  0.00     0.002 A
HETATM    7  C5  UNL     1      -8.414   4.007  -0.085  1.00  0.00     0.002 A
HETATM    8  C6  UNL     1      -8.991   3.715  -1.283  1.00  0.00     0.031 A
HETATM    9  C7  UNL     1      -9.906   2.657  -1.311  1.00  0.00     0.055 A
HETATM   10  N2  UNL     1     -10.553   2.284  -2.513  1.00  0.00    -0.372 N
ATOM     11  H2  UNL     1     -10.488   2.931  -3.298  1.00  0.00     0.160 HD
HETATM   12  C8  UNL     1     -11.288   1.078  -2.720  1.00  0.00     0.211 A
HETATM   13  C9  UNL     1     -10.404  -0.046  -3.124  1.00  0.00     0.047 A
HETATM   14  C10 UNL     1      -9.532  -0.748  -3.922  1.00  0.00     0.043 A
HETATM   15  C11 UNL     1      -9.265  -1.913  -3.238  1.00  0.00     0.020 A
HETATM   16  C12 UNL     1      -8.456  -3.014  -3.536  1.00  0.00     0.055 A
HETATM   17  N3  UNL     1      -7.791  -2.983  -4.696  1.00  0.00    -0.364 N
ATOM     18  H3  UNL     1      -7.883  -2.183  -5.322  1.00  0.00     0.165 HD
HETATM   19  C13 UNL     1      -7.001  -4.020  -5.026  1.00  0.00     0.088 A
HETATM   20  C14 UNL     1      -6.831  -5.131  -4.230  1.00  0.00     0.018 A
HETATM   21  C15 UNL     1      -7.512  -5.171  -3.033  1.00  0.00     0.015 A
HETATM   22  C16 UNL     1      -8.331  -4.095  -2.692  1.00  0.00    -0.008 A
HETATM   23  C17 UNL     1      -9.037  -4.073  -1.511  1.00  0.00     0.016 A
HETATM   24  C18 UNL     1      -9.842  -2.999  -1.195  1.00  0.00     0.031 A
HETATM   25  C19 UNL     1      -9.967  -1.900  -2.055  1.00  0.00     0.051 A
HETATM   26  N4  UNL     1     -10.654  -0.759  -2.002  1.00  0.00    -0.295 N
ENDROOT
BRANCH   1  27
HETATM   27  O1  UNL     1     -12.850  -0.186  -1.439  1.00  0.00    -0.352 OA
ATOM     28  H1  UNL     1     -13.461   0.465  -1.764  1.00  0.00     0.214 HD
ENDBRANCH   1  27
TORSDOF 1
ENDMDL