MODEL 4
REMARK VINA RESULT: -5.021505645      2.940      6.420
REMARK  1 active torsions:
REMARK  status: ('A' for Active; 'I' for Inactive)
REMARK    1  A    between atoms: N2_11  and  C9_13
ROOT
HETATM    1  C9  UNL     1     -10.652  -0.011  -0.838  1.00  0.00     0.078 A
HETATM    2  C10 UNL     1     -10.082   1.203  -0.517  1.00  0.00     0.020 A
HETATM    3  C11 UNL     1      -9.422   1.980  -1.451  1.00  0.00     0.016 A
HETATM    4  C12 UNL     1      -8.865   3.182  -1.103  1.00  0.00     0.001 A
HETATM    5  C13 UNL     1      -8.930   3.684   0.195  1.00  0.00     0.002 A
HETATM    6  C14 UNL     1      -9.589   2.903   1.116  1.00  0.00     0.030 A
HETATM    7  C15 UNL     1     -10.153   1.695   0.786  1.00  0.00     0.046 A
HETATM    8  N3  UNL     1     -10.775   1.003   1.751  1.00  0.00    -0.340 N
ATOM      9  H3  UNL     1     -10.817   1.379   2.698  1.00  0.00     0.167 HD
HETATM   10  C16 UNL     1     -11.340  -0.180   1.476  1.00  0.00     0.136 A
HETATM   11  N4  UNL     1     -12.014  -1.055   2.260  1.00  0.00    -0.337 N
ATOM     12  H4  UNL     1     -12.219  -0.958   3.255  1.00  0.00     0.168 HD
HETATM   13  C17 UNL     1     -12.356  -2.075   1.462  1.00  0.00     0.182 A
HETATM   14  N5  UNL     1     -11.924  -1.876   0.202  1.00  0.00    -0.347 N
ATOM     15  H5  UNL     1     -12.058  -2.506  -0.589  1.00  0.00     0.167 HD
HETATM   16  C18 UNL     1     -11.284  -0.699   0.177  1.00  0.00     0.105 A
ENDROOT
BRANCH   1  17
HETATM   17  N2  UNL     1     -10.579  -0.505  -2.145  1.00  0.00    -0.319 N
HETATM   18  C8  UNL     1      -9.890  -1.487  -2.555  1.00  0.00     0.225 A
HETATM   19  N1  UNL     1      -9.043  -2.292  -1.750  1.00  0.00    -0.352 N
HETATM   20  O1  UNL     1      -9.964  -1.810  -3.904  1.00  0.00    -0.279 OA
HETATM   21  C7  UNL     1      -8.277  -3.394  -2.236  1.00  0.00     0.164 A
ATOM     22  H1  UNL     1      -8.978  -2.069  -0.758  1.00  0.00     0.163 HD
HETATM   23  C5  UNL     1      -8.451  -3.624  -3.681  1.00  0.00    -0.006 A
HETATM   24  C4  UNL     1      -9.277  -2.844  -4.488  1.00  0.00     0.087 A
HETATM   25  C6  UNL     1      -7.781  -4.648  -4.303  1.00  0.00     0.011 A
HETATM   26  C3  UNL     1      -9.426  -3.072  -5.829  1.00  0.00     0.038 A
HETATM   27  C2  UNL     1      -8.753  -4.098  -6.441  1.00  0.00     0.003 A
HETATM   28  C1  UNL     1      -7.925  -4.886  -5.655  1.00  0.00     0.001 A
ATOM     29  H2  UNL     1     -11.142  -0.022  -2.845  1.00  0.00     0.169 HD
ENDBRANCH   1  17
TORSDOF 1
ENDMDL