MODEL 3
REMARK VINA RESULT: -8.696409306      1.841      3.764
REMARK  0 active torsions:
REMARK  status: ('A' for Active; 'I' for Inactive)
ROOT
HETATM    1  N1  UNL     1      -9.059   1.009  -6.158  1.00  0.00    -0.393 N
ATOM      2  H11 UNL     1      -8.753   0.296  -6.822  1.00  0.00     0.156 HD
ATOM      3  H12 UNL     1      -9.261   2.007  -6.202  1.00  0.00     0.156 HD
HETATM    4  C1  UNL     1      -9.220   0.500  -4.991  1.00  0.00     0.074 C
HETATM    5  S1  UNL     1      -9.754   1.746  -3.831  1.00  0.00    -0.107 SA
HETATM    6  C2  UNL     1      -8.842   1.539  -2.271  1.00  0.00     0.127 C
HETATM    7  C3  UNL     1      -9.584   0.472  -1.510  1.00  0.00     0.049 A
HETATM    8  C4  UNL     1      -9.755  -0.863  -1.655  1.00  0.00     0.074 A
HETATM    9  N2  UNL     1     -10.504  -1.528  -0.758  1.00  0.00    -0.331 N
ATOM     10  H2  UNL     1     -10.635  -2.534  -0.863  1.00  0.00     0.168 HD
HETATM   11  C5  UNL     1     -11.081  -0.895   0.274  1.00  0.00     0.179 A
HETATM   12  S2  UNL     1     -11.997  -1.717   1.369  1.00  0.00    -0.040 SA
HETATM   13  N3  UNL     1     -10.913   0.430   0.418  1.00  0.00    -0.300 N
ATOM     14  H3  UNL     1     -11.356   0.905   1.205  1.00  0.00     0.171 HD
HETATM   15  C6  UNL     1     -10.178   1.144  -0.443  1.00  0.00     0.257 A
HETATM   16  O1  UNL     1      -9.992   2.381  -0.351  1.00  0.00    -0.267 OA
HETATM   17  C7  UNL     1      -9.302  -1.889  -2.622  1.00  0.00     0.072 A
HETATM   18  N4  UNL     1      -9.273  -2.990  -1.816  1.00  0.00    -0.363 N
ATOM     19  H4  UNL     1      -9.541  -2.890  -0.836  1.00  0.00     0.165 HD
HETATM   20  C8  UNL     1      -8.906  -4.199  -2.268  1.00  0.00     0.089 A
HETATM   21  C9  UNL     1      -8.555  -4.319  -3.575  1.00  0.00     0.029 A
HETATM   22  C10 UNL     1      -8.578  -3.199  -4.423  1.00  0.00    -0.021 A
HETATM   23  C11 UNL     1      -8.200  -3.453  -5.727  1.00  0.00     0.012 A
HETATM   24  C12 UNL     1      -8.190  -2.428  -6.639  1.00  0.00     0.002 A
HETATM   25  C13 UNL     1      -8.553  -1.188  -6.228  1.00  0.00     0.015 A
HETATM   26  C14 UNL     1      -8.930  -0.927  -4.929  1.00  0.00     0.010 A
HETATM   27  C15 UNL     1      -8.955  -1.944  -3.963  1.00  0.00     0.016 A
ENDROOT
TORSDOF 0
ENDMDL