MODEL 1
REMARK VINA RESULT: -4.905230921      0.000      0.000
REMARK  9 active torsions:
REMARK  status: ('A' for Active; 'I' for Inactive)
REMARK    1  A    between atoms: C2_2  and  N1_3
REMARK    2  A    between atoms: C2_2  and  C8_13
REMARK       I    between atoms: N1_3  and  C3_5
REMARK    3  A    between atoms: C3_5  and  C4_7
REMARK    4  A    between atoms: C5_8  and  C6_9
REMARK       I    between atoms: C8_13  and  N2_15
REMARK    5  A    between atoms: N2_15  and  C9_17
REMARK    6  A    between atoms: C9_17  and  C10_18
REMARK    7  A    between atoms: C9_17  and  C13_24
REMARK    8  A    between atoms: C10_18  and  C11_20
REMARK    9  A    between atoms: C11_20  and  S3_21
ROOT
HETATM    1  C8  UNL     1     -36.766  -8.451  11.927  1.00  0.00     0.240 C
HETATM    2  O2  UNL     1     -36.484  -7.314  12.386  1.00  0.00    -0.271 OA
HETATM    3  N2  UNL     1     -38.066  -8.989  11.965  1.00  0.00    -0.348 N
ATOM      4  H2  UNL     1     -38.236  -9.919  11.581  1.00  0.00     0.163 HD
ENDROOT
BRANCH   1   5
HETATM    5  C2  UNL     1     -35.644  -9.232  11.324  1.00  0.00     0.172 C
HETATM    6  C1  UNL     1     -36.036 -10.621  10.937  1.00  0.00     0.042 C
BRANCH   5   7
HETATM    7  N1  UNL     1     -34.508  -9.295  12.214  1.00  0.00    -0.345 N
HETATM    8  C3  UNL     1     -33.183  -9.044  11.787  1.00  0.00     0.241 C
HETATM    9  O1  UNL     1     -32.977  -8.748  10.562  1.00  0.00    -0.269 OA
ATOM     10  H1  UNL     1     -34.668  -9.531  13.193  1.00  0.00     0.163 HD
BRANCH   8  11
HETATM   11  C4  UNL     1     -32.070  -9.120  12.717  1.00  0.00     0.071 C
HETATM   12  C5  UNL     1     -30.826  -9.204  12.322  1.00  0.00    -0.005 C
BRANCH  12  13
HETATM   13  C6  UNL     1     -29.699  -9.281  13.282  1.00  0.00     0.091 C
HETATM   14  C7  UNL     1     -28.381  -9.089  12.563  1.00  0.00     0.106 C
HETATM   15  S1  UNL     1     -28.730  -7.336  12.244  1.00  0.00    -0.095 SA
HETATM   16  S2  UNL     1     -29.396  -7.785  14.222  1.00  0.00    -0.088 SA
ENDBRANCH  12  13
ENDBRANCH   8  11
ENDBRANCH   5   7
ENDBRANCH   1   5
BRANCH   3  17
HETATM   17  C9  UNL     1     -39.192  -8.228  12.554  1.00  0.00     0.158 C
BRANCH  17  18
HETATM   18  C10 UNL     1     -39.273  -8.641  13.953  1.00  0.00     0.161 C
HETATM   19  O3  UNL     1     -39.360  -9.874  14.149  1.00  0.00    -0.295 OA
BRANCH  18  20
HETATM   20  C11 UNL     1     -39.267  -7.837  15.171  1.00  0.00     0.188 C
BRANCH  20  21
HETATM   21  S3  UNL     1     -37.759  -7.597  15.982  1.00  0.00     0.018 S
HETATM   22  C12 UNL     1     -37.124  -5.965  15.957  1.00  0.00     0.127 C
HETATM   23  O4  UNL     1     -37.911  -8.093  17.580  1.00  0.00    -0.258 OA
ENDBRANCH  20  21
ENDBRANCH  18  20
ENDBRANCH  17  18
BRANCH  17  24
HETATM   24  C13 UNL     1     -40.404  -8.691  11.737  1.00  0.00     0.007 C
HETATM   25  C14 UNL     1     -40.941  -7.524  10.910  1.00  0.00     0.012 C
HETATM   26  C15 UNL     1     -40.080  -9.786  10.773  1.00  0.00     0.012 C
ENDBRANCH  17  24
ENDBRANCH   3  17
TORSDOF 9
ENDMDL