MODEL 3
REMARK VINA RESULT: -5.244860062      2.339      3.459
REMARK  9 active torsions:
REMARK  status: ('A' for Active; 'I' for Inactive)
REMARK    1  A    between atoms: S1_2  and  N1_5
REMARK    2  A    between atoms: N1_5  and  C2_7
REMARK    3  A    between atoms: C2_7  and  C3_8
REMARK    4  A    between atoms: C2_7  and  C10_15
REMARK    5  A    between atoms: C3_8  and  C4_9
REMARK    6  A    between atoms: C10_15  and  O4_17
REMARK    7  A    between atoms: O4_17  and  C11_18
REMARK    8  A    between atoms: C11_18  and  C12_19
REMARK       I    between atoms: C12_19  and  N2_21
REMARK    9  A    between atoms: N2_21  and  C13_23
ROOT
HETATM    1  C2  UNL     1     -34.335  -2.341   6.733  1.00  0.00     0.192 C
ENDROOT
BRANCH   1   2
HETATM    2  N1  UNL     1     -35.160  -1.397   7.483  1.00  0.00    -0.305 N
ATOM      3  H1  UNL     1     -35.012  -0.389   7.517  1.00  0.00     0.173 HD
BRANCH   2   4
HETATM    4  S1  UNL     1     -36.428  -2.245   8.306  1.00  0.00     0.223 S
HETATM    5  C1  UNL     1     -38.018  -1.594   7.813  1.00  0.00     0.185 C
HETATM    6  O1  UNL     1     -36.298  -2.091   9.764  1.00  0.00    -0.206 OA
HETATM    7  O2  UNL     1     -36.380  -3.670   7.859  1.00  0.00    -0.206 OA
ENDBRANCH   2   4
ENDBRANCH   1   2
BRANCH   1   8
HETATM    8  C3  UNL     1     -34.164  -1.847   5.356  1.00  0.00     0.040 C
BRANCH   8   9
HETATM    9  C4  UNL     1     -34.968  -2.431   4.267  1.00  0.00    -0.012 C
HETATM   10  C5  UNL     1     -34.594  -2.033   2.868  1.00  0.00     0.005 C
HETATM   11  C6  UNL     1     -35.102  -3.157   1.947  1.00  0.00     0.000 C
HETATM   12  C7  UNL     1     -36.591  -3.331   2.100  1.00  0.00     0.000 C
HETATM   13  C8  UNL     1     -37.045  -3.440   3.530  1.00  0.00     0.000 C
HETATM   14  C9  UNL     1     -36.460  -2.348   4.415  1.00  0.00     0.005 C
ENDBRANCH   8   9
ENDBRANCH   1   8
BRANCH   1  15
HETATM   15  C10 UNL     1     -32.949  -2.242   7.379  1.00  0.00     0.282 C
HETATM   16  O3  UNL     1     -32.206  -1.302   7.086  1.00  0.00    -0.263 OA
BRANCH  15  17
HETATM   17  O4  UNL     1     -32.561  -3.198   8.283  1.00  0.00    -0.310 OA
BRANCH  17  18
HETATM   18  C11 UNL     1     -32.943  -3.178   9.639  1.00  0.00     0.281 C
BRANCH  18  19
HETATM   19  C12 UNL     1     -33.308  -4.516  10.145  1.00  0.00     0.242 C
HETATM   20  O5  UNL     1     -34.517  -4.877  10.344  1.00  0.00    -0.271 OA
HETATM   21  N2  UNL     1     -32.296  -5.454  10.432  1.00  0.00    -0.352 N
ATOM     22  H2  UNL     1     -31.317  -5.213  10.276  1.00  0.00     0.163 HD
BRANCH  21  23
HETATM   23  C13 UNL     1     -32.644  -6.743  10.942  1.00  0.00     0.110 C
HETATM   24  C14 UNL     1     -31.795  -7.880  10.411  1.00  0.00     0.053 C
HETATM   25  C15 UNL     1     -32.051  -8.905  11.504  1.00  0.00     0.169 C
HETATM   26  O6  UNL     1     -32.205  -8.224  12.679  1.00  0.00    -0.389 OA
HETATM   27  C16 UNL     1     -32.374  -6.871  12.427  1.00  0.00     0.192 C
ENDBRANCH  21  23
ENDBRANCH  18  19
ENDBRANCH  17  18
ENDBRANCH  15  17
ENDBRANCH   1  15
TORSDOF 9
ENDMDL