MODEL 2
REMARK VINA RESULT: -5.611456152      5.229      8.311
REMARK  11 active torsions:
REMARK  status: ('A' for Active; 'I' for Inactive)
REMARK    1  A    between atoms: C2_2  and  C3_3
REMARK    2  A    between atoms: C5_5  and  C6_6
REMARK    3  A    between atoms: C6_6  and  O1_7
REMARK    4  A    between atoms: O1_7  and  C7_8
REMARK    5  A    between atoms: C10_12  and  C11_13
REMARK    6  A    between atoms: C11_13  and  O3_14
REMARK    7  A    between atoms: C13_17  and  C14_18
REMARK    8  A    between atoms: C14_18  and  C15_19
REMARK    9  A    between atoms: C15_19  and  C16_20
REMARK   10  A    between atoms: C15_19  and  O5_23
REMARK   11  A    between atoms: C16_20  and  O4_21
ROOT
HETATM    1  C7  UNL     1     -33.942  -1.625   6.507  1.00  0.00     0.163 C
HETATM    2  C8  UNL     1     -33.102  -1.547   7.775  1.00  0.00     0.204 C
HETATM    3  O2  UNL     1     -31.991  -0.815   7.464  1.00  0.00    -0.363 OA
HETATM    4  C9  UNL     1     -32.214   0.461   6.970  1.00  0.00     0.231 C
HETATM    5  C10 UNL     1     -30.932   0.825   6.236  1.00  0.00     0.059 C
HETATM    6  C12 UNL     1     -31.123   2.139   5.509  1.00  0.00     0.025 C
HETATM    7  C13 UNL     1     -32.110   1.966   4.408  1.00  0.00     0.081 C
HETATM    8  C18 UNL     1     -33.396   1.576   5.102  1.00  0.00     0.226 C
HETATM    9  O6  UNL     1     -34.442   2.141   4.719  1.00  0.00    -0.273 OA
HETATM   10  N1  UNL     1     -33.343   0.616   6.124  1.00  0.00    -0.322 N
HETATM   11  C19 UNL     1     -34.499  -0.235   6.315  1.00  0.00     0.162 C
ENDROOT
BRANCH   1  12
HETATM   12  O1  UNL     1     -34.896  -2.607   6.558  1.00  0.00    -0.382 OA
BRANCH  12  13
HETATM   13  C6  UNL     1     -36.169  -2.213   6.847  1.00  0.00     0.173 C
BRANCH  13  14
HETATM   14  C5  UNL     1     -37.095  -2.887   5.846  1.00  0.00     0.011 C
HETATM   15  C4  UNL     1     -36.340  -3.857   4.937  1.00  0.00     0.015 C
HETATM   16  C3  UNL     1     -37.106  -3.263   3.771  1.00  0.00     0.008 C
HETATM   17  C20 UNL     1     -37.318  -2.019   4.611  1.00  0.00     0.015 C
BRANCH  16  18
HETATM   18  C2  UNL     1     -36.200  -3.087   2.606  1.00  0.00    -0.032 C
HETATM   19  C1  UNL     1     -36.562  -3.408   1.393  1.00  0.00     0.007 C
ENDBRANCH  16  18
ENDBRANCH  13  14
ENDBRANCH  12  13
ENDBRANCH   1  12
BRANCH   5  20
HETATM   20  C11 UNL     1     -29.853   0.972   7.288  1.00  0.00     0.173 C
BRANCH  20  21
HETATM   21  O3  UNL     1     -30.389   1.042   8.570  1.00  0.00    -0.400 OA
ATOM     22  H3  UNL     1     -29.894   0.517   9.188  1.00  0.00     0.209 HD
ENDBRANCH  20  21
ENDBRANCH   5  20
BRANCH   7  23
HETATM   23  C14 UNL     1     -31.779   0.987   3.346  1.00  0.00     0.048 C
BRANCH  23  24
HETATM   24  C15 UNL     1     -31.997   1.470   1.977  1.00  0.00     0.145 C
BRANCH  24  25
HETATM   25  C16 UNL     1     -33.269   0.755   1.375  1.00  0.00     0.196 C
BRANCH  25  26
HETATM   26  O4  UNL     1     -33.577  -0.353   2.138  1.00  0.00    -0.398 OA
ATOM     27  H4  UNL     1     -34.471  -0.620   1.961  1.00  0.00     0.209 HD
ENDBRANCH  25  26
ENDBRANCH  24  25
BRANCH  24  28
HETATM   28  O5  UNL     1     -31.042   1.263   1.029  1.00  0.00    -0.389 OA
HETATM   29  C17 UNL     1     -29.856   0.734   1.568  1.00  0.00     0.202 C
ENDBRANCH  24  28
ENDBRANCH  23  24
ENDBRANCH   7  23
TORSDOF 11
ENDMDL