MODEL 2
REMARK VINA RESULT: -5.865515632      1.040      1.434
REMARK  8 active torsions:
REMARK  status: ('A' for Active; 'I' for Inactive)
REMARK    1  A    between atoms: C1_2  and  C2_3
REMARK       I    between atoms: C1_2  and  N2_20
REMARK    2  A    between atoms: C2_3  and  N1_4
REMARK    3  A    between atoms: N1_4  and  C3_7
REMARK    4  A    between atoms: C3_7  and  C4_8
REMARK    5  A    between atoms: C4_8  and  C5_9
REMARK    6  A    between atoms: C8_13  and  O3_14
REMARK    7  A    between atoms: O3_14  and  C9_15
REMARK    8  A    between atoms: N2_20  and  C14_22
ROOT
HETATM    1  N1  UNL     1     -34.821   1.974   4.645  1.00  0.00    -0.067 N
ATOM      2  H11 UNL     1     -35.424   2.235   3.864  1.00  0.00     0.277 HD
ATOM      3  H12 UNL     1     -34.282   2.834   4.748  1.00  0.00     0.277 HD
ENDROOT
BRANCH   1   4
HETATM    4  C2  UNL     1     -33.970   0.904   4.270  1.00  0.00     0.334 C
BRANCH   4   5
HETATM    5  C1  UNL     1     -32.692   1.333   3.702  1.00  0.00     0.243 C
HETATM    6  O1  UNL     1     -32.478   2.500   3.306  1.00  0.00    -0.272 OA
HETATM    7  N2  UNL     1     -31.599   0.407   3.575  1.00  0.00    -0.354 N
ATOM      8  H2  UNL     1     -31.722  -0.557   3.886  1.00  0.00     0.162 HD
BRANCH   7   9
HETATM    9  C14 UNL     1     -30.329   0.813   3.015  1.00  0.00     0.099 C
HETATM   10  C15 UNL     1     -29.258   0.017   3.719  1.00  0.00     0.041 C
HETATM   11  C16 UNL     1     -27.971   0.260   2.958  1.00  0.00     0.142 C
HETATM   12  S1  UNL     1     -28.576   0.201   1.263  1.00  0.00     0.146 S
HETATM   13  O4  UNL     1     -27.986   1.322   0.438  1.00  0.00    -0.228 OA
HETATM   14  O5  UNL     1     -28.310  -1.144   0.661  1.00  0.00    -0.228 OA
HETATM   15  C17 UNL     1     -30.317   0.461   1.565  1.00  0.00     0.165 C
ENDBRANCH   7   9
ENDBRANCH   4   5
ENDBRANCH   1   4
BRANCH   1  16
HETATM   16  C3  UNL     1     -35.603   1.735   5.816  1.00  0.00     0.235 C
BRANCH  16  17
HETATM   17  C4  UNL     1     -35.961   0.268   5.905  1.00  0.00     0.062 C
BRANCH  17  18
HETATM   18  C5  UNL     1     -37.430  -0.003   5.794  1.00  0.00     0.152 C
HETATM   19  O2  UNL     1     -38.069  -0.151   7.013  1.00  0.00    -0.383 OA
HETATM   20  C6  UNL     1     -37.803  -1.402   7.512  1.00  0.00     0.171 C
HETATM   21  C7  UNL     1     -37.499  -2.295   6.343  1.00  0.00     0.061 C
HETATM   22  C8  UNL     1     -37.587  -1.355   5.138  1.00  0.00     0.153 C
BRANCH  22  23
HETATM   23  O3  UNL     1     -36.565  -1.609   4.249  1.00  0.00    -0.378 OA
BRANCH  23  24
HETATM   24  C9  UNL     1     -36.254  -2.938   4.113  1.00  0.00     0.122 C
HETATM   25  C10 UNL     1     -34.827  -3.004   3.567  1.00  0.00     0.032 C
HETATM   26  C11 UNL     1     -34.983  -3.113   2.068  1.00  0.00     0.002 C
HETATM   27  C12 UNL     1     -36.454  -3.061   1.753  1.00  0.00     0.002 C
HETATM   28  C13 UNL     1     -37.095  -3.598   3.018  1.00  0.00     0.032 C
ENDBRANCH  23  24
ENDBRANCH  22  23
ENDBRANCH  17  18
ENDBRANCH  16  17
ENDBRANCH   1  16
TORSDOF 8
ENDMDL