MODEL 5
REMARK VINA RESULT: -5.937767005      2.596      8.463
REMARK  8 active torsions:
REMARK  status: ('A' for Active; 'I' for Inactive)
REMARK       I    between atoms: C1_2  and  N1_3
REMARK    1  A    between atoms: C1_2  and  C14_23
REMARK    2  A    between atoms: N1_3  and  C2_5
REMARK    3  A    between atoms: N2_7  and  C4_8
REMARK    4  A    between atoms: C4_8  and  C5_9
REMARK    5  A    between atoms: C5_9  and  O2_10
REMARK    6  A    between atoms: O2_10  and  C6_11
REMARK    7  A    between atoms: C6_11  and  C7_12
REMARK    8  A    between atoms: C7_12  and  C8_13
ROOT
HETATM    1  C2  UNL     1     -32.275  -3.816  10.833  1.00  0.00     0.113 C
HETATM    2  C3  UNL     1     -32.941  -3.560   9.549  1.00  0.00     0.133 C
HETATM    3  N2  UNL     1     -34.309  -3.955   9.589  1.00  0.00    -0.207 NA
HETATM    4  S1  UNL     1     -34.718  -4.174  11.275  1.00  0.00     0.213 S
HETATM    5  O4  UNL     1     -35.921  -3.372  11.645  1.00  0.00    -0.211 OA
HETATM    6  O5  UNL     1     -34.840  -5.619  11.597  1.00  0.00    -0.211 OA
HETATM    7  C13 UNL     1     -33.240  -3.443  11.955  1.00  0.00     0.183 C
ENDROOT
BRANCH   1   8
HETATM    8  N1  UNL     1     -31.804  -5.151  11.046  1.00  0.00    -0.353 N
HETATM    9  C1  UNL     1     -30.491  -5.585  10.725  1.00  0.00     0.248 C
HETATM   10  O1  UNL     1     -29.702  -4.747  10.228  1.00  0.00    -0.271 OA
ATOM     11  H1  UNL     1     -32.450  -5.829  11.451  1.00  0.00     0.163 HD
BRANCH   9  12
HETATM   12  C14 UNL     1     -30.027  -6.957  10.950  1.00  0.00     0.277 C
HETATM   13  C15 UNL     1     -30.984  -7.985  10.354  1.00  0.00     0.044 C
HETATM   14  C16 UNL     1     -30.118  -9.229  10.360  1.00  0.00     0.030 C
HETATM   15  C17 UNL     1     -28.708  -8.707  10.269  1.00  0.00     0.233 C
HETATM   16  N3  UNL     1     -28.811  -7.256  10.220  1.00  0.00    -0.062 N
ATOM     17  H32 UNL     1     -28.785  -6.867   9.277  1.00  0.00     0.278 HD
ATOM     18  H31 UNL     1     -27.986  -6.767  10.567  1.00  0.00     0.278 HD
ENDBRANCH   9  12
ENDBRANCH   1   8
BRANCH   3  19
HETATM   19  C4  UNL     1     -35.093  -2.815   9.109  1.00  0.00     0.133 C
BRANCH  19  20
HETATM   20  C5  UNL     1     -36.057  -3.205   8.025  1.00  0.00     0.183 C
BRANCH  20  21
HETATM   21  O2  UNL     1     -36.567  -2.055   7.485  1.00  0.00    -0.390 OA
BRANCH  21  22
HETATM   22  C6  UNL     1     -37.112  -2.165   6.216  1.00  0.00     0.170 C
BRANCH  22  23
HETATM   23  C7  UNL     1     -37.006  -3.507   5.596  1.00  0.00     0.058 C
BRANCH  23  24
HETATM   24  C8  UNL     1     -36.252  -3.588   4.317  1.00  0.00     0.123 C
HETATM   25  C9  UNL     1     -37.057  -3.255   3.096  1.00  0.00     0.032 C
HETATM   26  C10 UNL     1     -36.316  -3.315   1.816  1.00  0.00     0.004 C
HETATM   27  C11 UNL     1     -34.830  -3.074   2.071  1.00  0.00     0.026 C
HETATM   28  C12 UNL     1     -34.778  -2.146   3.268  1.00  0.00     0.168 C
HETATM   29  O3  UNL     1     -35.045  -2.915   4.386  1.00  0.00    -0.386 OA
ENDBRANCH  23  24
ENDBRANCH  22  23
ENDBRANCH  21  22
ENDBRANCH  20  21
ENDBRANCH  19  20
ENDBRANCH   3  19
TORSDOF 8
ENDMDL