MODEL 1
REMARK VINA RESULT: -5.323943240      0.000      0.000
REMARK  8 active torsions:
REMARK  status: ('A' for Active; 'I' for Inactive)
REMARK    1  A    between atoms: C1_2  and  C2_3
REMARK       I    between atoms: C1_2  and  N3_23
REMARK    2  A    between atoms: C2_3  and  C3_4
REMARK    3  A    between atoms: C3_4  and  C4_5
REMARK       I    between atoms: C4_5  and  N1_7
REMARK    4  A    between atoms: N1_7  and  C5_8
REMARK    5  A    between atoms: N1_7  and  C10_17
REMARK    6  A    between atoms: C5_8  and  C6_9
REMARK    7  A    between atoms: C10_17  and  C11_18
REMARK    8  A    between atoms: N3_23  and  C14_25
ROOT
HETATM    1  C4  UNL     1     -33.430  -1.821   8.086  1.00  0.00     0.220 C
HETATM    2  O2  UNL     1     -32.515  -2.730   8.090  1.00  0.00    -0.273 OA
HETATM    3  N1  UNL     1     -34.712  -2.152   8.555  1.00  0.00    -0.345 N
ENDROOT
BRANCH   3   4
HETATM    4  C5  UNL     1     -35.790  -1.241   8.487  1.00  0.00     0.159 C
BRANCH   4   5
HETATM    5  C6  UNL     1     -36.502  -1.033   7.221  1.00  0.00     0.165 C
HETATM    6  C7  UNL     1     -36.648   0.362   6.795  1.00  0.00     0.265 C
HETATM    7  N2  UNL     1     -37.328   0.416   5.469  1.00  0.00    -0.071 N
HETATM    8  C8  UNL     1     -38.656  -0.114   5.778  1.00  0.00     0.258 C
ATOM      9  H22 UNL     1     -37.324   1.332   5.020  1.00  0.00     0.277 HD
ATOM     10  H21 UNL     1     -36.838  -0.064   4.714  1.00  0.00     0.277 HD
HETATM   11  C9  UNL     1     -38.537  -1.518   6.206  1.00  0.00     0.196 C
HETATM   12  O3  UNL     1     -37.640  -1.807   7.185  1.00  0.00    -0.381 OA
ENDBRANCH   4   5
ENDBRANCH   3   4
BRANCH   3  13
HETATM   13  C10 UNL     1     -34.860  -3.502   9.116  1.00  0.00     0.186 C
BRANCH  13  14
HETATM   14  C11 UNL     1     -36.171  -3.659   9.834  1.00  0.00     0.277 C
HETATM   15  O4  UNL     1     -36.044  -4.261  11.069  1.00  0.00    -0.358 OA
HETATM   16  C12 UNL     1     -37.331  -4.740  11.304  1.00  0.00     0.197 C
HETATM   17  C13 UNL     1     -37.972  -4.943   9.953  1.00  0.00     0.197 C
HETATM   18  O5  UNL     1     -36.924  -4.588   9.100  1.00  0.00    -0.358 OA
ENDBRANCH  13  14
ENDBRANCH   3  13
BRANCH   1  19
HETATM   19  C3  UNL     1     -33.083  -0.499   7.607  1.00  0.00     0.112 C
BRANCH  19  20
HETATM   20  C2  UNL     1     -32.607  -0.458   6.178  1.00  0.00     0.112 C
BRANCH  20  21
HETATM   21  C1  UNL     1     -33.613  -0.613   5.153  1.00  0.00     0.218 C
HETATM   22  O1  UNL     1     -34.113   0.365   4.564  1.00  0.00    -0.274 OA
HETATM   23  N3  UNL     1     -34.046  -1.916   4.805  1.00  0.00    -0.356 N
ATOM     24  H3  UNL     1     -33.645  -2.728   5.274  1.00  0.00     0.162 HD
BRANCH  23  25
HETATM   25  C14 UNL     1     -35.059  -2.096   3.780  1.00  0.00     0.084 C
HETATM   26  C15 UNL     1     -34.452  -2.352   2.432  1.00  0.00     0.025 C
HETATM   27  C16 UNL     1     -35.228  -3.346   1.618  1.00  0.00     0.002 C
HETATM   28  C17 UNL     1     -36.705  -3.322   1.867  1.00  0.00     0.000 C
HETATM   29  C18 UNL     1     -37.085  -3.371   3.309  1.00  0.00     0.002 C
HETATM   30  C19 UNL     1     -35.847  -3.346   4.175  1.00  0.00     0.025 C
ENDBRANCH  23  25
ENDBRANCH  20  21
ENDBRANCH  19  20
ENDBRANCH   1  19
TORSDOF 8
ENDMDL