MODEL 2
REMARK VINA RESULT: -4.751591129      2.696      7.351
REMARK  10 active torsions:
REMARK  status: ('A' for Active; 'I' for Inactive)
REMARK       I    between atoms: C2_2  and  N1_4
REMARK    1  A    between atoms: N1_4  and  C3_6
REMARK    2  A    between atoms: C3_6  and  C4_7
REMARK    3  A    between atoms: C3_6  and  C8_11
REMARK    4  A    between atoms: C4_7  and  C5_8
REMARK    5  A    between atoms: C8_11  and  O2_12
REMARK    6  A    between atoms: C8_11  and  C9_14
REMARK    7  A    between atoms: C10_16  and  C11_17
REMARK    8  A    between atoms: C11_17  and  C13_19
REMARK    9  A    between atoms: C11_17  and  C16_23
REMARK   10  A    between atoms: C16_23  and  S1_24
ROOT
HETATM    1  C13 UNL     1     -31.326  -7.303  11.210  1.00  0.00    -0.077 C
HETATM    2  C14 UNL     1     -30.257  -7.660  10.778  1.00  0.00     0.014 C
HETATM    3  C15 UNL     1     -28.993  -8.058  10.283  1.00  0.00     0.152 C
HETATM    4  N2  UNL     1     -27.951  -8.377   9.892  1.00  0.00    -0.182 NA
ENDROOT
BRANCH   1   5
HETATM    5  C11 UNL     1     -32.645  -6.886  11.760  1.00  0.00     0.062 C
HETATM    6  C12 UNL     1     -32.334  -6.238  13.084  1.00  0.00     0.033 C
BRANCH   5   7
HETATM    7  C10 UNL     1     -33.427  -8.169  11.925  1.00  0.00     0.174 A
HETATM    8  C9  UNL     1     -34.809  -8.148  11.688  1.00  0.00     0.183 A
HETATM    9  O3  UNL     1     -33.845  -8.709  10.715  1.00  0.00    -0.371 OA
BRANCH   8  10
HETATM   10  C8  UNL     1     -35.790  -9.248  12.020  1.00  0.00     0.172 C
BRANCH  10  11
HETATM   11  C3  UNL     1     -37.138  -8.656  12.448  1.00  0.00     0.116 C
BRANCH  11  12
HETATM   12  N1  UNL     1     -37.033  -8.039  13.752  1.00  0.00    -0.354 N
HETATM   13  C2  UNL     1     -37.868  -8.357  14.853  1.00  0.00     0.214 C
HETATM   14  C1  UNL     1     -37.773  -7.742  16.174  1.00  0.00     0.117 C
HETATM   15  O1  UNL     1     -38.755  -9.250  14.634  1.00  0.00    -0.274 OA
ATOM     16  H1  UNL     1     -36.312  -7.329  13.888  1.00  0.00     0.162 HD
ENDBRANCH  11  12
BRANCH  11  17
HETATM   17  C4  UNL     1     -37.498  -7.621  11.446  1.00  0.00     0.031 C
BRANCH  17  18
HETATM   18  C5  UNL     1     -38.818  -6.961  11.648  1.00  0.00    -0.021 C
HETATM   19  C6  UNL     1     -40.006  -7.817  11.422  1.00  0.00     0.009 C
HETATM   20  C7  UNL     1     -38.939  -5.716  10.795  1.00  0.00     0.009 C
ENDBRANCH  17  18
ENDBRANCH  11  17
ENDBRANCH  10  11
BRANCH  10  21
HETATM   21  O2  UNL     1     -35.312 -10.165  12.925  1.00  0.00    -0.391 OA
ATOM     22  H2  UNL     1     -34.363 -10.165  12.972  1.00  0.00     0.210 HD
ENDBRANCH  10  21
ENDBRANCH   8  10
ENDBRANCH   5   7
BRANCH   5  23
HETATM   23  C16 UNL     1     -33.284  -6.012  10.769  1.00  0.00     0.164 C
BRANCH  23  24
HETATM   24  S1  UNL     1     -32.792  -4.368  10.611  1.00  0.00     0.142 S
HETATM   25  C17 UNL     1     -33.182  -3.283  11.917  1.00  0.00     0.161 C
HETATM   26  O4  UNL     1     -31.308  -4.211  10.292  1.00  0.00    -0.228 OA
HETATM   27  O5  UNL     1     -33.484  -3.815   9.364  1.00  0.00    -0.228 OA
ENDBRANCH  23  24
ENDBRANCH   5  23
ENDBRANCH   1   5
TORSDOF 10
ENDMDL