MODEL 4
REMARK VINA RESULT: -5.610857028      1.180      1.908
REMARK  8 active torsions:
REMARK  status: ('A' for Active; 'I' for Inactive)
REMARK    1  A    between atoms: C2_2  and  O1_3
REMARK    2  A    between atoms: O1_3  and  C3_4
REMARK    3  A    between atoms: C3_4  and  C4_5
REMARK    4  A    between atoms: C4_5  and  N1_6
REMARK    5  A    between atoms: N1_6  and  S1_8
REMARK    6  A    between atoms: S1_8  and  O4_11
REMARK    7  A    between atoms: O4_11  and  C5_12
REMARK    8  A    between atoms: C7_17  and  C8_18
ROOT
HETATM    1  C5  UNL     1     -33.563  -8.149  11.340  1.00  0.00     0.259 C
HETATM    2  C6  UNL     1     -33.933  -6.742  11.659  1.00  0.00     0.250 C
HETATM    3  O5  UNL     1     -34.750  -6.219  12.480  1.00  0.00    -0.271 OA
HETATM    4  N2  UNL     1     -33.004  -6.299  10.678  1.00  0.00    -0.350 N
ATOM      5  H2  UNL     1     -32.777  -5.384  10.290  1.00  0.00     0.163 HD
HETATM    6  C7  UNL     1     -32.501  -7.636  10.436  1.00  0.00     0.132 C
ENDROOT
BRANCH   1   7
HETATM    7  O4  UNL     1     -34.546  -8.816  10.647  1.00  0.00    -0.242 OA
BRANCH   7   8
HETATM    8  S1  UNL     1     -35.660  -9.560  11.645  1.00  0.00     0.358 S
HETATM    9  O2  UNL     1     -35.057 -10.159  12.864  1.00  0.00    -0.176 OA
HETATM   10  O3  UNL     1     -36.415 -10.635  10.911  1.00  0.00    -0.176 OA
BRANCH   8  11
HETATM   11  N1  UNL     1     -36.819  -8.387  12.159  1.00  0.00    -0.295 N
ATOM     12  H1  UNL     1     -36.673  -7.382  12.262  1.00  0.00     0.174 HD
BRANCH  11  13
HETATM   13  C4  UNL     1     -38.063  -9.138  12.420  1.00  0.00     0.160 C
BRANCH  13  14
HETATM   14  C3  UNL     1     -38.383  -9.075  13.874  1.00  0.00     0.188 C
BRANCH  14  15
HETATM   15  O1  UNL     1     -39.473  -9.807  14.233  1.00  0.00    -0.390 OA
BRANCH  15  16
HETATM   16  C2  UNL     1     -40.639  -9.150  13.875  1.00  0.00     0.163 C
HETATM   17  C1  UNL     1     -41.744 -10.187  13.778  1.00  0.00     0.033 C
ENDBRANCH  15  16
ENDBRANCH  14  15
ENDBRANCH  13  14
ENDBRANCH  11  13
ENDBRANCH   8  11
ENDBRANCH   7   8
ENDBRANCH   1   7
BRANCH   6  18
HETATM   18  C8  UNL     1     -31.079  -7.764  10.930  1.00  0.00    -0.016 C
HETATM   19  C9  UNL     1     -31.060  -8.162  12.390  1.00  0.00     0.016 C
HETATM   20  C10 UNL     1     -29.638  -8.397  12.820  1.00  0.00    -0.013 C
HETATM   21  C11 UNL     1     -28.817  -7.132  12.636  1.00  0.00     0.009 C
HETATM   22  C15 UNL     1     -28.970  -9.486  12.022  1.00  0.00     0.009 C
HETATM   23  C12 UNL     1     -28.871  -6.748  11.178  1.00  0.00    -0.013 C
HETATM   24  C13 UNL     1     -28.281  -7.816  10.288  1.00  0.00     0.009 C
HETATM   25  C17 UNL     1     -30.293  -6.489  10.793  1.00  0.00     0.016 C
HETATM   26  C14 UNL     1     -28.994  -9.107  10.577  1.00  0.00    -0.013 C
HETATM   27  C16 UNL     1     -30.449  -8.906  10.155  1.00  0.00     0.016 C
ENDBRANCH   6  18
TORSDOF 8
ENDMDL