MODEL 1
REMARK VINA RESULT: -5.688539344      0.000      0.000
REMARK  9 active torsions:
REMARK  status: ('A' for Active; 'I' for Inactive)
REMARK    1  A    between atoms: O1_2  and  C2_3
REMARK    2  A    between atoms: C2_3  and  C3_5
REMARK    3  A    between atoms: C3_5  and  C4_6
REMARK       I    between atoms: N1_7  and  C5_9
REMARK    4  A    between atoms: C5_9  and  C6_11
REMARK    5  A    between atoms: C9_14  and  C10_15
REMARK    6  A    between atoms: C10_15  and  S1_16
REMARK    7  A    between atoms: S1_16  and  N2_18
REMARK    8  A    between atoms: N2_18  and  C11_20
REMARK    9  A    between atoms: C11_20  and  C12_21
ROOT
HETATM    1  C6  UNL     1     -34.294  -8.533  11.251  1.00  0.00     0.277 C
HETATM    2  C7  UNL     1     -34.400  -7.056  11.551  1.00  0.00     0.043 C
HETATM    3  C8  UNL     1     -33.143  -6.378  11.052  1.00  0.00     0.010 C
HETATM    4  C9  UNL     1     -31.916  -7.130  11.479  1.00  0.00     0.025 C
HETATM    5  C16 UNL     1     -32.306  -8.103  12.547  1.00  0.00     0.238 C
HETATM    6  N3  UNL     1     -33.251  -9.072  12.089  1.00  0.00    -0.062 N
ATOM      7  H31 UNL     1     -32.775  -9.839  11.615  1.00  0.00     0.278 HD
ATOM      8  H32 UNL     1     -33.654  -9.577  12.878  1.00  0.00     0.278 HD
ENDROOT
BRANCH   4   9
HETATM    9  C10 UNL     1     -30.859  -6.180  11.997  1.00  0.00     0.138 C
BRANCH   9  10
HETATM   10  S1  UNL     1     -30.328  -5.129  10.666  1.00  0.00     0.110 S
HETATM   11  O4  UNL     1     -30.463  -3.508  11.079  1.00  0.00    -0.236 OA
BRANCH  10  12
HETATM   12  N2  UNL     1     -28.665  -5.443  10.318  1.00  0.00    -0.338 N
ATOM     13  H2  UNL     1     -28.139  -5.087   9.520  1.00  0.00     0.169 HD
BRANCH  12  14
HETATM   14  C11 UNL     1     -28.153  -6.304  11.366  1.00  0.00     0.161 C
BRANCH  14  15
HETATM   15  C12 UNL     1     -27.445  -7.483  10.702  1.00  0.00     0.139 C
HETATM   16  C13 UNL     1     -27.311  -8.554  11.766  1.00  0.00     0.035 C
HETATM   17  C14 UNL     1     -28.708  -9.161  11.709  1.00  0.00     0.029 C
HETATM   18  C15 UNL     1     -29.043  -8.990  10.252  1.00  0.00     0.168 C
HETATM   19  O5  UNL     1     -28.224  -8.036   9.722  1.00  0.00    -0.384 OA
ENDBRANCH  14  15
ENDBRANCH  12  14
ENDBRANCH  10  12
ENDBRANCH   9  10
ENDBRANCH   4   9
BRANCH   1  20
HETATM   20  C5  UNL     1     -35.547  -9.256  11.497  1.00  0.00     0.252 C
HETATM   21  N1  UNL     1     -36.593  -8.747  12.329  1.00  0.00    -0.339 N
HETATM   22  C4  UNL     1     -37.813  -8.992  11.983  1.00  0.00     0.073 C
ATOM     23  H1  UNL     1     -36.382  -8.209  13.168  1.00  0.00     0.167 HD
HETATM   24  O3  UNL     1     -35.704 -10.378  10.947  1.00  0.00    -0.271 OA
BRANCH  22  25
HETATM   25  C3  UNL     1     -38.983  -8.523  12.756  1.00  0.00     0.155 C
BRANCH  25  26
HETATM   26  C2  UNL     1     -38.989  -9.184  14.069  1.00  0.00     0.263 C
HETATM   27  O2  UNL     1     -39.890  -9.994  14.435  1.00  0.00    -0.265 OA
BRANCH  26  28
HETATM   28  O1  UNL     1     -37.979  -8.945  14.996  1.00  0.00    -0.326 OA
HETATM   29  C1  UNL     1     -37.848  -7.689  15.621  1.00  0.00     0.213 C
ENDBRANCH  26  28
ENDBRANCH  25  26
ENDBRANCH  22  25
ENDBRANCH   1  20
TORSDOF 9
ENDMDL