MODEL 5
REMARK VINA RESULT: -5.045270050      1.580      2.331
REMARK  10 active torsions:
REMARK  status: ('A' for Active; 'I' for Inactive)
REMARK    1  A    between atoms: C1_2  and  O2_3
REMARK    2  A    between atoms: C1_2  and  C9_15
REMARK    3  A    between atoms: O2_3  and  C2_4
REMARK    4  A    between atoms: C2_4  and  C3_5
REMARK    5  A    between atoms: C3_5  and  C4_7
REMARK    6  A    between atoms: N2_18  and  S1_19
REMARK    7  A    between atoms: S1_19  and  C12_22
REMARK    8  A    between atoms: C12_22  and  C13_23
REMARK    9  A    between atoms: C13_23  and  C14_24
REMARK   10  A    between atoms: C14_24  and  O6_25
ROOT
HETATM    1  C9  UNL     1     -35.473  -7.563  11.144  1.00  0.00     0.088 C
HETATM    2  C10 UNL     1     -34.456  -6.459  11.183  1.00  0.00     0.035 C
HETATM    3  C11 UNL     1     -33.322  -6.762  12.137  1.00  0.00     0.136 C
HETATM    4  N2  UNL     1     -32.765  -8.058  12.011  1.00  0.00    -0.311 N
HETATM    5  C15 UNL     1     -33.650  -9.147  11.799  1.00  0.00     0.136 C
HETATM    6  C16 UNL     1     -34.810  -8.859  10.875  1.00  0.00     0.035 C
ENDROOT
BRANCH   1   7
HETATM    7  C1  UNL     1     -36.366  -7.539  12.326  1.00  0.00     0.263 C
HETATM    8  O1  UNL     1     -36.554  -6.428  12.922  1.00  0.00    -0.265 OA
BRANCH   7   9
HETATM    9  O2  UNL     1     -37.006  -8.656  12.811  1.00  0.00    -0.314 OA
BRANCH   9  10
HETATM   10  C2  UNL     1     -38.412  -8.711  12.771  1.00  0.00     0.259 C
BRANCH  10  11
HETATM   11  C3  UNL     1     -39.019  -8.982  14.098  1.00  0.00     0.181 C
HETATM   12  O3  UNL     1     -39.610 -10.010  14.343  1.00  0.00    -0.293 OA
BRANCH  11  13
HETATM   13  C4  UNL     1     -38.891  -7.952  15.151  1.00  0.00     0.257 C
HETATM   14  C5  UNL     1     -39.503  -6.666  14.683  1.00  0.00     0.041 C
HETATM   15  C6  UNL     1     -39.291  -5.554  15.696  1.00  0.00     0.004 C
HETATM   16  C7  UNL     1     -37.812  -5.475  16.067  1.00  0.00     0.027 C
HETATM   17  C8  UNL     1     -37.310  -6.836  16.506  1.00  0.00     0.233 C
HETATM   18  N1  UNL     1     -37.528  -7.877  15.563  1.00  0.00    -0.064 N
ATOM     19  H12 UNL     1     -37.201  -8.774  15.921  1.00  0.00     0.278 HD
ATOM     20  H11 UNL     1     -36.905  -7.786  14.760  1.00  0.00     0.278 HD
ENDBRANCH  11  13
ENDBRANCH  10  11
ENDBRANCH   9  10
ENDBRANCH   7   9
ENDBRANCH   1   7
BRANCH   4  21
HETATM   21  S1  UNL     1     -31.268  -8.168  11.256  1.00  0.00     0.228 S
HETATM   22  O4  UNL     1     -31.006  -6.899  10.486  1.00  0.00    -0.206 OA
HETATM   23  O5  UNL     1     -31.222  -9.301  10.271  1.00  0.00    -0.206 OA
BRANCH  21  24
HETATM   24  C12 UNL     1     -29.912  -8.400  12.391  1.00  0.00     0.165 C
BRANCH  24  25
HETATM   25  C13 UNL     1     -28.928  -9.310  11.683  1.00  0.00     0.043 C
BRANCH  25  26
HETATM   26  C14 UNL     1     -27.912  -8.468  10.941  1.00  0.00     0.165 C
BRANCH  26  27
HETATM   27  O6  UNL     1     -28.309  -8.318   9.598  1.00  0.00    -0.401 OA
ATOM     28  H6  UNL     1     -27.616  -7.897   9.104  1.00  0.00     0.209 HD
ENDBRANCH  26  27
ENDBRANCH  25  26
ENDBRANCH  24  25
ENDBRANCH  21  24
ENDBRANCH   4  21
TORSDOF 10
ENDMDL