MODEL 4
REMARK VINA RESULT: -6.373612539      1.538      2.026
REMARK  5 active torsions:
REMARK  status: ('A' for Active; 'I' for Inactive)
REMARK       I    between atoms: C2_2  and  N1_4
REMARK    1  A    between atoms: N1_4  and  C3_6
REMARK    2  A    between atoms: C3_6  and  C5_9
REMARK    3  A    between atoms: C5_9  and  S1_10
REMARK    4  A    between atoms: S1_10  and  S2_11
REMARK    5  A    between atoms: S2_11  and  C6_12
ROOT
HETATM    1  C3  UNL     1       5.110 -13.108  28.167  1.00  0.00     0.202 C
HETATM    2  C4  UNL     1       6.443 -13.635  27.788  1.00  0.00     0.085 C
HETATM    3  N2  UNL     1       7.476 -14.059  27.484  1.00  0.00    -0.195 NA
ENDROOT
BRANCH   1   4
HETATM    4  N1  UNL     1       4.954 -13.400  29.573  1.00  0.00    -0.344 N
HETATM    5  C2  UNL     1       4.145 -14.489  29.967  1.00  0.00     0.214 C
HETATM    6  C1  UNL     1       3.970 -14.810  31.401  1.00  0.00     0.117 C
HETATM    7  O1  UNL     1       3.581 -15.178  29.098  1.00  0.00    -0.274 OA
ATOM      8  H1  UNL     1       5.423 -12.827  30.273  1.00  0.00     0.163 HD
ENDBRANCH   1   4
BRANCH   1   9
HETATM    9  C5  UNL     1       5.139 -11.616  27.914  1.00  0.00     0.126 C
BRANCH   9  10
HETATM   10  S1  UNL     1       3.481 -10.915  27.833  1.00  0.00    -0.094 SA
BRANCH  10  11
HETATM   11  S2  UNL     1       3.361  -9.813  26.017  1.00  0.00    -0.093 SA
BRANCH  11  12
HETATM   12  C6  UNL     1       2.754  -8.176  26.387  1.00  0.00     0.058 C
HETATM   13  C7  UNL     1       2.322  -7.396  25.188  1.00  0.00     0.016 C
HETATM   14  C8  UNL     1       1.425  -6.335  25.806  1.00  0.00     0.001 C
HETATM   15  C9  UNL     1       0.776  -6.996  27.003  1.00  0.00     0.001 C
HETATM   16  C10 UNL     1       1.430  -8.332  27.148  1.00  0.00     0.016 C
ENDBRANCH  11  12
ENDBRANCH  10  11
ENDBRANCH   9  10
ENDBRANCH   1   9
TORSDOF 5
ENDMDL