MODEL 1
REMARK VINA RESULT: -6.219358419      0.000      0.000
REMARK  5 active torsions:
REMARK  status: ('A' for Active; 'I' for Inactive)
REMARK    1  A    between atoms: N1_2  and  C3_4
REMARK    2  A    between atoms: C3_4  and  C4_5
REMARK    3  A    between atoms: C4_5  and  N2_6
REMARK    4  A    between atoms: N2_6  and  C5_8
REMARK    5  A    between atoms: C8_12  and  C9_13
ROOT
HETATM    1  C9  UNL     1       0.256  -8.375  28.717  1.00  0.00     0.165 C
HETATM    2  C10 UNL     1       0.209  -7.288  29.690  1.00  0.00     0.063 C
HETATM    3  N3  UNL     1       0.164  -6.441  30.472  1.00  0.00    -0.197 NA
ENDROOT
BRANCH   1   4
HETATM    4  C8  UNL     1       1.301  -8.078  27.634  1.00  0.00    -0.004 A
HETATM    5  C5  UNL     1       2.437  -8.852  27.566  1.00  0.00     0.078 A
HETATM    6  S1  UNL     1       3.282  -8.176  26.242  1.00  0.00    -0.076 SA
HETATM    7  C6  UNL     1       2.195  -6.948  25.812  1.00  0.00    -0.008 A
HETATM    8  C7  UNL     1       1.184  -7.085  26.711  1.00  0.00    -0.035 A
HETATM    9  C13 UNL     1       1.934  -5.809  24.852  1.00  0.00     0.047 C
HETATM   10  C11 UNL     1       0.152  -6.003  26.385  1.00  0.00     0.040 C
HETATM   11  C12 UNL     1       0.995  -4.966  25.694  1.00  0.00     0.010 C
BRANCH   5  12
HETATM   12  N2  UNL     1       2.799  -9.943  28.413  1.00  0.00    -0.382 N
ATOM     13  H2  UNL     1       2.684  -9.877  29.425  1.00  0.00     0.160 HD
BRANCH  12  14
HETATM   14  C4  UNL     1       3.327 -11.135  27.813  1.00  0.00     0.150 C
BRANCH  14  15
HETATM   15  C3  UNL     1       4.771 -11.348  28.113  1.00  0.00     0.290 C
BRANCH  15  16
HETATM   16  N1  UNL     1       5.061 -12.777  28.023  1.00  0.00     0.081 N
HETATM   17  C1  UNL     1       4.481 -13.383  29.232  1.00  0.00     0.309 C
HETATM   18  C2  UNL     1       6.499 -13.012  28.082  1.00  0.00     0.309 C
ENDBRANCH  15  16
ENDBRANCH  14  15
ENDBRANCH  12  14
ENDBRANCH   5  12
ENDBRANCH   1   4
TORSDOF 5
ENDMDL