MODEL 2
REMARK VINA RESULT: -6.122769678      1.631      3.097
REMARK  6 active torsions:
REMARK  status: ('A' for Active; 'I' for Inactive)
REMARK    1  A    between atoms: C2_2  and  C4_4
REMARK    2  A    between atoms: C4_4  and  C5_5
REMARK    3  A    between atoms: C5_5  and  O1_6
REMARK    4  A    between atoms: C5_5  and  C6_8
REMARK    5  A    between atoms: C6_8  and  C8_10
REMARK    6  A    between atoms: C12_16  and  C13_17
ROOT
HETATM    1  C8  UNL     1       4.542 -11.655  28.133  1.00  0.00     0.167 C
HETATM    2  O2  UNL     1       3.915 -12.504  29.037  1.00  0.00    -0.347 OA
HETATM    3  C9  UNL     1       4.413 -13.769  28.900  1.00  0.00     0.158 C
HETATM    4  C10 UNL     1       5.294 -14.190  30.059  1.00  0.00     0.078 C
HETATM    5  C11 UNL     1       3.231 -14.728  28.908  1.00  0.00     0.078 C
HETATM    6  O3  UNL     1       5.130 -13.843  27.722  1.00  0.00    -0.341 OA
HETATM    7  C12 UNL     1       5.583 -12.537  27.510  1.00  0.00     0.215 C
ENDROOT
BRANCH   1   8
HETATM    8  C6  UNL     1       3.588 -11.187  27.047  1.00  0.00     0.042 C
HETATM    9  C7  UNL     1       4.378 -10.762  25.883  1.00  0.00     0.015 C
BRANCH   8  10
HETATM   10  C5  UNL     1       2.567 -10.225  27.603  1.00  0.00     0.124 C
BRANCH  10  11
HETATM   11  C4  UNL     1       1.808  -9.421  26.626  1.00  0.00     0.036 C
BRANCH  11  12
HETATM   12  C2  UNL     1       2.110  -7.992  26.439  1.00  0.00    -0.020 C
HETATM   13  C1  UNL     1       2.164  -7.590  24.955  1.00  0.00     0.009 C
HETATM   14  C3  UNL     1       0.882  -7.211  26.959  1.00  0.00     0.009 C
ENDBRANCH  11  12
ENDBRANCH  10  11
BRANCH  10  15
HETATM   15  O1  UNL     1       3.333  -9.310  28.413  1.00  0.00    -0.395 OA
ATOM     16  H1  UNL     1       3.205  -9.559  29.322  1.00  0.00     0.210 HD
ENDBRANCH  10  15
ENDBRANCH   8  10
ENDBRANCH   1   8
BRANCH   7  17
HETATM   17  C13 UNL     1       6.887 -12.303  28.191  1.00  0.00     0.265 C
HETATM   18  O4  UNL     1       7.591 -11.363  27.882  1.00  0.00    -0.304 OA
ENDBRANCH   7  17
TORSDOF 6
ENDMDL