MODEL 4
REMARK VINA RESULT: -5.844187422      1.405      6.573
REMARK  5 active torsions:
REMARK  status: ('A' for Active; 'I' for Inactive)
REMARK    1  A    between atoms: N1_2  and  C3_4
REMARK    2  A    between atoms: C3_4  and  C4_5
REMARK    3  A    between atoms: C4_5  and  C5_6
REMARK    4  A    between atoms: C5_6  and  N2_7
REMARK    5  A    between atoms: C6_10  and  C7_11
ROOT
HETATM    1  N2  UNL     1       4.085 -11.062  27.075  1.00  0.00    -0.266 N
HETATM    2  N3  UNL     1       3.597 -11.640  28.164  1.00  0.00    -0.284 N
ATOM      3  H3  UNL     1       2.771 -11.332  28.677  1.00  0.00     0.188 HD
HETATM    4  C6  UNL     1       4.364 -12.697  28.482  1.00  0.00     0.102 A
HETATM    5  N4  UNL     1       5.343 -12.788  27.590  1.00  0.00    -0.320 N
ATOM      6  H4  UNL     1       6.086 -13.488  27.565  1.00  0.00     0.169 HD
HETATM    7  C11 UNL     1       5.160 -11.762  26.717  1.00  0.00     0.194 A
HETATM    8  S1  UNL     1       6.132 -11.460  25.426  1.00  0.00    -0.039 SA
ENDROOT
BRANCH   1   9
HETATM    9  C5  UNL     1       3.582  -9.908  26.391  1.00  0.00     0.153 C
BRANCH   9  10
HETATM   10  C4  UNL     1       2.056  -9.814  26.485  1.00  0.00     0.052 C
BRANCH  10  11
HETATM   11  C3  UNL     1       1.697  -8.374  26.421  1.00  0.00     0.273 C
BRANCH  11  12
HETATM   12  N1  UNL     1       1.898  -7.755  25.150  1.00  0.00     0.080 N
HETATM   13  C1  UNL     1       2.545  -6.472  25.390  1.00  0.00     0.309 C
HETATM   14  C2  UNL     1       0.696  -7.504  24.418  1.00  0.00     0.309 C
ENDBRANCH  11  12
ENDBRANCH  10  11
ENDBRANCH   9  10
ENDBRANCH   1   9
BRANCH   4  15
HETATM   15  C7  UNL     1       4.138 -13.586  29.627  1.00  0.00     0.055 C
HETATM   16  C8  UNL     1       5.404 -14.048  30.336  1.00  0.00     0.012 C
HETATM   17  C9  UNL     1       4.734 -15.412  30.482  1.00  0.00     0.002 C
HETATM   18  C10 UNL     1       3.904 -15.050  29.253  1.00  0.00     0.012 C
ENDBRANCH   4  15
TORSDOF 5
ENDMDL