MODEL 1
REMARK VINA RESULT: -8.016007505      0.000      0.000
REMARK  5 active torsions:
REMARK  status: ('A' for Active; 'I' for Inactive)
REMARK    1  A    between atoms: C2_2  and  C3_3
REMARK    2  A    between atoms: C2_2  and  C9_9
REMARK    3  A    between atoms: C3_3  and  C4_4
REMARK    4  A    between atoms: C9_9  and  C10_11
REMARK    5  A    between atoms: C10_11  and  C12_13
ROOT
HETATM    1  C9  UNL     1       2.730  -9.826  27.659  1.00  0.00     0.140 C
HETATM    2  O1  UNL     1       3.420  -9.152  28.451  1.00  0.00    -0.297 OA
ENDROOT
BRANCH   1   3
HETATM    3  C2  UNL     1       1.360  -9.313  27.494  1.00  0.00     0.052 C
HETATM    4  C1  UNL     1       0.621  -9.696  26.276  1.00  0.00     0.018 C
BRANCH   3   5
HETATM    5  C3  UNL     1       1.367  -7.825  27.647  1.00  0.00     0.016 C
BRANCH   5   6
HETATM    6  C4  UNL     1       1.272  -6.955  26.487  1.00  0.00    -0.014 C
HETATM    7  C5  UNL     1       0.815  -5.567  26.540  1.00  0.00     0.005 C
HETATM    8  C6  UNL     1       1.018  -5.126  25.071  1.00  0.00     0.000 C
HETATM    9  C7  UNL     1       2.278  -5.835  24.635  1.00  0.00     0.000 C
HETATM   10  C8  UNL     1       2.560  -6.939  25.632  1.00  0.00     0.005 C
ENDBRANCH   5   6
ENDBRANCH   3   5
ENDBRANCH   1   3
BRANCH   1  11
HETATM   11  C10 UNL     1       3.407 -10.962  27.066  1.00  0.00     0.104 C
HETATM   12  C11 UNL     1       3.959 -10.473  25.710  1.00  0.00     0.025 C
BRANCH  11  13
HETATM   13  C12 UNL     1       4.412 -11.683  27.825  1.00  0.00     0.055 A
HETATM   14  C13 UNL     1       4.218 -12.727  28.690  1.00  0.00     0.136 A
HETATM   15  N1  UNL     1       5.427 -13.076  29.161  1.00  0.00    -0.296 N
HETATM   16  N2  UNL     1       6.332 -12.285  28.615  1.00  0.00    -0.243 N
ATOM     17  H1  UNL     1       5.614 -13.825  29.828  1.00  0.00     0.187 HD
HETATM   18  N3  UNL     1       5.726 -11.451  27.817  1.00  0.00    -0.288 N
ATOM     19  H2  UNL     1       7.336 -12.319  28.789  1.00  0.00     0.208 HD
ATOM     20  H3  UNL     1       6.189 -10.728  27.266  1.00  0.00     0.188 HD
ENDBRANCH  11  13
ENDBRANCH   1  11
TORSDOF 5
ENDMDL