MODEL 3
REMARK VINA RESULT: -5.749279646      5.372      8.060
REMARK  4 active torsions:
REMARK  status: ('A' for Active; 'I' for Inactive)
REMARK    1  A    between atoms: N1_2  and  C2_5
REMARK    2  A    between atoms: C2_5  and  C4_7
REMARK       I    between atoms: C4_7  and  N2_9
REMARK    3  A    between atoms: C11_17  and  C12_18
REMARK    4  A    between atoms: C12_18  and  C13_19
ROOT
HETATM    1  C13 UNL     1       5.179 -11.751  28.130  1.00  0.00     0.124 C
HETATM    2  C14 UNL     1       4.957 -11.507  26.705  1.00  0.00     0.059 C
HETATM    3  N3  UNL     1       4.771 -11.330  25.577  1.00  0.00    -0.197 NA
ENDROOT
BRANCH   1   4
HETATM    4  C12 UNL     1       4.363 -12.920  28.580  1.00  0.00     0.024 C
BRANCH   4   5
HETATM    5  C11 UNL     1       5.126 -13.909  29.435  1.00  0.00     0.032 C
HETATM    6  C5  UNL     1       5.543 -15.021  28.562  1.00  0.00    -0.006 C
HETATM    7  N2  UNL     1       6.732 -14.891  28.108  1.00  0.00    -0.332 N
HETATM    8  C6  UNL     1       4.877 -16.259  28.106  1.00  0.00     0.053 C
HETATM    9  C4  UNL     1       7.422 -15.769  27.264  1.00  0.00     0.252 C
ATOM     10  H2  UNL     1       7.235 -14.050  28.393  1.00  0.00     0.168 HD
HETATM   11  O1  UNL     1       8.140 -16.654  27.841  1.00  0.00    -0.271 OA
HETATM   12  C7  UNL     1       4.247 -17.004  29.274  1.00  0.00     0.006 C
HETATM   13  C8  UNL     1       5.169 -16.669  30.454  1.00  0.00     0.000 C
HETATM   14  C9  UNL     1       4.515 -15.590  31.238  1.00  0.00     0.001 C
HETATM   15  C10 UNL     1       4.211 -14.325  30.548  1.00  0.00     0.010 C
BRANCH   9  16
HETATM   16  C2  UNL     1       7.386 -15.751  25.794  1.00  0.00     0.272 C
HETATM   17  C3  UNL     1       6.924 -14.399  25.243  1.00  0.00     0.050 C
BRANCH  16  18
HETATM   18  N1  UNL     1       8.698 -16.061  25.266  1.00  0.00    -0.067 N
HETATM   19  C1  UNL     1       8.993 -15.250  24.092  1.00  0.00     0.267 C
ATOM     20  H12 UNL     1       8.800 -17.057  25.070  1.00  0.00     0.277 HD
ATOM     21  H11 UNL     1       9.422 -15.970  25.978  1.00  0.00     0.277 HD
ENDBRANCH  16  18
ENDBRANCH   9  16
ENDBRANCH   4   5
ENDBRANCH   1   4
TORSDOF 4
ENDMDL