MODEL 2
REMARK VINA RESULT: -7.543999772      1.052      1.081
REMARK  4 active torsions:
REMARK  status: ('A' for Active; 'I' for Inactive)
REMARK    1  A    between atoms: C1_2  and  C2_4
REMARK    2  A    between atoms: C2_4  and  C3_5
REMARK    3  A    between atoms: C3_5  and  C4_6
REMARK    4  A    between atoms: C4_6  and  C5_7
ROOT
HETATM    1  C5  UNL     1       1.961  -8.733  26.707  1.00  0.00     0.114 C
HETATM    2  C6  UNL     1       2.072  -7.395  25.969  1.00  0.00     0.022 C
HETATM    3  C7  UNL     1       2.195  -7.560  24.487  1.00  0.00     0.007 C
HETATM    4  C8  UNL     1       1.536  -6.361  23.842  1.00  0.00     0.001 C
HETATM    5  C9  UNL     1       1.546  -5.152  24.751  1.00  0.00     0.001 C
HETATM    6  C10 UNL     1       0.742  -5.370  26.015  1.00  0.00     0.013 C
HETATM    7  C11 UNL     1       0.687  -6.835  26.278  1.00  0.00     0.061 C
HETATM    8  C12 UNL     1       0.627  -7.166  27.747  1.00  0.00     0.104 A
HETATM    9  N2  UNL     1       0.114  -6.780  28.922  1.00  0.00    -0.340 N
ATOM     10  H2  UNL     1      -0.493  -5.976  29.079  1.00  0.00     0.168 HD
HETATM   11  C13 UNL     1       0.541  -7.639  29.848  1.00  0.00     0.199 A
HETATM   12  N3  UNL     1       1.312  -8.543  29.230  1.00  0.00    -0.292 N
ATOM     13  H3  UNL     1       1.782  -9.328  29.680  1.00  0.00     0.188 HD
HETATM   14  N4  UNL     1       1.366  -8.255  27.951  1.00  0.00    -0.274 N
ENDROOT
BRANCH   1  15
HETATM   15  C4  UNL     1       3.373  -9.223  26.901  1.00  0.00     0.028 C
BRANCH  15  16
HETATM   16  C3  UNL     1       3.755 -10.350  26.022  1.00  0.00     0.011 C
BRANCH  16  17
HETATM   17  C2  UNL     1       4.744 -11.312  26.561  1.00  0.00     0.099 C
BRANCH  17  18
HETATM   18  C1  UNL     1       5.862 -11.649  25.673  1.00  0.00     0.231 C
HETATM   19  N1  UNL     1       6.232 -12.996  25.370  1.00  0.00    -0.062 NA
HETATM   20  O1  UNL     1       6.543 -10.750  25.142  1.00  0.00    -0.277 OA
ENDBRANCH  17  18
ENDBRANCH  16  17
ENDBRANCH  15  16
ENDBRANCH   1  15
TORSDOF 4
ENDMDL