MODEL 3
REMARK VINA RESULT: -7.392299632      1.809      2.662
REMARK  5 active torsions:
REMARK  status: ('A' for Active; 'I' for Inactive)
REMARK    1  A    between atoms: C4_5  and  O2_6
REMARK    2  A    between atoms: O2_6  and  C5_7
REMARK    3  A    between atoms: C5_7  and  C6_8
REMARK    4  A    between atoms: C12_15  and  C13_16
REMARK    5  A    between atoms: C13_16  and  N1_17
ROOT
HETATM    1  C1  UNL     1       6.292 -16.257  28.715  1.00  0.00     0.015 C
HETATM    2  C2  UNL     1       5.483 -15.120  28.180  1.00  0.00     0.036 C
HETATM    3  C3  UNL     1       6.358 -13.939  27.836  1.00  0.00     0.180 C
HETATM    4  O1  UNL     1       5.530 -12.968  27.293  1.00  0.00    -0.339 OA
HETATM    5  C4  UNL     1       4.454 -12.625  28.072  1.00  0.00     0.413 C
HETATM    6  O3  UNL     1       3.644 -13.691  28.453  1.00  0.00    -0.332 OA
HETATM    7  C12 UNL     1       4.373 -14.694  29.090  1.00  0.00     0.158 C
ENDROOT
BRANCH   5   8
HETATM    8  O2  UNL     1       3.643 -11.776  27.300  1.00  0.00    -0.339 OA
BRANCH   8   9
HETATM    9  C5  UNL     1       3.420 -10.555  27.950  1.00  0.00     0.178 C
BRANCH   9  10
HETATM   10  C6  UNL     1       2.323  -9.864  27.128  1.00  0.00     0.009 C
HETATM   11  C7  UNL     1       3.085  -9.186  25.984  1.00  0.00     0.007 C
HETATM   12  C8  UNL     1       2.145  -8.346  25.162  1.00  0.00     0.000 C
HETATM   13  C9  UNL     1       1.632  -7.237  26.042  1.00  0.00     0.000 C
HETATM   14  C10 UNL     1       1.017  -7.723  27.314  1.00  0.00     0.000 C
HETATM   15  C11 UNL     1       1.756  -8.796  28.008  1.00  0.00     0.007 C
ENDBRANCH   9  10
ENDBRANCH   8   9
ENDBRANCH   5   8
BRANCH   7  16
HETATM   16  C13 UNL     1       4.829 -14.238  30.453  1.00  0.00     0.262 C
BRANCH  16  17
HETATM   17  N1  UNL     1       4.038 -14.776  31.531  1.00  0.00    -0.077 N
ATOM     18  H13 UNL     1       3.092 -14.987  31.215  1.00  0.00     0.274 HD
ATOM     19  H12 UNL     1       4.348 -15.717  31.774  1.00  0.00     0.274 HD
ATOM     20  H11 UNL     1       4.019 -14.177  32.357  1.00  0.00     0.274 HD
ENDBRANCH  16  17
ENDBRANCH   7  16
TORSDOF 5
ENDMDL