MODEL 5
REMARK VINA RESULT: -5.979200923      3.692      5.626
REMARK  4 active torsions:
REMARK  status: ('A' for Active; 'I' for Inactive)
REMARK    1  A    between atoms: C3_3  and  C5_5
REMARK    2  A    between atoms: C5_5  and  N1_6
REMARK    3  A    between atoms: C5_5  and  C9_16
REMARK    4  A    between atoms: C6_8  and  C7_9
ROOT
HETATM    1  C1  UNL     1       0.176  -6.301  28.806  1.00  0.00     0.097 C
HETATM    2  C2  UNL     1       0.543  -7.428  28.453  1.00  0.00    -0.181 C
HETATM    3  C3  UNL     1       0.929  -8.778  28.092  1.00  0.00     0.070 C
HETATM    4  C4  UNL     1       2.069  -9.131  29.064  1.00  0.00     0.024 C
ENDROOT
BRANCH   3   5
HETATM    5  C5  UNL     1       1.265  -8.967  26.695  1.00  0.00     0.099 C
BRANCH   5   6
HETATM    6  N1  UNL     1       2.538  -9.563  26.410  1.00  0.00    -0.390 N
HETATM    7  C6  UNL     1       2.891 -10.835  26.761  1.00  0.00     0.134 C
ATOM      8  H1  UNL     1       3.227  -8.998  25.912  1.00  0.00     0.159 HD
BRANCH   7   9
HETATM    9  C7  UNL     1       4.331 -11.044  26.317  1.00  0.00     0.142 A
HETATM   10  N2  UNL     1       4.844 -10.898  25.085  1.00  0.00    -0.329 N
HETATM   11  C8  UNL     1       6.167 -11.178  25.102  1.00  0.00     0.261 A
ATOM     12  H2  UNL     1       4.314 -10.617  24.260  1.00  0.00     0.168 HD
HETATM   13  O1  UNL     1       6.442 -11.488  26.329  1.00  0.00    -0.231 OA
HETATM   14  N3  UNL     1       5.367 -11.420  27.089  1.00  0.00    -0.243 N
ATOM     15  H3  UNL     1       5.327 -11.617  28.088  1.00  0.00     0.196 HD
ENDBRANCH   7   9
ENDBRANCH   5   6
BRANCH   5  16
HETATM   16  C9  UNL     1       1.267  -7.696  25.861  1.00  0.00     0.009 C
HETATM   17  C10 UNL     1       2.752  -7.382  25.500  1.00  0.00     0.007 C
HETATM   18  C11 UNL     1       2.790  -5.892  25.246  1.00  0.00     0.000 C
HETATM   19  C12 UNL     1       1.872  -5.628  24.080  1.00  0.00     0.000 C
HETATM   20  C13 UNL     1       1.271  -6.865  23.506  1.00  0.00     0.000 C
HETATM   21  C14 UNL     1       0.573  -7.742  24.551  1.00  0.00     0.007 C
ENDBRANCH   5  16
ENDBRANCH   3   5
TORSDOF 4
ENDMDL