MODEL 3
REMARK VINA RESULT: -6.923431972      1.392      6.393
REMARK  5 active torsions:
REMARK  status: ('A' for Active; 'I' for Inactive)
REMARK    1  A    between atoms: C2_2  and  C3_3
REMARK    2  A    between atoms: C3_3  and  C4_4
REMARK    3  A    between atoms: C4_4  and  C5_5
REMARK    4  A    between atoms: C5_5  and  O1_6
REMARK    5  A    between atoms: O1_6  and  C6_7
ROOT
HETATM    1  C6  UNL     1       4.062 -10.447  26.793  1.00  0.00     0.263 C
HETATM    2  C7  UNL     1       2.955 -10.588  27.847  1.00  0.00     0.066 C
HETATM    3  C8  UNL     1       2.401  -9.169  27.823  1.00  0.00     0.076 C
HETATM    4  C9  UNL     1       2.669  -8.785  26.375  1.00  0.00     0.192 C
HETATM    5  C10 UNL     1       3.553  -7.572  26.259  1.00  0.00     0.240 C
HETATM    6  O2  UNL     1       2.643  -6.555  26.001  1.00  0.00    -0.350 OA
HETATM    7  C11 UNL     1       1.377  -7.085  25.971  1.00  0.00     0.160 C
HETATM    8  C12 UNL     1       0.580  -6.508  24.798  1.00  0.00     0.078 C
HETATM    9  C13 UNL     1       0.575  -6.759  27.217  1.00  0.00     0.078 C
HETATM   10  O3  UNL     1       1.466  -8.449  25.745  1.00  0.00    -0.318 OA
HETATM   11  O4  UNL     1       3.274  -9.870  25.770  1.00  0.00    -0.323 OA
ENDROOT
BRANCH   1  12
HETATM   12  O1  UNL     1       4.546 -11.619  26.375  1.00  0.00    -0.361 OA
BRANCH  12  13
HETATM   13  C5  UNL     1       5.789 -12.049  26.552  1.00  0.00     0.171 C
BRANCH  13  14
HETATM   14  C4  UNL     1       6.267 -12.525  27.878  1.00  0.00     0.026 C
BRANCH  14  15
HETATM   15  C3  UNL     1       5.692 -13.811  28.377  1.00  0.00     0.002 C
BRANCH  15  16
HETATM   16  C2  UNL     1       4.565 -13.543  29.384  1.00  0.00    -0.004 C
HETATM   17  C1  UNL     1       4.766 -14.348  30.641  1.00  0.00     0.005 C
ENDBRANCH  15  16
ENDBRANCH  14  15
ENDBRANCH  13  14
ENDBRANCH  12  13
ENDBRANCH   1  12
TORSDOF 5
ENDMDL