MODEL 2
REMARK VINA RESULT: -6.914483440      1.296      1.710
REMARK  2 active torsions:
REMARK  status: ('A' for Active; 'I' for Inactive)
REMARK    1  A    between atoms: N1_1  and  C1_4
REMARK    2  A    between atoms: C2_11  and  N5_12
REMARK       I    between atoms: N5_12  and  C3_14
ROOT
HETATM    1  C1  UNL     1     -36.080 -29.148  -7.527  1.00  0.00     0.706 A
HETATM    2  N2  UNL     1     -35.164 -28.550  -8.302  1.00  0.00    -0.117 N
ATOM      3  H2  UNL     1     -34.923 -28.914  -9.225  1.00  0.00     0.207 HD
HETATM    4  N3  UNL     1     -34.587 -27.468  -7.813  1.00  0.00    -0.214 N
ATOM      5  H3  UNL     1     -33.885 -26.988  -8.377  1.00  0.00     0.209 HD
HETATM    6  N4  UNL     1     -34.887 -26.981  -6.614  1.00  0.00    -0.116 N
ATOM      7  H4  UNL     1     -34.409 -26.142  -6.287  1.00  0.00     0.207 HD
HETATM    8  C2  UNL     1     -35.804 -27.563  -5.816  1.00  0.00     0.716 A
HETATM    9  N7  UNL     1     -36.401 -28.667  -6.302  1.00  0.00    -0.020 N
ATOM     10  H7  UNL     1     -37.104 -29.146  -5.740  1.00  0.00     0.203 HD
ENDROOT
BRANCH   8  11
HETATM   11  N5  UNL     1     -36.087 -27.076  -4.649  1.00  0.00    -0.142 N
HETATM   12  C3  UNL     1     -37.455 -26.986  -4.270  1.00  0.00     0.347 C
HETATM   13  N6  UNL     1     -37.837 -27.550  -3.023  1.00  0.00    -0.039 NA
HETATM   14  O1  UNL     1     -38.336 -26.435  -4.980  1.00  0.00    -0.250 OA
ATOM     15  H5  UNL     1     -35.348 -26.766  -4.018  1.00  0.00     0.189 HD
ENDBRANCH   8  11
BRANCH   1  16
HETATM   16  N1  UNL     1     -36.672 -30.202  -7.953  1.00  0.00    -0.233 N
ATOM     17  H12 UNL     1     -37.660 -30.335  -7.738  1.00  0.00     0.174 HD
ATOM     18  H11 UNL     1     -36.145 -30.885  -8.498  1.00  0.00     0.174 HD
ENDBRANCH   1  16
TORSDOF 2
ENDMDL