MODEL 4
REMARK VINA RESULT: -5.430002839      1.624      1.725
REMARK  3 active torsions:
REMARK  status: ('A' for Active; 'I' for Inactive)
REMARK    1  A    between atoms: N1_1  and  N2_4
REMARK    2  A    between atoms: N2_4  and  C1_6
REMARK    3  A    between atoms: C1_6  and  N3_8
ROOT
HETATM    1  C1  UNL     1     -35.279 -28.166  -5.465  1.00  0.00     0.214 C
HETATM    2  S1  UNL     1     -36.247 -26.974  -4.912  1.00  0.00    -0.037 SA
ENDROOT
BRANCH   1   3
HETATM    3  N2  UNL     1     -34.135 -28.620  -4.794  1.00  0.00    -0.281 N
ATOM      4  H2  UNL     1     -34.148 -29.516  -4.308  1.00  0.00     0.189 HD
BRANCH   3   5
HETATM    5  N1  UNL     1     -32.991 -27.847  -4.794  1.00  0.00    -0.343 N
ATOM      6  H12 UNL     1     -32.718 -27.363  -5.649  1.00  0.00     0.176 HD
ATOM      7  H11 UNL     1     -32.434 -27.770  -3.943  1.00  0.00     0.176 HD
ENDBRANCH   3   5
ENDBRANCH   1   3
BRANCH   1   8
HETATM    8  N3  UNL     1     -35.636 -28.764  -6.704  1.00  0.00    -0.160 N
HETATM    9  N4  UNL     1     -36.081 -29.927  -7.149  1.00  0.00    -0.005 NA
HETATM   10  N5  UNL     1     -36.112 -29.540  -8.412  1.00  0.00    -0.233 N
HETATM   11  C2  UNL     1     -35.659 -28.342  -8.000  1.00  0.00     0.359 A
ATOM     12  H5  UNL     1     -36.366 -29.962  -9.305  1.00  0.00     0.189 HD
HETATM   13  O1  UNL     1     -35.356 -27.231  -8.532  1.00  0.00    -0.244 OA
ENDBRANCH   1   8
TORSDOF 3
ENDMDL