MODEL 3
REMARK VINA RESULT: -6.839714808      2.149      3.158
REMARK  0 active torsions:
REMARK  status: ('A' for Active; 'I' for Inactive)
REMARK       I    between atoms: N1_1  and  C1_4
ROOT
HETATM    1  N1  UNL     1     -36.480 -30.130  -7.943  1.00  0.00    -0.234 N
ATOM      2  H11 UNL     1     -37.489 -30.062  -8.078  1.00  0.00     0.174 HD
ATOM      3  H12 UNL     1     -35.836 -30.729  -8.459  1.00  0.00     0.174 HD
HETATM    4  C1  UNL     1     -35.906 -29.408  -7.041  1.00  0.00     0.681 C
HETATM    5  N2  UNL     1     -34.586 -29.498  -6.865  1.00  0.00    -0.163 N
ATOM      6  H2  UNL     1     -34.160 -30.300  -7.328  1.00  0.00     0.187 HD
HETATM    7  C2  UNL     1     -33.715 -28.729  -6.192  1.00  0.00     0.209 C
HETATM    8  N3  UNL     1     -32.325 -28.957  -6.404  1.00  0.00    -0.062 NA
HETATM    9  N4  UNL     1     -34.058 -27.743  -5.317  1.00  0.00    -0.292 N
ATOM     10  H4  UNL     1     -33.315 -27.438  -4.689  1.00  0.00     0.172 HD
HETATM   11  C3  UNL     1     -35.241 -27.112  -5.164  1.00  0.00     0.316 C
HETATM   12  O1  UNL     1     -35.253 -25.969  -4.637  1.00  0.00    -0.262 OA
HETATM   13  C4  UNL     1     -36.481 -27.581  -5.526  1.00  0.00     0.328 C
HETATM   14  O2  UNL     1     -37.458 -26.969  -5.019  1.00  0.00    -0.261 OA
HETATM   15  N5  UNL     1     -36.756 -28.618  -6.361  1.00  0.00    -0.152 N
ATOM     16  H5  UNL     1     -37.746 -28.826  -6.489  1.00  0.00     0.188 HD
ENDROOT
TORSDOF 0
ENDMDL