MODEL 3
REMARK VINA RESULT: -5.379897635      1.924      2.914
REMARK  2 active torsions:
REMARK  status: ('A' for Active; 'I' for Inactive)
REMARK    1  A    between atoms: C2_3  and  N2_4
REMARK    2  A    between atoms: C3_9  and  N4_10
ROOT
HETATM    1  C1  UNL     1     -37.582 -27.485  -5.242  1.00  0.00     0.180 C
HETATM    2  N1  UNL     1     -36.265 -27.883  -5.725  1.00  0.00    -0.136 N
HETATM    3  C2  UNL     1     -35.161 -27.192  -5.386  1.00  0.00     0.696 A
HETATM    4  N3  UNL     1     -33.942 -27.553  -5.827  1.00  0.00    -0.022 N
ATOM      5  H3  UNL     1     -33.128 -27.005  -5.549  1.00  0.00     0.203 HD
HETATM    6  C3  UNL     1     -33.773 -28.622  -6.627  1.00  0.00     0.694 A
HETATM    7  N5  UNL     1     -34.880 -29.310  -6.962  1.00  0.00    -0.140 N
ATOM      8  H5  UNL     1     -34.791 -30.127  -7.565  1.00  0.00     0.189 HD
HETATM    9  C4  UNL     1     -36.102 -28.952  -6.524  1.00  0.00     0.354 A
HETATM   10  O1  UNL     1     -37.146 -29.594  -6.834  1.00  0.00    -0.245 OA
ENDROOT
BRANCH   3  11
HETATM   11  N2  UNL     1     -35.327 -26.168  -4.621  1.00  0.00    -0.234 N
ATOM     12  H22 UNL     1     -35.747 -26.254  -3.695  1.00  0.00     0.174 HD
ATOM     13  H21 UNL     1     -35.017 -25.267  -4.984  1.00  0.00     0.174 HD
ENDBRANCH   3  11
BRANCH   6  14
HETATM   14  N4  UNL     1     -32.594 -28.973  -7.054  1.00  0.00    -0.234 N
ATOM     15  H42 UNL     1     -31.797 -29.061  -6.422  1.00  0.00     0.174 HD
ATOM     16  H41 UNL     1     -32.420 -29.172  -8.040  1.00  0.00     0.174 HD
ENDBRANCH   6  14
TORSDOF 2
ENDMDL