MODEL 4
REMARK VINA RESULT: -5.277044742      1.925      2.960
REMARK  2 active torsions:
REMARK  status: ('A' for Active; 'I' for Inactive)
REMARK    1  A    between atoms: N3_7  and  N4_8
REMARK    2  A    between atoms: N5_11  and  N6_12
ROOT
HETATM    1  C1  UNL     1     -37.323 -26.974  -4.084  1.00  0.00     0.091 C
HETATM    2  C2  UNL     1     -36.282 -27.584  -4.962  1.00  0.00     0.097 A
HETATM    3  N1  UNL     1     -35.023 -27.560  -4.675  1.00  0.00    -0.316 N
ATOM      4  H1  UNL     1     -34.733 -27.103  -3.811  1.00  0.00     0.170 HD
HETATM    5  C3  UNL     1     -34.024 -28.135  -5.500  1.00  0.00     0.234 A
HETATM    6  N2  UNL     1     -32.636 -28.075  -5.123  1.00  0.00    -0.060 NA
HETATM    7  N3  UNL     1     -34.272 -28.737  -6.614  1.00  0.00    -0.135 N
HETATM    8  N5  UNL     1     -35.633 -28.797  -6.985  1.00  0.00    -0.112 N
HETATM    9  N7  UNL     1     -36.624 -28.235  -6.182  1.00  0.00    -0.252 N
ATOM     10  H7  UNL     1     -37.601 -28.290  -6.470  1.00  0.00     0.192 HD
ENDROOT
BRANCH   7  11
HETATM   11  N4  UNL     1     -33.270 -29.295  -7.407  1.00  0.00    -0.319 N
ATOM     12  H42 UNL     1     -33.450 -30.095  -8.015  1.00  0.00     0.179 HD
ATOM     13  H41 UNL     1     -32.314 -28.937  -7.421  1.00  0.00     0.179 HD
ENDBRANCH   7  11
BRANCH   8  14
HETATM   14  N6  UNL     1     -35.954 -29.443  -8.191  1.00  0.00    -0.307 N
ATOM     15  H62 UNL     1     -35.506 -29.178  -9.068  1.00  0.00     0.180 HD
ATOM     16  H61 UNL     1     -36.652 -30.186  -8.161  1.00  0.00     0.180 HD
ENDBRANCH   8  14
TORSDOF 2
ENDMDL