MODEL 3
REMARK VINA RESULT: -5.498325718      2.085      3.573
REMARK  3 active torsions:
REMARK  status: ('A' for Active; 'I' for Inactive)
REMARK    1  A    between atoms: C2_3  and  N2_4
REMARK    2  A    between atoms: C3_9  and  N4_10
REMARK    3  A    between atoms: N4_10  and  N5_12
ROOT
HETATM    1  C1  UNL     1     -33.645 -29.122  -6.952  1.00  0.00     0.180 C
HETATM    2  N1  UNL     1     -34.745 -28.535  -6.215  1.00  0.00    -0.136 N
HETATM    3  C2  UNL     1     -34.491 -27.818  -5.106  1.00  0.00     0.696 A
HETATM    4  N3  UNL     1     -35.549 -27.292  -4.457  1.00  0.00    -0.021 N
ATOM      5  H3  UNL     1     -35.390 -26.741  -3.613  1.00  0.00     0.203 HD
HETATM    6  C3  UNL     1     -36.801 -27.471  -4.890  1.00  0.00     0.715 A
HETATM    7  N6  UNL     1     -37.026 -28.195  -6.003  1.00  0.00    -0.139 N
ATOM      8  H6  UNL     1     -37.980 -28.335  -6.337  1.00  0.00     0.189 HD
HETATM    9  C4  UNL     1     -35.991 -28.732  -6.674  1.00  0.00     0.354 A
HETATM   10  O1  UNL     1     -36.231 -29.404  -7.712  1.00  0.00    -0.245 OA
ENDROOT
BRANCH   6  11
HETATM   11  N4  UNL     1     -37.820 -26.968  -4.268  1.00  0.00    -0.138 N
ATOM     12  H4  UNL     1     -38.330 -26.198  -4.701  1.00  0.00     0.205 HD
BRANCH  11  13
HETATM   13  N5  UNL     1     -38.242 -27.437  -3.038  1.00  0.00    -0.331 N
ATOM     14  H52 UNL     1     -38.022 -28.402  -2.796  1.00  0.00     0.177 HD
ATOM     15  H51 UNL     1     -38.759 -26.854  -2.379  1.00  0.00     0.177 HD
ENDBRANCH  11  13
ENDBRANCH   6  11
BRANCH   3  16
HETATM   16  N2  UNL     1     -33.294 -27.626  -4.661  1.00  0.00    -0.234 N
ATOM     17  H22 UNL     1     -32.972 -28.115  -3.827  1.00  0.00     0.174 HD
ATOM     18  H21 UNL     1     -32.636 -26.992  -5.114  1.00  0.00     0.174 HD
ENDBRANCH   3  16
TORSDOF 3
ENDMDL