MODEL 5
REMARK VINA RESULT: -4.910986391      1.324      3.458
REMARK  3 active torsions:
REMARK  status: ('A' for Active; 'I' for Inactive)
REMARK    1  A    between atoms: C3_6  and  N3_7
REMARK    2  A    between atoms: N3_7  and  N4_9
REMARK    3  A    between atoms: C4_14  and  N6_15
ROOT
HETATM    1  C1  UNL     1     -33.652 -27.203  -4.399  1.00  0.00     0.176 C
HETATM    2  N1  UNL     1     -34.301 -27.832  -5.541  1.00  0.00    -0.183 N
HETATM    3  C2  UNL     1     -33.588 -28.365  -6.550  1.00  0.00     0.218 A
HETATM    4  N2  UNL     1     -34.206 -28.943  -7.601  1.00  0.00    -0.185 N
ATOM      5  H2  UNL     1     -33.638 -29.338  -8.350  1.00  0.00     0.185 HD
HETATM    6  C3  UNL     1     -35.546 -29.014  -7.692  1.00  0.00     0.711 A
HETATM    7  N5  UNL     1     -36.260 -28.483  -6.684  1.00  0.00    -0.021 N
ATOM      8  H5  UNL     1     -37.279 -28.516  -6.714  1.00  0.00     0.203 HD
HETATM    9  C4  UNL     1     -35.641 -27.904  -5.634  1.00  0.00     0.693 A
ENDROOT
BRANCH   6  10
HETATM   10  N3  UNL     1     -36.160 -29.564  -8.690  1.00  0.00    -0.138 N
ATOM     11  H3  UNL     1     -35.880 -29.341  -9.644  1.00  0.00     0.205 HD
BRANCH  10  12
HETATM   12  N4  UNL     1     -37.204 -30.463  -8.462  1.00  0.00    -0.331 N
ATOM     13  H42 UNL     1     -38.155 -30.188  -8.710  1.00  0.00     0.177 HD
ATOM     14  H41 UNL     1     -37.013 -31.378  -8.054  1.00  0.00     0.177 HD
ENDBRANCH  10  12
ENDBRANCH   6  10
BRANCH   9  15
HETATM   15  N6  UNL     1     -36.314 -27.389  -4.657  1.00  0.00    -0.234 N
ATOM     16  H62 UNL     1     -37.067 -26.721  -4.827  1.00  0.00     0.174 HD
ATOM     17  H61 UNL     1     -36.052 -27.687  -3.717  1.00  0.00     0.174 HD
ENDBRANCH   9  15
TORSDOF 3
ENDMDL