MODEL 4
REMARK VINA RESULT: -6.470753687      2.376      4.014
REMARK  0 active torsions:
REMARK  status: ('A' for Active; 'I' for Inactive)
ROOT
HETATM    1  N1  UNL     1     -35.730 -25.813  -4.408  1.00  0.00    -0.079 NA
HETATM    2  C1  UNL     1     -35.310 -26.986  -5.088  1.00  0.00     0.160 A
HETATM    3  N2  UNL     1     -33.996 -27.315  -5.157  1.00  0.00    -0.304 N
ATOM      4  H2  UNL     1     -33.277 -26.734  -4.724  1.00  0.00     0.170 HD
HETATM    5  C2  UNL     1     -33.685 -28.443  -5.822  1.00  0.00     0.315 A
HETATM    6  O1  UNL     1     -32.478 -28.781  -5.907  1.00  0.00    -0.262 OA
HETATM    7  C3  UNL     1     -34.630 -29.255  -6.419  1.00  0.00     0.315 A
HETATM    8  O2  UNL     1     -34.300 -30.305  -7.034  1.00  0.00    -0.262 OA
HETATM    9  N3  UNL     1     -35.915 -28.876  -6.317  1.00  0.00    -0.304 N
ATOM     10  H3  UNL     1     -36.633 -29.457  -6.749  1.00  0.00     0.170 HD
HETATM   11  C4  UNL     1     -36.289 -27.767  -5.671  1.00  0.00     0.160 A
HETATM   12  N4  UNL     1     -37.658 -27.379  -5.571  1.00  0.00    -0.079 NA
ENDROOT
TORSDOF 0
ENDMDL