MODEL 5
REMARK VINA RESULT: -6.396743936      1.661      1.681
REMARK  0 active torsions:
REMARK  status: ('A' for Active; 'I' for Inactive)
ROOT
HETATM    1  O1  UNL     1     -36.707 -29.950  -7.070  1.00  0.00    -0.266 OA
HETATM    2  C1  UNL     1     -35.633 -29.332  -6.855  1.00  0.00     0.280 A
HETATM    3  N1  UNL     1     -34.444 -29.694  -7.351  1.00  0.00    -0.251 N
ATOM      4  H1  UNL     1     -34.393 -30.523  -7.943  1.00  0.00     0.192 HD
HETATM    5  N2  UNL     1     -33.325 -29.017  -7.104  1.00  0.00    -0.238 N
ATOM      6  H2  UNL     1     -32.450 -29.347  -7.512  1.00  0.00     0.208 HD
HETATM    7  N3  UNL     1     -33.308 -27.931  -6.348  1.00  0.00    -0.269 N
ATOM      8  H3  UNL     1     -32.446 -27.419  -6.166  1.00  0.00     0.190 HD
HETATM    9  C2  UNL     1     -34.488 -27.538  -5.832  1.00  0.00     0.157 A
HETATM   10  N4  UNL     1     -34.809 -26.498  -5.037  1.00  0.00    -0.281 N
ATOM     11  H4  UNL     1     -34.142 -25.809  -4.691  1.00  0.00     0.188 HD
HETATM   12  N5  UNL     1     -36.099 -26.487  -4.768  1.00  0.00    -0.264 N
ATOM     13  H5  UNL     1     -36.580 -25.799  -4.189  1.00  0.00     0.190 HD
HETATM   14  C3  UNL     1     -36.669 -27.526  -5.379  1.00  0.00     0.279 A
HETATM   15  O2  UNL     1     -37.872 -27.887  -5.388  1.00  0.00    -0.266 OA
HETATM   16  C4  UNL     1     -35.675 -28.208  -6.060  1.00  0.00     0.149 A
ENDROOT
TORSDOF 0
ENDMDL