MODEL 1
REMARK VINA RESULT: -6.180251358      0.000      0.000
REMARK  1 active torsions:
REMARK  status: ('A' for Active; 'I' for Inactive)
REMARK    1  A    between atoms: N1_1  and  C1_4
ROOT
HETATM    1  C1  UNL     1     -35.350 -26.952  -5.226  1.00  0.00     0.118 C
HETATM    2  C2  UNL     1     -36.531 -27.594  -5.534  1.00  0.00     0.154 C
HETATM    3  N2  UNL     1     -36.745 -28.707  -6.299  1.00  0.00    -0.198 N
ATOM      4  H2  UNL     1     -37.682 -29.108  -6.265  1.00  0.00     0.183 HD
HETATM    5  C3  UNL     1     -35.855 -29.331  -7.094  1.00  0.00     0.679 C
HETATM    6  N3  UNL     1     -36.325 -30.029  -8.083  1.00  0.00    -0.234 N
ATOM      7  H31 UNL     1     -35.651 -30.501  -8.685  1.00  0.00     0.174 HD
ATOM      8  H32 UNL     1     -37.339 -30.054  -8.186  1.00  0.00     0.174 HD
HETATM    9  N4  UNL     1     -34.525 -29.298  -6.959  1.00  0.00    -0.141 N
ATOM     10  H4  UNL     1     -34.024 -29.983  -7.525  1.00  0.00     0.189 HD
HETATM   11  C4  UNL     1     -33.726 -28.503  -6.192  1.00  0.00     0.340 C
HETATM   12  O1  UNL     1     -32.507 -28.790  -6.117  1.00  0.00    -0.246 OA
HETATM   13  N5  UNL     1     -34.108 -27.420  -5.489  1.00  0.00    -0.293 N
ATOM     14  H5  UNL     1     -33.346 -26.868  -5.096  1.00  0.00     0.172 HD
ENDROOT
BRANCH   1  15
HETATM   15  N1  UNL     1     -35.460 -25.813  -4.640  1.00  0.00    -0.384 N
ATOM     16  H12 UNL     1     -35.048 -24.996  -5.091  1.00  0.00     0.157 HD
ATOM     17  H11 UNL     1     -35.961 -25.810  -3.751  1.00  0.00     0.157 HD
ENDBRANCH   1  15
TORSDOF 1
ENDMDL