MODEL 1
REMARK VINA RESULT: -6.157417083      0.000      0.000
REMARK  7 active torsions:
REMARK  status: ('A' for Active; 'I' for Inactive)
REMARK    1  A    between atoms: N1_4  and  N2_6
REMARK    2  A    between atoms: C4_8  and  C5_9
REMARK    3  A    between atoms: C4_8  and  N3_11
REMARK    4  A    between atoms: N3_11  and  N4_13
REMARK    5  A    between atoms: N4_13  and  C6_15
REMARK    6  A    between atoms: C6_15  and  N5_17
REMARK    7  A    between atoms: N5_17  and  C7_19
ROOT
HETATM    1  N3  UNL     1      30.307 -12.424 -23.957  1.00  0.00    -0.285 N
ATOM      2  H3  UNL     1      31.257 -12.590 -23.626  1.00  0.00     0.188 HD
ENDROOT
BRANCH   1   3
HETATM    3  C4  UNL     1      29.989 -12.681 -25.304  1.00  0.00     0.120 C
HETATM    4  N2  UNL     1      30.676 -12.143 -26.232  1.00  0.00    -0.287 N
ATOM      5  H2  UNL     1      30.416 -12.353 -27.196  1.00  0.00     0.188 HD
BRANCH   4   6
HETATM    6  N1  UNL     1      31.755 -11.290 -26.027  1.00  0.00    -0.308 N
HETATM    7  C2  UNL     1      32.337 -10.767 -27.032  1.00  0.00    -0.004 C
HETATM    8  C1  UNL     1      31.867 -11.067 -28.395  1.00  0.00     0.064 C
HETATM    9  C3  UNL     1      33.486  -9.858 -26.846  1.00  0.00     0.064 C
ATOM     10  H1  UNL     1      32.077 -11.085 -25.082  1.00  0.00     0.186 HD
ENDBRANCH   4   6
BRANCH   3  11
HETATM   11  C5  UNL     1      28.865 -13.570 -25.636  1.00  0.00     0.164 C
HETATM   12 BR1  UNL     1      27.946 -12.865 -27.197  1.00  0.00    -0.088 Br
ENDBRANCH   3  11
ENDBRANCH   1   3
BRANCH   1  13
HETATM   13  N4  UNL     1      29.331 -11.937 -23.054  1.00  0.00    -0.275 N
ATOM     14  H4  UNL     1      29.045 -10.958 -23.080  1.00  0.00     0.189 HD
BRANCH  13  15
HETATM   15  C6  UNL     1      28.754 -12.830 -22.110  1.00  0.00     0.187 C
HETATM   16  S1  UNL     1      29.564 -13.003 -20.682  1.00  0.00    -0.040 SA
BRANCH  15  17
HETATM   17  N5  UNL     1      27.561 -13.526 -22.376  1.00  0.00    -0.358 N
ATOM     18  H5  UNL     1      27.608 -14.516 -22.618  1.00  0.00     0.162 HD
BRANCH  17  19
HETATM   19  C7  UNL     1      26.284 -12.884 -22.316  1.00  0.00     0.021 C
HETATM   20  C8  UNL     1      25.869 -12.408 -23.704  1.00  0.00     0.037 C
HETATM   21  C9  UNL     1      26.270 -11.668 -21.425  1.00  0.00     0.037 C
HETATM   22  C10 UNL     1      25.188 -13.863 -21.873  1.00  0.00     0.037 C
ENDBRANCH  17  19
ENDBRANCH  15  17
ENDBRANCH  13  15
ENDBRANCH   1  13
TORSDOF 7
ENDMDL