MODEL 4
REMARK VINA RESULT: -5.315168567      5.725      8.377
REMARK  8 active torsions:
REMARK  status: ('A' for Active; 'I' for Inactive)
REMARK    1  A    between atoms: O1_2  and  C2_3
REMARK    2  A    between atoms: C2_3  and  N2_10
REMARK    3  A    between atoms: N1_4  and  C3_6
REMARK    4  A    between atoms: N2_10  and  N3_12
REMARK    5  A    between atoms: N3_12  and  C7_14
REMARK    6  A    between atoms: C7_14  and  N4_16
REMARK    7  A    between atoms: N4_16  and  C8_18
REMARK    8  A    between atoms: C8_18  and  C9_19
ROOT
HETATM    1  N2  UNL     1      27.977 -15.048 -20.258  1.00  0.00    -0.263 N
ATOM      2  H2  UNL     1      28.167 -15.716 -21.005  1.00  0.00     0.190 HD
ENDROOT
BRANCH   1   3
HETATM    3  C2  UNL     1      29.082 -14.523 -19.546  1.00  0.00     0.234 C
HETATM    4  N1  UNL     1      30.248 -14.897 -19.813  1.00  0.00    -0.347 N
ATOM      5  H1  UNL     1      30.961 -14.451 -19.237  1.00  0.00     0.163 HD
BRANCH   3   6
HETATM    6  O1  UNL     1      28.871 -13.590 -18.547  1.00  0.00    -0.326 OA
HETATM    7  C1  UNL     1      29.885 -12.708 -18.084  1.00  0.00     0.213 C
ENDBRANCH   3   6
BRANCH   4   8
HETATM    8  C3  UNL     1      30.771 -15.808 -20.749  1.00  0.00     0.022 C
HETATM    9  C4  UNL     1      32.232 -15.413 -21.008  1.00  0.00     0.037 C
HETATM   10  C5  UNL     1      30.791 -17.211 -20.183  1.00  0.00     0.037 C
HETATM   11  C6  UNL     1      30.091 -15.809 -22.090  1.00  0.00     0.037 C
ENDBRANCH   4   8
ENDBRANCH   1   3
BRANCH   1  12
HETATM   12  N3  UNL     1      26.642 -14.712 -20.006  1.00  0.00    -0.273 N
ATOM     13  H3  UNL     1      26.282 -14.782 -19.054  1.00  0.00     0.189 HD
BRANCH  12  14
HETATM   14  C7  UNL     1      25.765 -14.271 -21.057  1.00  0.00     0.186 C
HETATM   15  S1  UNL     1      26.433 -13.442 -22.285  1.00  0.00    -0.040 SA
BRANCH  14  16
HETATM   16  N4  UNL     1      24.388 -14.557 -20.983  1.00  0.00    -0.365 N
ATOM     17  H4  UNL     1      23.809 -14.386 -21.805  1.00  0.00     0.161 HD
BRANCH  16  18
HETATM   18  C8  UNL     1      23.763 -15.081 -19.800  1.00  0.00     0.133 C
BRANCH  18  19
HETATM   19  C9  UNL     1      22.342 -14.668 -19.601  1.00  0.00     0.104 C
HETATM   20 BR1  UNL     1      21.287 -15.080 -21.186  1.00  0.00    -0.095 Br
ENDBRANCH  18  19
ENDBRANCH  16  18
ENDBRANCH  14  16
ENDBRANCH  12  14
ENDBRANCH   1  12
TORSDOF 8
ENDMDL