MODEL 1
REMARK VINA RESULT: -6.986942046      0.000      0.000
REMARK  6 active torsions:
REMARK  status: ('A' for Active; 'I' for Inactive)
REMARK    1  A    between atoms: C3_3  and  N1_6
REMARK    2  A    between atoms: N1_6  and  C6_8
REMARK    3  A    between atoms: C7_11  and  N3_12
REMARK    4  A    between atoms: N3_12  and  C8_14
REMARK    5  A    between atoms: C8_14  and  C9_15
REMARK    6  A    between atoms: C9_15  and  O1_16
ROOT
HETATM    1  C1  UNL     1      27.970 -12.743 -27.147  1.00  0.00     0.015 C
HETATM    2  C2  UNL     1      28.314 -13.098 -26.048  1.00  0.00    -0.086 C
HETATM    3  C3  UNL     1      28.741 -13.512 -24.676  1.00  0.00     0.087 C
HETATM    4  C4  UNL     1      28.686 -15.033 -24.713  1.00  0.00     0.052 C
HETATM    5  C5  UNL     1      30.157 -13.015 -24.486  1.00  0.00     0.052 C
ENDROOT
BRANCH   3   6
HETATM    6  N1  UNL     1      27.860 -12.924 -23.739  1.00  0.00    -0.355 N
ATOM      7  H1  UNL     1      27.559 -11.969 -23.936  1.00  0.00     0.162 HD
BRANCH   6   8
HETATM    8  C6  UNL     1      27.397 -13.458 -22.671  1.00  0.00     0.137 A
HETATM    9  N2  UNL     1      28.120 -13.854 -21.626  1.00  0.00    -0.176 N
HETATM   10  C7  UNL     1      27.594 -14.422 -20.500  1.00  0.00     0.680 A
ATOM     11  H2  UNL     1      29.131 -13.726 -21.668  1.00  0.00     0.186 HD
HETATM   12  N4  UNL     1      26.269 -14.578 -20.474  1.00  0.00    -0.195 N
HETATM   13  C10 UNL     1      25.461 -14.209 -21.479  1.00  0.00     0.043 A
ATOM     14  H4  UNL     1      25.849 -14.999 -19.645  1.00  0.00     0.184 HD
HETATM   15  C11 UNL     1      23.988 -14.417 -21.374  1.00  0.00     0.070 C
HETATM   16  C12 UNL     1      26.001 -13.641 -22.602  1.00  0.00     0.078 A
HETATM   17 BR1  UNL     1      24.887 -13.095 -24.072  1.00  0.00    -0.045 Br
BRANCH  10  18
HETATM   18  N3  UNL     1      28.414 -14.751 -19.579  1.00  0.00    -0.224 N
ATOM     19  H3  UNL     1      28.036 -14.824 -18.634  1.00  0.00     0.177 HD
BRANCH  18  20
HETATM   20  C8  UNL     1      29.798 -15.028 -19.733  1.00  0.00     0.164 C
BRANCH  20  21
HETATM   21  C9  UNL     1      30.088 -16.466 -20.106  1.00  0.00     0.184 C
BRANCH  21  22
HETATM   22  O1  UNL     1      31.161 -16.973 -19.388  1.00  0.00    -0.399 OA
ATOM     23  H1  UNL     1      31.845 -17.294 -19.963  1.00  0.00     0.209 HD
ENDBRANCH  21  22
ENDBRANCH  20  21
ENDBRANCH  18  20
ENDBRANCH  10  18
ENDBRANCH   6   8
ENDBRANCH   3   6
TORSDOF 6
ENDMDL