MODEL 1
REMARK VINA RESULT: -6.515290404      0.000      0.000
REMARK  4 active torsions:
REMARK  status: ('A' for Active; 'I' for Inactive)
REMARK    1  A    between atoms: C8_9  and  C9_10
REMARK       I    between atoms: C9_10  and  N1_12
REMARK    2  A    between atoms: N1_12  and  C10_14
REMARK    3  A    between atoms: C10_14  and  N2_16
REMARK    4  A    between atoms: N2_16  and  N3_18
ROOT
HETATM    1  C9  UNL     1      28.658 -13.974 -22.134  1.00  0.00     0.228 C
HETATM    2  O1  UNL     1      28.947 -15.178 -22.202  1.00  0.00    -0.273 OA
HETATM    3  N1  UNL     1      29.280 -13.192 -21.126  1.00  0.00    -0.302 N
ATOM      4  H1  UNL     1      29.047 -12.201 -21.063  1.00  0.00     0.171 HD
ENDROOT
BRANCH   1   5
HETATM    5  C8  UNL     1      27.713 -13.377 -23.054  1.00  0.00     0.086 C
HETATM    6  C2  UNL     1      26.341 -13.138 -22.516  1.00  0.00    -0.035 C
HETATM    7  C1  UNL     1      25.879 -14.131 -21.508  1.00  0.00     0.015 C
HETATM    8  C3  UNL     1      26.275 -11.755 -21.905  1.00  0.00     0.015 C
HETATM    9  C4  UNL     1      25.355 -13.189 -23.689  1.00  0.00     0.025 C
HETATM   10  C5  UNL     1      25.950 -12.550 -24.925  1.00  0.00     0.058 C
HETATM   11 BR1  UNL     1      24.565 -12.511 -26.273  1.00  0.00    -0.091 Br
HETATM   12  C6  UNL     1      27.093 -13.399 -25.478  1.00  0.00     0.017 C
HETATM   13  C7  UNL     1      27.709 -14.174 -24.339  1.00  0.00     0.016 C
ENDBRANCH   1   5
BRANCH   3  14
HETATM   14  C10 UNL     1      30.212 -13.733 -20.203  1.00  0.00     0.194 C
HETATM   15  S1  UNL     1      31.678 -13.036 -19.970  1.00  0.00    -0.039 SA
BRANCH  14  16
HETATM   16  N2  UNL     1      29.857 -14.897 -19.473  1.00  0.00    -0.262 N
ATOM     17  H2  UNL     1      29.138 -14.851 -18.751  1.00  0.00     0.191 HD
BRANCH  16  18
HETATM   18  N3  UNL     1      30.505 -16.124 -19.754  1.00  0.00    -0.247 N
HETATM   19  N4  UNL     1      29.820 -17.106 -20.172  1.00  0.00    -0.331 N
ATOM     20  H42 UNL     1      28.814 -16.997 -20.298  1.00  0.00     0.178 HD
ATOM     21  H41 UNL     1      30.287 -17.990 -20.374  1.00  0.00     0.178 HD
ATOM     22  H3  UNL     1      31.512 -16.216 -19.623  1.00  0.00     0.207 HD
ENDBRANCH  16  18
ENDBRANCH  14  16
ENDBRANCH   3  14
TORSDOF 4
ENDMDL