MODEL 3
REMARK VINA RESULT: -6.396720657      4.479      6.647
REMARK  7 active torsions:
REMARK  status: ('A' for Active; 'I' for Inactive)
REMARK    1  A    between atoms: N1_1  and  N2_4
REMARK    2  A    between atoms: N2_4  and  N3_5
REMARK    3  A    between atoms: N3_5  and  C1_7
REMARK    4  A    between atoms: C5_11  and  N4_12
REMARK       I    between atoms: N4_12  and  C6_14
REMARK    5  A    between atoms: C6_14  and  C7_16
REMARK    6  A    between atoms: C9_19  and  O2_20
REMARK    7  A    between atoms: C10_22  and  O3_23
ROOT
HETATM    1  C7  UNL     1      29.825 -12.642 -25.848  1.00  0.00     0.007 C
HETATM    2  C8  UNL     1      30.748 -12.145 -26.430  1.00  0.00    -0.013 C
HETATM    3 BR1  UNL     1      32.207 -11.390 -27.343  1.00  0.00     0.011 Br
ENDROOT
BRANCH   1   4
HETATM    4  C6  UNL     1      28.711 -13.221 -25.172  1.00  0.00     0.297 C
HETATM    5  N4  UNL     1      28.529 -13.020 -23.808  1.00  0.00    -0.343 N
ATOM      6  H4  UNL     1      29.213 -12.449 -23.310  1.00  0.00     0.163 HD
HETATM    7  O1  UNL     1      27.903 -13.913 -25.828  1.00  0.00    -0.258 OA
BRANCH   5   8
HETATM    8  C5  UNL     1      27.410 -13.582 -23.042  1.00  0.00     0.116 C
HETATM    9  C4  UNL     1      26.486 -12.433 -22.736  1.00  0.00     0.028 C
HETATM   10  C3  UNL     1      25.065 -12.983 -22.824  1.00  0.00     0.004 C
HETATM   11  C2  UNL     1      24.955 -14.290 -22.076  1.00  0.00     0.030 C
HETATM   12  C1  UNL     1      25.696 -14.166 -20.794  1.00  0.00     0.145 C
HETATM   13  C10 UNL     1      27.085 -14.674 -20.792  1.00  0.00     0.174 C
HETATM   14  C9  UNL     1      28.008 -14.187 -21.814  1.00  0.00     0.171 C
BRANCH  12  15
HETATM   15  N3  UNL     1      24.957 -14.919 -19.767  1.00  0.00    -0.245 N
ATOM     16  H3  UNL     1      25.445 -15.620 -19.208  1.00  0.00     0.197 HD
BRANCH  15  17
HETATM   17  N2  UNL     1      23.774 -14.717 -19.576  1.00  0.00    -0.248 NA
BRANCH  17  18
HETATM   18  N1  UNL     1      22.603 -14.646 -19.253  1.00  0.00    -0.261 N
ATOM     19  H12 UNL     1      22.838 -13.767 -18.793  1.00  0.00     0.193 HD
ATOM     20  H11 UNL     1      21.605 -14.723 -19.059  1.00  0.00     0.193 HD
ENDBRANCH  17  18
ENDBRANCH  15  17
ENDBRANCH  12  15
BRANCH  13  21
HETATM   21  O3  UNL     1      27.633 -14.356 -19.522  1.00  0.00    -0.391 OA
ATOM     22  H3  UNL     1      27.431 -15.086 -18.948  1.00  0.00     0.210 HD
ENDBRANCH  13  21
BRANCH  14  23
HETATM   23  O2  UNL     1      28.822 -15.259 -22.241  1.00  0.00    -0.391 OA
ATOM     24  H2  UNL     1      29.414 -14.910 -22.898  1.00  0.00     0.210 HD
ENDBRANCH  14  23
ENDBRANCH   5   8
ENDBRANCH   1   4
TORSDOF 7
ENDMDL