MODEL 4
REMARK VINA RESULT: -7.662267890      1.498      1.569
REMARK  2 active torsions:
REMARK  status: ('A' for Active; 'I' for Inactive)
REMARK    1  A    between atoms: C5_5  and  N1_6
REMARK       I    between atoms: N1_6  and  C6_8
REMARK       I    between atoms: C6_8  and  N2_10
REMARK    2  A    between atoms: C9_13  and  N3_14
REMARK       I    between atoms: N3_14  and  C10_16
REMARK       I    between atoms: C10_16  and  N5_20
ROOT
HETATM    1  N3  UNL     1      31.485 -10.997 -18.745  1.00  0.00    -0.220 N
ATOM      2  H3  UNL     1      30.612 -11.440 -18.457  1.00  0.00     0.178 HD
HETATM    3  C10 UNL     1      32.003  -9.961 -17.915  1.00  0.00     0.698 C
HETATM    4  N4  UNL     1      32.632 -10.265 -16.838  1.00  0.00    -0.131 N
ATOM      5  H4  UNL     1      32.742 -11.253 -16.610  1.00  0.00     0.199 HD
HETATM    6 CL1  UNL     1      33.298  -9.110 -15.764  1.00  0.00     0.026 Cl
HETATM    7  N5  UNL     1      31.860  -8.585 -18.216  1.00  0.00    -0.125 N
ATOM      8  H5  UNL     1      31.285  -7.987 -17.622  1.00  0.00     0.197 HD
HETATM    9  C11 UNL     1      32.507  -8.053 -19.327  1.00  0.00     0.196 C
HETATM   10  N6  UNL     1      33.050  -7.606 -20.240  1.00  0.00    -0.171 NA
ENDROOT
BRANCH   1  11
HETATM   11  C9  UNL     1      32.093 -11.456 -19.942  1.00  0.00     0.102 C
HETATM   12  C8  UNL     1      32.113 -12.948 -20.094  1.00  0.00     0.045 C
HETATM   13  C7  UNL     1      31.453 -13.383 -21.404  1.00  0.00     0.129 C
HETATM   14  N2  UNL     1      30.186 -12.760 -21.602  1.00  0.00    -0.334 N
HETATM   15  C6  UNL     1      29.112 -13.467 -22.175  1.00  0.00     0.318 C
HETATM   16  C13 UNL     1      30.001 -11.394 -21.215  1.00  0.00     0.129 C
HETATM   17  N1  UNL     1      27.829 -12.909 -22.396  1.00  0.00    -0.338 N
HETATM   18  O1  UNL     1      29.258 -14.690 -22.534  1.00  0.00    -0.247 OA
ATOM     19  H1  UNL     1      27.661 -11.939 -22.127  1.00  0.00     0.164 HD
HETATM   20  C12 UNL     1      31.401 -10.787 -21.131  1.00  0.00     0.045 C
BRANCH  17  21
HETATM   21  C5  UNL     1      26.758 -13.658 -22.981  1.00  0.00     0.089 C
HETATM   22  C2  UNL     1      25.426 -12.926 -22.849  1.00  0.00     0.004 C
HETATM   23  C1  UNL     1      24.296 -13.889 -23.103  1.00  0.00     0.012 C
HETATM   24  C3  UNL     1      25.799 -12.196 -24.136  1.00  0.00     0.008 C
HETATM   25  C4  UNL     1      26.634 -13.415 -24.491  1.00  0.00     0.026 C
ENDBRANCH  17  21
ENDBRANCH   1  11
TORSDOF 2
ENDMDL