MODEL 3
REMARK VINA RESULT: -7.838465700      5.108      7.235
REMARK  4 active torsions:
REMARK  status: ('A' for Active; 'I' for Inactive)
REMARK    1  A    between atoms: C5_5  and  N1_6
REMARK       I    between atoms: N1_6  and  C7_8
REMARK       I    between atoms: C7_8  and  N2_10
REMARK    2  A    between atoms: N2_10  and  N3_12
REMARK       I    between atoms: N3_12  and  C8_14
REMARK    3  A    between atoms: C8_14  and  C9_16
REMARK    4  A    between atoms: C12_20  and  O3_21
ROOT
HETATM    1  C1  UNL     1      31.860 -17.220 -23.463  1.00  0.00     0.011 C
HETATM    2  C2  UNL     1      32.041 -15.847 -22.789  1.00  0.00    -0.007 C
HETATM    3  C3  UNL     1      30.977 -14.957 -23.324  1.00  0.00     0.007 C
HETATM    4  C4  UNL     1      30.573 -13.816 -22.425  1.00  0.00     0.026 C
HETATM    5  C5  UNL     1      31.654 -13.725 -21.336  1.00  0.00     0.093 C
HETATM    6  C10 UNL     1      31.627 -14.921 -20.465  1.00  0.00     0.022 A
HETATM    7  C11 UNL     1      30.353 -15.603 -20.151  1.00  0.00     0.040 A
HETATM    8  C12 UNL     1      30.746 -16.837 -20.949  1.00  0.00     0.127 A
HETATM    9  C13 UNL     1      32.005 -16.115 -21.320  1.00  0.00    -0.009 A
HETATM   10  C14 UNL     1      33.278 -16.722 -20.811  1.00  0.00     0.018 C
ENDROOT
BRANCH   5  11
HETATM   11  N1  UNL     1      31.741 -12.450 -20.735  1.00  0.00    -0.332 N
HETATM   12  C6  UNL     1      30.944 -11.338 -21.290  1.00  0.00     0.155 C
HETATM   13  C7  UNL     1      32.559 -12.108 -19.587  1.00  0.00     0.337 C
HETATM   14  O1  UNL     1      33.270 -12.986 -19.080  1.00  0.00    -0.245 OA
HETATM   15  N2  UNL     1      32.537 -10.803 -19.067  1.00  0.00    -0.249 N
ATOM     16  H2  UNL     1      31.917 -10.165 -19.567  1.00  0.00     0.192 HD
BRANCH  15  17
HETATM   17  N3  UNL     1      33.193 -10.234 -18.018  1.00  0.00    -0.265 N
HETATM   18  C8  UNL     1      32.723  -9.423 -16.979  1.00  0.00     0.249 C
HETATM   19  O2  UNL     1      31.545  -9.038 -16.785  1.00  0.00    -0.271 OA
ATOM     20  H3  UNL     1      34.193 -10.433 -17.983  1.00  0.00     0.190 HD
BRANCH  18  21
HETATM   21  C9  UNL     1      33.713  -8.914 -15.928  1.00  0.00     0.219 C
HETATM   22 CL1  UNL     1      33.201  -9.509 -14.365  1.00  0.00    -0.121 Cl
ENDBRANCH  18  21
ENDBRANCH  15  17
ENDBRANCH   5  11
BRANCH   8  23
HETATM   23  O3  UNL     1      30.874 -18.003 -20.243  1.00  0.00    -0.395 OA
ATOM     24  H3  UNL     1      31.406 -18.682 -20.640  1.00  0.00     0.210 HD
ENDBRANCH   8  23
TORSDOF 4
ENDMDL