MODEL 2
REMARK VINA RESULT: -7.711284081      2.122      2.273
REMARK  6 active torsions:
REMARK  status: ('A' for Active; 'I' for Inactive)
REMARK       I    between atoms: C2_2  and  N1_4
REMARK    1  A    between atoms: N1_4  and  C3_6
REMARK    2  A    between atoms: C7_10  and  O2_11
REMARK    3  A    between atoms: C7_10  and  C8_13
REMARK    4  A    between atoms: C9_14  and  C10_15
REMARK    5  A    between atoms: C10_15  and  C11_16
REMARK       I    between atoms: C11_16  and  N2_18
REMARK    6  A    between atoms: N2_18  and  C12_20
ROOT
HETATM    1  C3  UNL     1      28.539 -12.146 -19.868  1.00  0.00     0.088 C
HETATM    2  C4  UNL     1      28.324 -10.893 -20.630  1.00  0.00     0.025 C
HETATM    3  C5  UNL     1      27.957 -11.174 -22.074  1.00  0.00     0.006 C
HETATM    4  C6  UNL     1      26.654 -11.949 -21.992  1.00  0.00     0.051 C
HETATM    5  C7  UNL     1      26.997 -13.316 -21.497  1.00  0.00     0.123 C
HETATM    6  C16 UNL     1      28.115 -13.403 -20.549  1.00  0.00     0.076 C
ENDROOT
BRANCH   5   7
HETATM    7  O2  UNL     1      27.271 -14.098 -22.647  1.00  0.00    -0.377 OA
ATOM      8  H2  UNL     1      27.753 -14.859 -22.342  1.00  0.00     0.211 HD
ENDBRANCH   5   7
BRANCH   5   9
HETATM    9  C8  UNL     1      25.793 -13.943 -20.903  1.00  0.00    -0.068 C
HETATM   10  C9  UNL     1      24.817 -14.453 -20.397  1.00  0.00    -0.094 C
BRANCH  10  11
HETATM   11  C10 UNL     1      23.650 -15.063 -19.762  1.00  0.00     0.196 C
BRANCH  11  12
HETATM   12  C11 UNL     1      22.480 -14.913 -20.628  1.00  0.00     0.229 C
HETATM   13  O3  UNL     1      21.331 -15.065 -20.140  1.00  0.00    -0.273 OA
HETATM   14  N2  UNL     1      22.547 -14.601 -22.012  1.00  0.00    -0.352 N
ATOM     15  H2  UNL     1      23.472 -14.473 -22.423  1.00  0.00     0.163 HD
BRANCH  14  16
HETATM   16  C12 UNL     1      21.418 -14.452 -22.869  1.00  0.00     0.022 C
HETATM   17  C13 UNL     1      20.404 -13.462 -22.371  1.00  0.00     0.037 C
HETATM   18  C14 UNL     1      20.726 -15.789 -23.031  1.00  0.00     0.037 C
HETATM   19  C15 UNL     1      21.895 -14.056 -24.270  1.00  0.00     0.037 C
ENDBRANCH  14  16
ENDBRANCH  11  12
ENDBRANCH  10  11
ENDBRANCH   5   9
BRANCH   1  20
HETATM   20  N1  UNL     1      29.939 -12.219 -19.491  1.00  0.00    -0.357 N
HETATM   21  C2  UNL     1      30.367 -12.641 -18.197  1.00  0.00     0.213 C
HETATM   22  C1  UNL     1      31.789 -12.707 -17.837  1.00  0.00     0.117 C
HETATM   23  O1  UNL     1      29.519 -12.969 -17.328  1.00  0.00    -0.274 OA
ATOM     24  H1  UNL     1      30.646 -11.959 -20.180  1.00  0.00     0.162 HD
ENDBRANCH   1  20
TORSDOF 6
ENDMDL