MODEL 5
REMARK VINA RESULT: -8.068224969      3.025      4.532
REMARK  6 active torsions:
REMARK  status: ('A' for Active; 'I' for Inactive)
REMARK    1  A    between atoms: C2_2  and  C3_3
REMARK    2  A    between atoms: C7_7  and  O1_8
REMARK    3  A    between atoms: C8_10  and  O2_11
REMARK    4  A    between atoms: C9_13  and  C10_14
REMARK    5  A    between atoms: C10_14  and  N1_15
REMARK    6  A    between atoms: N1_15  and  C11_17
ROOT
HETATM    1  C3  UNL     1      29.492 -12.332 -18.855  1.00  0.00     0.016 A
HETATM    2  C4  UNL     1      29.729 -10.965 -19.344  1.00  0.00    -0.001 A
HETATM    3  C5  UNL     1      28.581 -10.098 -19.774  1.00  0.00     0.013 C
HETATM    4  C6  UNL     1      28.451 -10.379 -21.252  1.00  0.00     0.022 C
HETATM    5  C7  UNL     1      27.034 -10.241 -21.743  1.00  0.00     0.151 C
HETATM    6  C8  UNL     1      26.520 -11.639 -22.005  1.00  0.00     0.153 C
HETATM    7  C9  UNL     1      27.374 -12.450 -21.020  1.00  0.00     0.040 C
HETATM    8  C16 UNL     1      28.737 -11.869 -21.307  1.00  0.00     0.005 C
HETATM    9  C17 UNL     1      29.756 -12.159 -20.279  1.00  0.00     0.003 A
ENDROOT
BRANCH   7  10
HETATM   10  C10 UNL     1      27.248 -13.889 -21.428  1.00  0.00     0.128 C
BRANCH  10  11
HETATM   11  N1  UNL     1      26.405 -14.552 -20.462  1.00  0.00    -0.376 N
ATOM     12  H1  UNL     1      26.858 -14.953 -19.641  1.00  0.00     0.161 HD
BRANCH  11  13
HETATM   13  C11 UNL     1      25.152 -14.676 -20.550  1.00  0.00     0.100 A
HETATM   14  C12 UNL     1      24.505 -14.313 -21.708  1.00  0.00     0.050 A
HETATM   15  C13 UNL     1      23.116 -14.441 -21.828  1.00  0.00     0.029 A
HETATM   16  C14 UNL     1      22.394 -14.942 -20.762  1.00  0.00     0.049 A
HETATM   17 CL1  UNL     1      20.663 -15.090 -20.944  1.00  0.00    -0.083 Cl
HETATM   18  C15 UNL     1      23.072 -15.291 -19.628  1.00  0.00     0.113 A
HETATM   19  N2  UNL     1      24.420 -15.158 -19.535  1.00  0.00    -0.351 N
ATOM     20  H2  UNL     1      24.887 -15.430 -18.670  1.00  0.00     0.166 HD
ENDBRANCH  11  13
ENDBRANCH  10  11
ENDBRANCH   7  10
BRANCH   6  21
HETATM   21  O2  UNL     1      26.939 -12.005 -23.276  1.00  0.00    -0.393 OA
ATOM     22  H2  UNL     1      26.258 -11.746 -23.886  1.00  0.00     0.210 HD
ENDBRANCH   6  21
BRANCH   5  23
HETATM   23  O1  UNL     1      26.200  -9.644 -20.793  1.00  0.00    -0.393 OA
ATOM     24  H1  UNL     1      25.296  -9.602 -21.083  1.00  0.00     0.210 HD
ENDBRANCH   5  23
BRANCH   1  25
HETATM   25  C2  UNL     1      30.624 -12.946 -18.063  1.00  0.00    -0.031 C
HETATM   26  C1  UNL     1      31.409 -12.219 -17.300  1.00  0.00     0.007 C
ENDBRANCH   1  25
TORSDOF 6
ENDMDL