MODEL 1
REMARK VINA RESULT: -8.109460412      0.000      0.000
REMARK  6 active torsions:
REMARK  status: ('A' for Active; 'I' for Inactive)
REMARK    1  A    between atoms: C7_9  and  C8_10
REMARK    2  A    between atoms: C9_11  and  C11_13
REMARK    3  A    between atoms: C17_20  and  C18_21
REMARK    4  A    between atoms: C18_21  and  O4_22
REMARK    5  A    between atoms: C20_26  and  O6_27
REMARK    6  A    between atoms: C20_26  and  C21_29
ROOT
HETATM    1  C1  UNL     1      -6.293 -16.381  19.245  1.00  0.00     0.036 C
HETATM    2  C2  UNL     1      -6.645 -15.139  18.508  1.00  0.00    -0.024 C
HETATM    3  C3  UNL     1      -6.670 -14.885  17.258  1.00  0.00    -0.032 C
HETATM    4  C4  UNL     1      -7.048 -13.565  16.621  1.00  0.00     0.066 C
HETATM    5  C5  UNL     1      -6.978 -12.365  17.421  1.00  0.00     0.146 C
HETATM    6  O1  UNL     1      -7.672 -12.243  18.616  1.00  0.00    -0.314 OA
HETATM    7  C6  UNL     1      -7.260 -11.191  19.440  1.00  0.00     0.267 C
HETATM    8  O2  UNL     1      -7.482 -11.126  20.672  1.00  0.00    -0.265 OA
HETATM    9  C7  UNL     1      -6.508 -10.122  18.684  1.00  0.00     0.113 C
HETATM   10  C12 UNL     1      -5.274 -10.733  18.022  1.00  0.00     0.010 C
HETATM   11  C13 UNL     1      -5.001 -10.122  16.669  1.00  0.00     0.007 C
HETATM   12  C14 UNL     1      -4.437 -11.237  15.817  1.00  0.00     0.007 C
HETATM   13  C15 UNL     1      -4.871 -12.522  16.406  1.00  0.00     0.011 C
HETATM   14  C16 UNL     1      -5.507 -12.173  17.729  1.00  0.00     0.026 C
HETATM   15  C17 UNL     1      -5.847 -13.338  15.656  1.00  0.00     0.059 C
HETATM   16  C19 UNL     1      -5.337 -14.748  15.422  1.00  0.00     0.179 C
HETATM   17  O5  UNL     1      -4.326 -15.062  14.858  1.00  0.00    -0.293 OA
HETATM   18  C20 UNL     1      -6.367 -15.658  16.051  1.00  0.00     0.168 C
ENDROOT
BRANCH   9  19
HETATM   19  C8  UNL     1      -6.170  -9.075  19.636  1.00  0.00    -0.002 C
HETATM   20  C9  UNL     1      -6.046  -7.799  19.384  1.00  0.00    -0.027 C
HETATM   21  C10 UNL     1      -5.693  -6.805  20.448  1.00  0.00     0.051 C
BRANCH  20  22
HETATM   22  C11 UNL     1      -6.245  -7.279  18.053  1.00  0.00     0.265 C
HETATM   23  O3  UNL     1      -7.398  -6.854  17.670  1.00  0.00    -0.302 OA
ENDBRANCH  20  22
ENDBRANCH   9  19
BRANCH  15  24
HETATM   24  C18 UNL     1      -6.316 -12.828  14.347  1.00  0.00     0.182 C
BRANCH  24  25
HETATM   25  O4  UNL     1      -6.342 -13.768  13.328  1.00  0.00    -0.400 OA
ATOM     26  H4  UNL     1      -6.676 -13.449  12.498  1.00  0.00     0.209 HD
ENDBRANCH  24  25
ENDBRANCH  15  24
BRANCH  18  27
HETATM   27  O6  UNL     1      -7.553 -15.536  15.239  1.00  0.00    -0.375 OA
ATOM     28  H6  UNL     1      -7.590 -16.350  14.752  1.00  0.00     0.211 HD
ENDBRANCH  18  27
BRANCH  18  29
HETATM   29  C21 UNL     1      -5.948 -17.049  16.093  1.00  0.00     0.273 C
HETATM   30  F1  UNL     1      -6.869 -18.009  16.348  1.00  0.00    -0.252 F
ENDBRANCH  18  29
TORSDOF 6
ENDMDL