MODEL 4
REMARK VINA RESULT: -8.148741826      1.691      2.117
REMARK  7 active torsions:
REMARK  status: ('A' for Active; 'I' for Inactive)
REMARK    1  A    between atoms: N1_1  and  C1_5
REMARK    2  A    between atoms: C6_10  and  N2_11
REMARK    3  A    between atoms: N2_11  and  C7_13
REMARK    4  A    between atoms: C9_15  and  O1_16
REMARK    5  A    between atoms: O1_16  and  C10_17
REMARK    6  A    between atoms: C16_25  and  N4_26
REMARK       I    between atoms: N4_26  and  C17_28
REMARK    7  A    between atoms: C17_28  and  O3_30
ROOT
HETATM    1  C7  UNL     1      -4.865  -9.149  14.650  1.00  0.00     0.121 A
HETATM    2  C8  UNL     1      -5.538  -9.073  15.849  1.00  0.00     0.105 A
HETATM    3  C9  UNL     1      -5.532  -7.892  16.596  1.00  0.00     0.161 A
HETATM    4  N3  UNL     1      -4.844  -6.862  16.082  1.00  0.00    -0.170 N
ATOM      5  H3  UNL     1      -4.818  -5.984  16.600  1.00  0.00     0.186 HD
HETATM    6  C16 UNL     1      -4.185  -6.941  14.906  1.00  0.00     0.690 A
HETATM    7  N5  UNL     1      -4.204  -8.081  14.207  1.00  0.00    -0.176 N
ATOM      8  H5  UNL     1      -3.704  -8.135  13.320  1.00  0.00     0.186 HD
ENDROOT
BRANCH   1   9
HETATM    9  N2  UNL     1      -4.913 -10.271  14.013  1.00  0.00    -0.369 N
ATOM     10  H2  UNL     1      -5.803 -10.551  13.601  1.00  0.00     0.161 HD
BRANCH   9  11
HETATM   11  C6  UNL     1      -3.779 -11.156  13.851  1.00  0.00     0.113 C
HETATM   12  C1  UNL     1      -3.477 -11.314  12.390  1.00  0.00     0.206 C
HETATM   13  C2  UNL     1      -4.270 -12.362  11.699  1.00  0.00     0.035 C
HETATM   14  C3  UNL     1      -4.013 -13.684  12.436  1.00  0.00     0.002 C
HETATM   15  C4  UNL     1      -4.655 -13.513  13.794  1.00  0.00     0.002 C
HETATM   16  C5  UNL     1      -3.986 -12.428  14.587  1.00  0.00     0.027 C
BRANCH  12  17
HETATM   17  N1  UNL     1      -2.071 -11.546  12.180  1.00  0.00    -0.073 N
ATOM     18  H13 UNL     1      -1.902 -12.318  11.536  1.00  0.00     0.274 HD
ATOM     19  H12 UNL     1      -1.637 -10.801  11.635  1.00  0.00     0.274 HD
ATOM     20  H11 UNL     1      -1.604 -11.687  13.076  1.00  0.00     0.274 HD
ENDBRANCH  12  17
ENDBRANCH   9  11
ENDBRANCH   1   9
BRANCH   3  21
HETATM   21  O1  UNL     1      -6.204  -7.810  17.799  1.00  0.00    -0.329 OA
BRANCH  21  22
HETATM   22  C10 UNL     1      -5.672  -7.896  19.073  1.00  0.00     0.135 C
HETATM   23  C11 UNL     1      -6.556  -8.758  20.001  1.00  0.00     0.037 C
HETATM   24  C12 UNL     1      -6.832  -7.774  21.073  1.00  0.00    -0.011 C
HETATM   25  C13 UNL     1      -7.162  -6.509  20.279  1.00  0.00     0.012 C
HETATM   26  C15 UNL     1      -5.457  -7.124  21.272  1.00  0.00     0.012 C
HETATM   27  C14 UNL     1      -5.716  -6.611  19.847  1.00  0.00     0.016 C
ENDBRANCH  21  22
ENDBRANCH   3  21
BRANCH   6  28
HETATM   28  N4  UNL     1      -3.534  -5.920  14.449  1.00  0.00    -0.134 N
HETATM   29  C17 UNL     1      -2.715  -5.147  15.287  1.00  0.00     0.396 C
HETATM   30  O2  UNL     1      -3.101  -3.969  15.594  1.00  0.00    -0.236 OA
ATOM     31  H4  UNL     1      -3.618  -5.673  13.462  1.00  0.00     0.189 HD
BRANCH  29  32
HETATM   32  O3  UNL     1      -1.507  -5.555  15.816  1.00  0.00    -0.185 OA
HETATM   33 CL1  UNL     1      -0.756  -4.784  17.151  1.00  0.00     0.072 Cl
ENDBRANCH  29  32
ENDBRANCH   6  28
TORSDOF 7
ENDMDL