MODEL 4
REMARK VINA RESULT: -7.700311640      1.033      1.420
REMARK  5 active torsions:
REMARK  status: ('A' for Active; 'I' for Inactive)
REMARK    1  A    between atoms: C4_7  and  N3_8
REMARK    2  A    between atoms: N3_8  and  C5_10
REMARK    3  A    between atoms: N5_20  and  C12_22
REMARK    4  A    between atoms: C15_25  and  S1_26
REMARK    5  A    between atoms: S1_26  and  N6_27
ROOT
HETATM    1  N1  UNL     1      -6.712 -10.431  18.066  1.00  0.00    -0.191 NA
HETATM    2  C1  UNL     1      -6.137  -9.806  17.279  1.00  0.00     0.104 C
HETATM    3  C2  UNL     1      -5.427  -8.994  16.316  1.00  0.00     0.105 A
HETATM    4  C3  UNL     1      -5.392  -7.608  16.470  1.00  0.00     0.132 A
HETATM    5  N2  UNL     1      -4.757  -6.783  15.623  1.00  0.00    -0.200 N
ATOM      6  H2  UNL     1      -4.757  -5.774  15.773  1.00  0.00     0.183 HD
HETATM    7  C4  UNL     1      -4.123  -7.327  14.572  1.00  0.00     0.684 A
HETATM    8  N4  UNL     1      -4.139  -8.628  14.401  1.00  0.00    -0.175 N
ATOM      9  H4  UNL     1      -3.646  -9.005  13.592  1.00  0.00     0.186 HD
HETATM   10  C11 UNL     1      -4.775  -9.527  15.238  1.00  0.00     0.143 A
HETATM   11  N5  UNL     1      -4.722 -10.729  14.979  1.00  0.00    -0.341 N
ATOM     12  H5  UNL     1      -4.177 -10.857  14.127  1.00  0.00     0.167 HD
ENDROOT
BRANCH  11  13
HETATM   13  C12 UNL     1      -5.131 -11.950  15.424  1.00  0.00     0.033 A
HETATM   14  C13 UNL     1      -6.327 -12.479  14.925  1.00  0.00     0.031 A
HETATM   15  C14 UNL     1      -6.799 -13.699  15.350  1.00  0.00     0.027 A
HETATM   16  C15 UNL     1      -6.122 -14.453  16.282  1.00  0.00     0.079 A
HETATM   17  C16 UNL     1      -4.948 -13.919  16.764  1.00  0.00     0.027 A
HETATM   18  C17 UNL     1      -4.436 -12.712  16.374  1.00  0.00     0.031 A
BRANCH  16  19
HETATM   19  S1  UNL     1      -6.712 -16.004  16.830  1.00  0.00     0.256 S
HETATM   20  O1  UNL     1      -5.518 -16.917  16.989  1.00  0.00    -0.201 OA
HETATM   21  O2  UNL     1      -7.411 -15.868  18.148  1.00  0.00    -0.201 OA
BRANCH  19  22
HETATM   22  N6  UNL     1      -7.780 -16.643  15.619  1.00  0.00    -0.324 N
ATOM     23  H62 UNL     1      -7.491 -16.962  14.694  1.00  0.00     0.169 HD
ATOM     24  H61 UNL     1      -8.729 -16.642  15.992  1.00  0.00     0.169 HD
ENDBRANCH  19  22
ENDBRANCH  16  19
ENDBRANCH  11  13
BRANCH   7  25
HETATM   25  N3  UNL     1      -3.503  -6.518  13.745  1.00  0.00    -0.189 N
ATOM     26  H3  UNL     1      -3.143  -6.896  12.868  1.00  0.00     0.184 HD
BRANCH  25  27
HETATM   27  C5  UNL     1      -3.316  -5.152  14.016  1.00  0.00     0.087 A
HETATM   28  C6  UNL     1      -3.877  -4.171  13.237  1.00  0.00     0.033 A
HETATM   29  C7  UNL     1      -3.676  -2.844  13.529  1.00  0.00     0.002 A
HETATM   30  C8  UNL     1      -2.912  -2.433  14.600  1.00  0.00     0.003 A
HETATM   31  C9  UNL     1      -2.347  -3.437  15.383  1.00  0.00     0.044 A
HETATM   32  C10 UNL     1      -2.551  -4.768  15.089  1.00  0.00     0.143 A
HETATM   33  F1  UNL     1      -1.959  -5.681  15.910  1.00  0.00    -0.204 F
ENDBRANCH  25  27
ENDBRANCH   7  25
TORSDOF 5
ENDMDL