MODEL 3
REMARK VINA RESULT: -7.418490266      5.406      7.613
REMARK  4 active torsions:
REMARK  status: ('A' for Active; 'I' for Inactive)
REMARK    1  A    between atoms: S1_2  and  C2_4
REMARK    2  A    between atoms: C8_11  and  N1_12
REMARK       I    between atoms: N1_12  and  C9_14
REMARK    3  A    between atoms: C9_14  and  C10_16
REMARK    4  A    between atoms: C16_24  and  O3_25
ROOT
HETATM    1  N1  UNL     1      -4.641 -12.131  15.182  1.00  0.00    -0.324 N
ATOM      2  H1  UNL     1      -4.796 -13.065  14.805  1.00  0.00     0.169 HD
HETATM    3  C9  UNL     1      -3.764 -11.477  14.361  1.00  0.00     0.271 C
HETATM    4  O2  UNL     1      -3.303 -10.349  14.585  1.00  0.00    -0.266 OA
ENDROOT
BRANCH   1   5
HETATM    5  C8  UNL     1      -5.393 -11.994  16.332  1.00  0.00     0.030 C
HETATM    6  C7  UNL     1      -6.516 -12.584  16.599  1.00  0.00     0.035 C
HETATM    7  C6  UNL     1      -7.355 -12.453  17.869  1.00  0.00     0.058 C
HETATM    8 CL1  UNL     1      -7.249 -13.718  15.425  1.00  0.00    -0.087 Cl
HETATM    9  C5  UNL     1      -6.516 -11.662  18.797  1.00  0.00    -0.004 C
HETATM   10  C4  UNL     1      -7.076 -11.097  20.010  1.00  0.00     0.006 C
HETATM   11  C18 UNL     1      -6.192 -10.424  17.894  1.00  0.00     0.012 C
HETATM   12  C3  UNL     1      -6.369  -9.736  20.156  1.00  0.00     0.018 C
HETATM   13  C2  UNL     1      -6.499  -9.289  18.693  1.00  0.00     0.083 C
HETATM   14  C17 UNL     1      -4.906 -10.847  17.327  1.00  0.00     0.065 C
BRANCH  13  15
HETATM   15  S1  UNL     1      -6.006  -7.658  18.341  1.00  0.00     0.015 S
HETATM   16  C1  UNL     1      -5.713  -6.832  19.949  1.00  0.00     0.127 C
HETATM   17  O1  UNL     1      -7.237  -6.908  17.780  1.00  0.00    -0.258 OA
ENDBRANCH  13  15
ENDBRANCH   1   5
BRANCH   3  18
HETATM   18  C10 UNL     1      -3.268 -12.115  13.072  1.00  0.00     0.106 C
HETATM   19  N2  UNL     1      -3.034 -13.452  13.049  1.00  0.00    -0.366 N
HETATM   20  C11 UNL     1      -1.753 -14.008  13.121  1.00  0.00     0.061 C
ATOM     21  H2  UNL     1      -3.832 -14.082  12.975  1.00  0.00     0.165 HD
HETATM   22  C12 UNL     1      -0.953 -14.144  11.877  1.00  0.00     0.044 C
HETATM   23  C13 UNL     1      -1.559 -13.663  10.614  1.00  0.00     0.005 C
HETATM   24  C14 UNL     1      -1.830 -12.191  10.579  1.00  0.00     0.003 C
HETATM   25  C15 UNL     1      -3.317 -11.923  10.555  1.00  0.00     0.038 C
HETATM   26  C16 UNL     1      -3.857 -11.471  11.867  1.00  0.00     0.173 C
BRANCH  26  27
HETATM   27  O3  UNL     1      -3.555 -10.061  11.899  1.00  0.00    -0.389 OA
ATOM     28  H3  UNL     1      -4.323  -9.590  12.198  1.00  0.00     0.210 HD
ENDBRANCH  26  27
ENDBRANCH   3  18
TORSDOF 4
ENDMDL