MODEL 4
REMARK VINA RESULT: -5.763381979      4.424      7.669
REMARK  6 active torsions:
REMARK  status: ('A' for Active; 'I' for Inactive)
REMARK    1  A    between atoms: N1_8  and  C7_9
REMARK    2  A    between atoms: C7_9  and  C8_10
REMARK    3  A    between atoms: C8_10  and  O1_11
REMARK    4  A    between atoms: C12_19  and  N3_21
REMARK       I    between atoms: N3_21  and  C14_23
REMARK    5  A    between atoms: C14_23  and  O4_25
REMARK    6  A    between atoms: O4_25  and  C15_26
ROOT
HETATM    1  C8  UNL     1      -4.996 -12.733  13.495  1.00  0.00     0.138 C
HETATM    2  C9  UNL     1      -4.592 -14.104  14.011  1.00  0.00     0.119 C
HETATM    3  C10 UNL     1      -5.058 -14.405  15.398  1.00  0.00     0.035 C
HETATM    4  N2  UNL     1      -3.146 -14.015  13.901  1.00  0.00    -0.351 N
ATOM      5  H2  UNL     1      -2.450 -14.424  14.524  1.00  0.00     0.163 HD
HETATM    6  C11 UNL     1      -2.907 -13.221  12.718  1.00  0.00     0.249 C
HETATM    7  O2  UNL     1      -1.784 -12.937  12.250  1.00  0.00    -0.271 OA
HETATM    8  C12 UNL     1      -4.201 -12.804  12.155  1.00  0.00     0.146 C
HETATM    9  C13 UNL     1      -4.794 -13.952  11.364  1.00  0.00     0.052 C
ENDROOT
BRANCH   1  10
HETATM   10  C7  UNL     1      -4.355 -11.633  14.286  1.00  0.00     0.318 C
BRANCH  10  11
HETATM   11  N1  UNL     1      -5.253 -10.731  14.907  1.00  0.00     0.120 N
HETATM   12  C2  UNL     1      -4.942  -9.342  14.979  1.00  0.00     0.229 C
HETATM   13  C1  UNL     1      -3.507  -8.943  15.185  1.00  0.00     0.043 C
HETATM   14  C3  UNL     1      -5.654  -9.251  16.343  1.00  0.00     0.069 C
HETATM   15  C4  UNL     1      -7.054  -8.754  16.142  1.00  0.00     0.016 C
HETATM   16  C5  UNL     1      -5.472 -10.763  16.305  1.00  0.00     0.237 C
HETATM   17  C6  UNL     1      -6.765 -11.408  16.768  1.00  0.00     0.068 C
HETATM   18 CL1  UNL     1      -4.133 -11.372  17.310  1.00  0.00    -0.085 Cl
ENDBRANCH  10  11
ENDBRANCH   1  10
BRANCH   1  19
HETATM   19  O1  UNL     1      -6.321 -12.585  13.215  1.00  0.00    -0.383 OA
ATOM     20  H1  UNL     1      -6.786 -11.918  13.709  1.00  0.00     0.210 HD
ENDBRANCH   1  19
BRANCH   8  21
HETATM   21  N3  UNL     1      -4.235 -11.575  11.450  1.00  0.00    -0.316 N
HETATM   22  C14 UNL     1      -3.907 -11.510  10.081  1.00  0.00     0.362 C
HETATM   23  O3  UNL     1      -3.582 -12.560   9.481  1.00  0.00    -0.238 OA
ATOM     24  H3  UNL     1      -4.501 -10.722  11.943  1.00  0.00     0.166 HD
BRANCH  22  25
HETATM   25  O4  UNL     1      -3.951 -10.281   9.422  1.00  0.00    -0.294 OA
BRANCH  25  26
HETATM   26  C15 UNL     1      -2.784  -9.569   9.138  1.00  0.00     0.061 C
HETATM   27  C16 UNL     1      -1.563 -10.192   9.809  1.00  0.00     0.046 C
HETATM   28  C17 UNL     1      -2.975  -8.135   9.563  1.00  0.00     0.046 C
HETATM   29  C18 UNL     1      -2.506  -9.589   7.641  1.00  0.00     0.046 C
ENDBRANCH  25  26
ENDBRANCH  22  25
ENDBRANCH   8  21
TORSDOF 6
ENDMDL