MODEL 4
REMARK VINA RESULT: -8.032140176      3.845      6.929
REMARK  6 active torsions:
REMARK  status: ('A' for Active; 'I' for Inactive)
REMARK    1  A    between atoms: O1_1  and  C1_3
REMARK    2  A    between atoms: C4_6  and  N1_7
REMARK    3  A    between atoms: N1_7  and  C5_9
REMARK    4  A    between atoms: C6_12  and  N3_13
REMARK    5  A    between atoms: C12_21  and  N5_22
REMARK    6  A    between atoms: N5_22  and  C13_23
ROOT
HETATM    1  C5  UNL     1      -4.335  -7.376  15.283  1.00  0.00     0.696 A
HETATM    2  N2  UNL     1      -5.070  -7.805  16.356  1.00  0.00    -0.022 N
ATOM      3  H2  UNL     1      -5.382  -7.124  17.049  1.00  0.00     0.203 HD
HETATM    4  C6  UNL     1      -5.399  -9.122  16.522  1.00  0.00     0.698 A
HETATM    5  N4  UNL     1      -4.970  -9.955  15.608  1.00  0.00    -0.148 N
ATOM      6  H4  UNL     1      -5.204 -10.941  15.727  1.00  0.00     0.188 HD
HETATM    7  C12 UNL     1      -4.212  -9.601  14.472  1.00  0.00     0.283 A
HETATM    8  N6  UNL     1      -3.928  -8.266  14.388  1.00  0.00    -0.148 N
ATOM      9  H6  UNL     1      -3.375  -7.937  13.596  1.00  0.00     0.188 HD
ENDROOT
BRANCH   1  10
HETATM   10  N1  UNL     1      -4.140  -6.117  15.265  1.00  0.00    -0.221 N
ATOM     11  H1  UNL     1      -4.607  -5.549  15.972  1.00  0.00     0.178 HD
BRANCH  10  12
HETATM   12  C4  UNL     1      -3.305  -5.449  14.311  1.00  0.00     0.099 C
HETATM   13  C3  UNL     1      -2.465  -4.416  15.078  1.00  0.00     0.028 C
HETATM   14  C2  UNL     1      -3.128  -3.055  14.968  1.00  0.00     0.034 C
HETATM   15  C1  UNL     1      -2.992  -2.559  13.551  1.00  0.00     0.118 C
HETATM   16  C18 UNL     1      -3.162  -3.713  12.605  1.00  0.00     0.034 C
HETATM   17  C17 UNL     1      -4.080  -4.756  13.215  1.00  0.00     0.028 C
BRANCH  15  18
HETATM   18  O1  UNL     1      -1.759  -1.974  13.342  1.00  0.00    -0.396 OA
ATOM     19  H1  UNL     1      -1.700  -1.597  12.471  1.00  0.00     0.210 HD
ENDBRANCH  15  18
ENDBRANCH  10  12
ENDBRANCH   1  10
BRANCH   4  20
HETATM   20  N3  UNL     1      -6.107  -9.507  17.678  1.00  0.00    -0.217 N
HETATM   21  C7  UNL     1      -6.723 -10.810  17.746  1.00  0.00     0.141 C
HETATM   22  C8  UNL     1      -5.980 -11.482  18.898  1.00  0.00     0.020 C
HETATM   23  C9  UNL     1      -6.326 -10.785  20.155  1.00  0.00     0.003 C
HETATM   24  C10 UNL     1      -6.847  -9.387  19.987  1.00  0.00     0.020 C
HETATM   25  C11 UNL     1      -6.185  -8.657  18.817  1.00  0.00     0.141 C
ENDBRANCH   4  20
BRANCH   7  26
HETATM   26  N5  UNL     1      -3.922 -10.471  13.683  1.00  0.00    -0.409 NA
BRANCH  26  27
HETATM   27  C13 UNL     1      -3.539 -11.466  12.870  1.00  0.00     0.169 C
HETATM   28  C14 UNL     1      -4.555 -12.479  12.417  1.00  0.00     0.059 C
HETATM   29  C15 UNL     1      -3.968 -12.369  11.009  1.00  0.00     0.088 C
HETATM   30 CL1  UNL     1      -5.109 -12.400   9.685  1.00  0.00    -0.125 Cl
HETATM   31  C16 UNL     1      -3.475 -11.001  11.371  1.00  0.00     0.059 C
ENDBRANCH  26  27
ENDBRANCH   7  26
TORSDOF 6
ENDMDL