MODEL 2
REMARK VINA RESULT: -8.682203821      2.769      6.048
REMARK  5 active torsions:
REMARK  status: ('A' for Active; 'I' for Inactive)
REMARK    1  A    between atoms: C1_2  and  C2_3
REMARK    2  A    between atoms: C5_6  and  N1_7
REMARK    3  A    between atoms: N1_7  and  C6_9
REMARK    4  A    between atoms: C7_12  and  N3_13
REMARK    5  A    between atoms: N3_13  and  C8_15
ROOT
HETATM    1  C6  UNL     1      -4.728  -8.587  14.852  1.00  0.00     0.140 A
HETATM    2  N2  UNL     1      -5.483  -8.033  15.819  1.00  0.00    -0.175 N
ATOM      3  H2  UNL     1      -5.343  -7.053  16.061  1.00  0.00     0.186 HD
HETATM    4  C7  UNL     1      -6.428  -8.752  16.478  1.00  0.00     0.685 A
HETATM    5  N4  UNL     1      -6.644 -10.044  16.189  1.00  0.00    -0.185 N
ATOM      6  H4  UNL     1      -7.359 -10.565  16.697  1.00  0.00     0.184 HD
HETATM    7  C14 UNL     1      -5.923 -10.659  15.232  1.00  0.00     0.136 A
HETATM    8  C15 UNL     1      -4.957  -9.916  14.561  1.00  0.00     0.109 A
HETATM    9  C16 UNL     1      -4.345 -10.813  13.603  1.00  0.00     0.264 A
HETATM   10  O2  UNL     1      -3.430 -10.483  12.822  1.00  0.00    -0.267 OA
HETATM   11  N5  UNL     1      -4.956 -12.113  13.703  1.00  0.00    -0.288 N
ATOM     12  H5  UNL     1      -4.726 -12.939  13.152  1.00  0.00     0.172 HD
HETATM   13  C17 UNL     1      -5.938 -12.018  14.717  1.00  0.00     0.276 A
HETATM   14  O3  UNL     1      -6.679 -12.950  15.090  1.00  0.00    -0.266 OA
ENDROOT
BRANCH   1  15
HETATM   15  N1  UNL     1      -3.839  -7.959  14.212  1.00  0.00    -0.341 N
ATOM     16  H1  UNL     1      -3.250  -8.523  13.599  1.00  0.00     0.167 HD
BRANCH  15  17
HETATM   17  C5  UNL     1      -3.560  -6.593  14.238  1.00  0.00     0.033 A
HETATM   18  C4  UNL     1      -3.894  -5.818  13.151  1.00  0.00     0.030 A
HETATM   19  C3  UNL     1      -3.653  -4.465  13.098  1.00  0.00     0.017 A
HETATM   20  C2  UNL     1      -3.056  -3.847  14.162  1.00  0.00     0.002 A
HETATM   21  C19 UNL     1      -2.702  -4.597  15.281  1.00  0.00     0.017 A
HETATM   22  C18 UNL     1      -2.958  -5.952  15.302  1.00  0.00     0.030 A
BRANCH  20  23
HETATM   23  C1  UNL     1      -2.795  -2.413  14.118  1.00  0.00     0.269 C
HETATM   24  O1  UNL     1      -1.837  -1.965  13.465  1.00  0.00    -0.301 OA
ENDBRANCH  20  23
ENDBRANCH  15  17
ENDBRANCH   1  15
BRANCH   4  25
HETATM   25  N3  UNL     1      -7.151  -8.219  17.406  1.00  0.00    -0.189 N
ATOM     26  H3  UNL     1      -8.125  -8.009  17.191  1.00  0.00     0.184 HD
BRANCH  25  27
HETATM   27  C8  UNL     1      -6.680  -7.913  18.690  1.00  0.00     0.087 A
HETATM   28  C9  UNL     1      -6.200  -6.655  18.963  1.00  0.00     0.033 A
HETATM   29  C10 UNL     1      -5.725  -6.295  20.202  1.00  0.00     0.002 A
HETATM   30  C11 UNL     1      -5.719  -7.226  21.237  1.00  0.00     0.003 A
HETATM   31  C12 UNL     1      -6.198  -8.475  20.958  1.00  0.00     0.044 A
HETATM   32  C13 UNL     1      -6.680  -8.844  19.705  1.00  0.00     0.143 A
HETATM   33  F1  UNL     1      -7.150 -10.088  19.448  1.00  0.00    -0.204 F
ENDBRANCH  25  27
ENDBRANCH   4  25
TORSDOF 5
ENDMDL