MODEL 1
REMARK VINA RESULT: -6.853536415      0.000      0.000
REMARK  5 active torsions:
REMARK  status: ('A' for Active; 'I' for Inactive)
REMARK    1  A    between atoms: C2_2  and  C3_4
REMARK    2  A    between atoms: N2_6  and  C4_7
REMARK    3  A    between atoms: C11_16  and  O3_17
REMARK    4  A    between atoms: N3_19  and  C12_20
REMARK    5  A    between atoms: C16_24  and  O4_25
ROOT
HETATM    1  C3  UNL     1      -6.657 -10.400  17.528  1.00  0.00     0.176 C
HETATM    2  N1  UNL     1      -5.913  -9.705  18.579  1.00  0.00    -0.121 NA
HETATM    3  N2  UNL     1      -6.700  -9.484  19.694  1.00  0.00    -0.255 N
HETATM    4  C7  UNL     1      -7.480 -10.387  20.441  1.00  0.00     0.240 C
HETATM    5  O2  UNL     1      -7.603 -10.137  21.670  1.00  0.00    -0.272 OA
HETATM    6  C8  UNL     1      -8.200 -11.612  20.020  1.00  0.00     0.148 C
HETATM    7  C9  UNL     1      -7.475 -12.340  18.953  1.00  0.00     0.014 A
HETATM    8  C10 UNL     1      -6.785 -11.831  17.850  1.00  0.00     0.030 A
HETATM    9  C11 UNL     1      -6.275 -12.866  17.172  1.00  0.00     0.153 A
HETATM   10  N3  UNL     1      -6.613 -14.033  17.802  1.00  0.00    -0.303 N
HETATM   11  C16 UNL     1      -7.348 -13.697  18.891  1.00  0.00     0.152 A
ENDROOT
BRANCH   3  12
HETATM   12  C4  UNL     1      -6.726  -8.117  20.170  1.00  0.00     0.155 C
HETATM   13  C5  UNL     1      -6.488  -7.072  19.116  1.00  0.00     0.197 C
HETATM   14  O1  UNL     1      -5.572  -6.462  19.977  1.00  0.00    -0.387 OA
HETATM   15  C6  UNL     1      -5.354  -7.646  20.645  1.00  0.00     0.197 C
ENDBRANCH   3  12
BRANCH   1  16
HETATM   16  C2  UNL     1      -6.008 -10.085  16.245  1.00  0.00     0.005 C
HETATM   17  C1  UNL     1      -6.689  -9.848  15.140  1.00  0.00     0.029 C
HETATM   18 BR1  UNL     1      -4.103 -10.006  16.140  1.00  0.00    -0.054 Br
ENDBRANCH   1  16
BRANCH   9  19
HETATM   19  O3  UNL     1      -5.501 -12.842  15.993  1.00  0.00    -0.345 OA
ATOM     20  H3  UNL     1      -4.854 -13.473  15.700  1.00  0.00     0.219 HD
ENDBRANCH   9  19
BRANCH  11  21
HETATM   21  O4  UNL     1      -7.871 -14.627  19.779  1.00  0.00    -0.345 OA
ATOM     22  H4  UNL     1      -8.315 -15.438  19.562  1.00  0.00     0.219 HD
ENDBRANCH  11  21
BRANCH  10  23
HETATM   23  C12 UNL     1      -6.225 -15.315  17.333  1.00  0.00     0.094 C
HETATM   24  C13 UNL     1      -7.215 -16.415  17.322  1.00  0.00     0.026 C
HETATM   25  C14 UNL     1      -6.091 -17.366  17.713  1.00  0.00     0.004 C
HETATM   26  C15 UNL     1      -5.379 -16.146  18.291  1.00  0.00     0.026 C
ENDBRANCH  10  23
TORSDOF 5
ENDMDL