MODEL 5
REMARK VINA RESULT: -7.187849594      2.828      5.014
REMARK  4 active torsions:
REMARK  status: ('A' for Active; 'I' for Inactive)
REMARK    1  A    between atoms: C3_3  and  C4_4
REMARK    2  A    between atoms: C8_14  and  N3_15
REMARK    3  A    between atoms: N4_18  and  C11_19
REMARK    4  A    between atoms: C11_19  and  C12_20
ROOT
HETATM    1  C1  UNL     1      -7.678 -11.436  20.517  1.00  0.00     0.112 C
HETATM    2  C2  UNL     1      -7.063 -10.579  19.503  1.00  0.00    -0.105 C
HETATM    3  C3  UNL     1      -6.541  -9.863  18.655  1.00  0.00    -0.064 C
ENDROOT
BRANCH   3   4
HETATM    4  C4  UNL     1      -5.919  -9.011  17.683  1.00  0.00     0.061 A
HETATM    5  C5  UNL     1      -5.779  -7.640  17.928  1.00  0.00     0.112 A
HETATM    6  N1  UNL     1      -5.208  -6.812  17.041  1.00  0.00    -0.350 N
HETATM    7  C6  UNL     1      -4.754  -7.290  15.890  1.00  0.00     0.123 A
ATOM      8  H1  UNL     1      -5.122  -5.818  17.252  1.00  0.00     0.166 HD
HETATM    9  N2  UNL     1      -4.207  -6.512  15.033  1.00  0.00    -0.384 N
HETATM   10  C7  UNL     1      -4.880  -8.650  15.619  1.00  0.00     0.105 A
ATOM     11  H22 UNL     1      -4.115  -5.516  15.232  1.00  0.00     0.157 HD
ATOM     12  H21 UNL     1      -3.858  -6.879  14.148  1.00  0.00     0.157 HD
HETATM   13 CL1  UNL     1      -4.279  -9.265  14.102  1.00  0.00    -0.078 Cl
HETATM   14  C8  UNL     1      -5.459  -9.543  16.496  1.00  0.00     0.081 A
BRANCH  14  15
HETATM   15  N3  UNL     1      -5.565 -10.926  16.188  1.00  0.00    -0.336 N
HETATM   16  C9  UNL     1      -6.827 -11.322  15.592  1.00  0.00     0.174 C
HETATM   17  C10 UNL     1      -7.057 -12.815  15.654  1.00  0.00     0.083 C
HETATM   18  N4  UNL     1      -6.225 -13.613  14.847  1.00  0.00    -0.367 N
HETATM   19  C18 UNL     1      -5.092 -14.228  15.431  1.00  0.00     0.171 C
HETATM   20  C19 UNL     1      -4.931 -14.050  16.890  1.00  0.00     0.082 C
HETATM   21  N5  UNL     1      -4.691 -12.770  17.366  1.00  0.00    -0.364 N
HETATM   22  C20 UNL     1      -4.387 -11.701  16.524  1.00  0.00     0.183 C
ATOM     23  H5  UNL     1      -4.740 -12.603  18.371  1.00  0.00     0.165 HD
BRANCH  18  24
HETATM   24  C11 UNL     1      -6.099 -13.127  13.535  1.00  0.00     0.068 C
BRANCH  24  25
HETATM   25  C12 UNL     1      -4.799 -13.492  12.849  1.00  0.00     0.026 C
HETATM   26  C13 UNL     1      -5.127 -14.353  11.663  1.00  0.00     0.012 C
HETATM   27  C14 UNL     1      -4.834 -13.715  10.345  1.00  0.00     0.027 C
HETATM   28  C15 UNL     1      -3.357 -13.881  10.056  1.00  0.00     0.167 C
HETATM   29  O1  UNL     1      -2.703 -13.735  11.302  1.00  0.00    -0.391 OA
HETATM   30  C16 UNL     1      -2.869 -12.397  11.664  1.00  0.00     0.168 C
HETATM   31  C17 UNL     1      -4.147 -12.172  12.409  1.00  0.00     0.036 C
ENDBRANCH  24  25
ENDBRANCH  18  24
ENDBRANCH  14  15
ENDBRANCH   3   4
TORSDOF 4
ENDMDL