MODEL 3
REMARK VINA RESULT: -7.518949097      3.620      6.282
REMARK  6 active torsions:
REMARK  status: ('A' for Active; 'I' for Inactive)
REMARK    1  A    between atoms: C4_8  and  N3_9
REMARK    2  A    between atoms: N3_9  and  C5_11
REMARK    3  A    between atoms: C5_11  and  C6_12
REMARK    4  A    between atoms: C9_15  and  N4_16
REMARK    5  A    between atoms: C12_24  and  N6_25
REMARK    6  A    between atoms: N6_25  and  C13_27
ROOT
HETATM    1  N1  UNL     1      -6.746 -13.986  16.502  1.00  0.00    -0.191 NA
HETATM    2  C1  UNL     1      -6.299 -12.961  16.172  1.00  0.00     0.106 C
HETATM    3  C2  UNL     1      -5.753 -11.698  15.751  1.00  0.00     0.127 A
HETATM    4  C3  UNL     1      -5.589 -11.428  14.411  1.00  0.00     0.143 A
HETATM    5 CL1  UNL     1      -6.063 -12.663  13.266  1.00  0.00    -0.062 Cl
HETATM    6  N2  UNL     1      -5.078 -10.245  14.030  1.00  0.00    -0.180 N
ATOM      7  H2  UNL     1      -4.966 -10.070  13.031  1.00  0.00     0.185 HD
HETATM    8  C4  UNL     1      -4.704  -9.277  14.886  1.00  0.00     0.680 A
HETATM    9  N5  UNL     1      -4.869  -9.547  16.210  1.00  0.00    -0.175 N
ATOM     10  H5  UNL     1      -4.600  -8.842  16.897  1.00  0.00     0.186 HD
HETATM   11  C12 UNL     1      -5.375 -10.716  16.640  1.00  0.00     0.141 A
ENDROOT
BRANCH  11  12
HETATM   12  N6  UNL     1      -5.507 -10.919  17.882  1.00  0.00    -0.368 N
ATOM     13  H6  UNL     1      -4.865 -11.591  18.301  1.00  0.00     0.161 HD
BRANCH  12  14
HETATM   14  C13 UNL     1      -6.456 -10.310  18.764  1.00  0.00     0.117 C
HETATM   15  C14 UNL     1      -6.032  -8.990  19.311  1.00  0.00     0.297 C
HETATM   16  N7  UNL     1      -6.244  -9.012  20.744  1.00  0.00     0.090 N
HETATM   17  C15 UNL     1      -7.594  -8.692  21.129  1.00  0.00     0.272 C
HETATM   18  C19 UNL     1      -5.931 -10.368  21.100  1.00  0.00     0.279 C
HETATM   19  C16 UNL     1      -8.486  -9.885  21.280  1.00  0.00     0.031 C
HETATM   20  C17 UNL     1      -8.148 -11.024  20.362  1.00  0.00     0.010 C
HETATM   21  C18 UNL     1      -6.704 -11.127  20.011  1.00  0.00     0.038 C
ENDBRANCH  12  14
ENDBRANCH  11  12
BRANCH   8  22
HETATM   22  N3  UNL     1      -4.222  -8.156  14.534  1.00  0.00    -0.226 N
ATOM     23  H3  UNL     1      -3.677  -8.166  13.672  1.00  0.00     0.177 HD
BRANCH  22  24
HETATM   24  C5  UNL     1      -4.334  -6.897  15.168  1.00  0.00     0.142 C
BRANCH  24  25
HETATM   25  C6  UNL     1      -3.112  -6.000  14.906  1.00  0.00     0.004 C
HETATM   26  C7  UNL     1      -3.357  -5.321  13.599  1.00  0.00     0.008 C
HETATM   27  C8  UNL     1      -3.662  -3.830  13.783  1.00  0.00     0.033 C
HETATM   28  C9  UNL     1      -2.374  -3.289  14.411  1.00  0.00     0.183 C
HETATM   29  C10 UNL     1      -2.323  -3.775  15.816  1.00  0.00     0.033 C
HETATM   30  C11 UNL     1      -2.917  -5.103  16.071  1.00  0.00     0.008 C
BRANCH  28  31
HETATM   31  N4  UNL     1      -2.450  -1.840  14.377  1.00  0.00    -0.075 N
ATOM     32  H43 UNL     1      -3.180  -1.465  14.983  1.00  0.00     0.274 HD
ATOM     33  H42 UNL     1      -1.656  -1.388  14.831  1.00  0.00     0.274 HD
ATOM     34  H41 UNL     1      -2.561  -1.563  13.401  1.00  0.00     0.274 HD
ENDBRANCH  28  31
ENDBRANCH  24  25
ENDBRANCH  22  24
ENDBRANCH   8  22
TORSDOF 6
ENDMDL