MODEL 5
REMARK VINA RESULT: -5.587357320      1.908      3.526
REMARK  7 active torsions:
REMARK  status: ('A' for Active; 'I' for Inactive)
REMARK    1  A    between atoms: C4_6  and  C5_7
REMARK    2  A    between atoms: C6_8  and  C7_9
REMARK    3  A    between atoms: C8_12  and  O4_13
REMARK    4  A    between atoms: C8_12  and  C9_15
REMARK    5  A    between atoms: C9_15  and  C10_16
REMARK    6  A    between atoms: C16_24  and  C17_25
REMARK    7  A    between atoms: C17_25  and  O6_26
ROOT
HETATM    1  C5  UNL     1      -5.836 -11.767  16.597  1.00  0.00     0.162 C
HETATM    2  C6  UNL     1      -6.323 -11.236  15.272  1.00  0.00     0.160 C
HETATM    3  C8  UNL     1      -5.474 -12.273  14.423  1.00  0.00     0.154 C
HETATM    4  C14 UNL     1      -4.184 -11.606  14.848  1.00  0.00     0.255 C
HETATM    5  O5  UNL     1      -3.226 -11.175  14.217  1.00  0.00    -0.270 OA
HETATM    6  N1  UNL     1      -4.362 -11.583  16.301  1.00  0.00    -0.342 N
HETATM    7  C15 UNL     1      -3.329 -11.428  17.262  1.00  0.00     0.153 C
ENDROOT
BRANCH   1   8
HETATM    8  C4  UNL     1      -6.157 -10.977  17.789  1.00  0.00     0.087 A
HETATM    9  O1  UNL     1      -5.985  -9.714  18.013  1.00  0.00    -0.304 OA
HETATM   10  C3  UNL     1      -6.380  -9.371  19.227  1.00  0.00     0.128 A
HETATM   11  C2  UNL     1      -6.849 -10.492  19.850  1.00  0.00    -0.010 A
HETATM   12 BR1  UNL     1      -6.331  -7.623  20.038  1.00  0.00    -0.022 Br
HETATM   13  C1  UNL     1      -7.426 -10.540  21.240  1.00  0.00     0.052 C
HETATM   14  C16 UNL     1      -6.710 -11.508  18.951  1.00  0.00     0.006 A
BRANCH  14  15
HETATM   15  C17 UNL     1      -7.221 -12.895  19.176  1.00  0.00     0.206 C
BRANCH  15  16
HETATM   16  O6  UNL     1      -8.525 -13.109  18.843  1.00  0.00    -0.396 OA
ATOM     17  H6  UNL     1      -8.889 -12.521  18.192  1.00  0.00     0.209 HD
ENDBRANCH  15  16
ENDBRANCH  14  15
ENDBRANCH   1   8
BRANCH   2  18
HETATM   18  C7  UNL     1      -5.916  -9.934  14.945  1.00  0.00     0.183 C
HETATM   19  O2  UNL     1      -6.770  -8.911  15.069  1.00  0.00    -0.648 OA
HETATM   20  O3  UNL     1      -4.716  -9.446  14.470  1.00  0.00    -0.648 OA
ENDBRANCH   2  18
BRANCH   3  21
HETATM   21  O4  UNL     1      -5.507 -13.468  15.081  1.00  0.00    -0.379 OA
ATOM     22  H4  UNL     1      -4.616 -13.795  15.127  1.00  0.00     0.211 HD
ENDBRANCH   3  21
BRANCH   3  23
HETATM   23  C9  UNL     1      -5.846 -12.284  13.024  1.00  0.00     0.057 C
BRANCH  23  24
HETATM   24  C10 UNL     1      -5.075 -13.069  12.034  1.00  0.00    -0.048 C
HETATM   25  C11 UNL     1      -6.072 -13.260  10.850  1.00  0.00     0.014 C
HETATM   26  C12 UNL     1      -4.760 -14.482  12.479  1.00  0.00     0.014 C
HETATM   27  C13 UNL     1      -3.872 -12.425  11.421  1.00  0.00     0.014 C
ENDBRANCH  23  24
ENDBRANCH   3  23
TORSDOF 7
ENDMDL