MODEL 4
REMARK VINA RESULT: -8.235900993      3.786      5.390
REMARK  4 active torsions:
REMARK  status: ('A' for Active; 'I' for Inactive)
REMARK    1  A    between atoms: C6_8  and  N2_9
REMARK    2  A    between atoms: N3_12  and  C9_13
REMARK    3  A    between atoms: C9_13  and  C10_14
REMARK    4  A    between atoms: C18_22  and  C19_23
ROOT
HETATM    1  N1  UNL     1      -6.281  -5.839  18.731  1.00  0.00    -0.191 NA
HETATM    2  C1  UNL     1      -6.215  -6.999  18.484  1.00  0.00     0.101 C
HETATM    3  C2  UNL     1      -6.154  -8.416  18.238  1.00  0.00     0.068 A
HETATM    4  C3  UNL     1      -6.569  -9.275  19.270  1.00  0.00    -0.016 A
HETATM    5  C4  UNL     1      -6.522 -10.632  19.068  1.00  0.00     0.080 A
HETATM    6  C5  UNL     1      -6.075 -11.151  17.870  1.00  0.00     0.160 A
HETATM    7  F1  UNL     1      -6.036 -12.478  17.659  1.00  0.00    -0.203 F
HETATM    8  C6  UNL     1      -5.656 -10.299  16.825  1.00  0.00     0.085 A
HETATM    9  C18 UNL     1      -5.699  -8.944  17.015  1.00  0.00     0.056 A
HETATM   10  C20 UNL     1      -6.960 -11.511  20.147  1.00  0.00     0.255 C
HETATM   11  O1  UNL     1      -6.916 -12.758  19.958  1.00  0.00    -0.268 OA
HETATM   12  N6  UNL     1      -7.407 -10.918  21.340  1.00  0.00    -0.356 N
ATOM     13  H6  UNL     1      -7.489 -11.506  22.169  1.00  0.00     0.162 HD
HETATM   14  C21 UNL     1      -7.757  -9.526  21.456  1.00  0.00     0.127 C
HETATM   15  C22 UNL     1      -7.028  -8.643  20.517  1.00  0.00     0.061 C
ENDROOT
BRANCH   9  16
HETATM   16  C19 UNL     1      -5.298  -8.027  15.985  1.00  0.00     0.124 C
HETATM   17  N4  UNL     1      -6.144  -7.729  15.054  1.00  0.00    -0.387 N
ATOM     18  H42 UNL     1      -7.042  -8.199  15.169  1.00  0.00     0.157 HD
ATOM     19  H41 UNL     1      -5.860  -7.077  14.322  1.00  0.00     0.157 HD
HETATM   20  N5  UNL     1      -4.061  -7.380  15.825  1.00  0.00    -0.082 NA
ENDBRANCH   9  16
BRANCH   8  21
HETATM   21  N2  UNL     1      -5.216 -10.938  15.669  1.00  0.00    -0.374 N
HETATM   22  C7  UNL     1      -3.894 -11.325  15.296  1.00  0.00     0.142 C
HETATM   23  C8  UNL     1      -3.908 -12.781  14.798  1.00  0.00     0.136 C
HETATM   24  N3  UNL     1      -4.631 -12.809  13.579  1.00  0.00    -0.409 N
HETATM   25  C16 UNL     1      -5.599 -11.792  13.390  1.00  0.00     0.136 C
HETATM   26  C17 UNL     1      -6.238 -11.357  14.684  1.00  0.00     0.142 C
BRANCH  24  27
HETATM   27  C9  UNL     1      -3.922 -13.209  12.420  1.00  0.00     0.121 C
BRANCH  27  28
HETATM   28  C10 UNL     1      -3.198 -12.094  11.708  1.00  0.00     0.003 C
HETATM   29  C11 UNL     1      -3.570 -12.209  10.233  1.00  0.00     0.006 C
HETATM   30  C12 UNL     1      -2.626 -13.197   9.563  1.00  0.00     0.000 C
HETATM   31  C13 UNL     1      -1.296 -12.493   9.377  1.00  0.00     0.000 C
HETATM   32  C14 UNL     1      -1.007 -11.637  10.591  1.00  0.00     0.000 C
HETATM   33  C15 UNL     1      -1.706 -12.211  11.829  1.00  0.00     0.006 C
ENDBRANCH  27  28
ENDBRANCH  24  27
ENDBRANCH   8  21
TORSDOF 4
ENDMDL