MODEL 2
REMARK VINA RESULT: -8.154731501      1.597      2.001
REMARK  5 active torsions:
REMARK  status: ('A' for Active; 'I' for Inactive)
REMARK    1  A    between atoms: C2_3  and  C3_4
REMARK       I    between atoms: C3_4  and  N2_6
REMARK    2  A    between atoms: N2_6  and  C4_8
REMARK    3  A    between atoms: C15_20  and  O2_21
REMARK    4  A    between atoms: C16_23  and  N3_24
REMARK    5  A    between atoms: N3_24  and  C17_26
ROOT
HETATM    1  N1  UNL     1      -0.476  -3.636  16.308  1.00  0.00    -0.197 NA
HETATM    2  C1  UNL     1      -1.419  -3.978  15.718  1.00  0.00     0.068 C
HETATM    3  C2  UNL     1      -2.616  -4.409  14.997  1.00  0.00     0.226 C
ENDROOT
BRANCH   3   4
HETATM    4  C3  UNL     1      -2.895  -5.793  15.375  1.00  0.00     0.231 C
HETATM    5  O1  UNL     1      -1.980  -6.678  15.488  1.00  0.00    -0.273 OA
HETATM    6  N2  UNL     1      -4.207  -6.266  15.647  1.00  0.00    -0.355 N
ATOM      7  H2  UNL     1      -4.983  -5.608  15.573  1.00  0.00     0.162 HD
BRANCH   6   8
HETATM    8  C4  UNL     1      -4.502  -7.635  16.025  1.00  0.00     0.089 C
HETATM    9  C5  UNL     1      -5.659  -7.648  16.949  1.00  0.00     0.030 C
HETATM   10  C6  UNL     1      -6.850  -8.427  16.434  1.00  0.00     0.041 C
HETATM   11  C7  UNL     1      -6.440  -9.723  15.858  1.00  0.00    -0.049 A
HETATM   12  C8  UNL     1      -7.123 -10.864  16.157  1.00  0.00     0.045 A
HETATM   13  C12 UNL     1      -5.344  -9.738  15.027  1.00  0.00    -0.049 A
HETATM   14  C9  UNL     1      -6.714 -12.075  15.619  1.00  0.00     0.079 A
HETATM   15  C10 UNL     1      -5.605 -12.065  14.784  1.00  0.00     0.012 A
HETATM   16  O3  UNL     1      -7.495 -13.157  16.004  1.00  0.00    -0.345 OA
HETATM   17  C11 UNL     1      -4.905 -10.904  14.475  1.00  0.00     0.020 A
HETATM   18  C14 UNL     1      -5.061 -13.296  14.161  1.00  0.00     0.240 C
HETATM   19  F1  UNL     1      -5.795 -13.813  13.152  1.00  0.00    -0.241 F
HETATM   20  C15 UNL     1      -4.704 -14.277  15.266  1.00  0.00     0.204 C
HETATM   21  C16 UNL     1      -5.796 -14.917  15.981  1.00  0.00     0.039 C
HETATM   22  C23 UNL     1      -7.214 -14.490  15.617  1.00  0.00     0.230 C
HETATM   23  C13 UNL     1      -4.680  -8.460  14.771  1.00  0.00     0.064 C
BRANCH  20  24
HETATM   24  O2  UNL     1      -3.843 -13.522  16.107  1.00  0.00    -0.387 OA
ATOM     25  H2  UNL     1      -3.057 -14.054  16.149  1.00  0.00     0.210 HD
ENDBRANCH  20  24
BRANCH  21  26
HETATM   26  N3  UNL     1      -5.825 -16.304  16.157  1.00  0.00    -0.388 N
ATOM     27  H3  UNL     1      -5.885 -16.874  15.312  1.00  0.00     0.159 HD
BRANCH  26  28
HETATM   28  C17 UNL     1      -5.781 -16.982  17.369  1.00  0.00     0.081 C
HETATM   29  C18 UNL     1      -6.798 -18.031  17.614  1.00  0.00     0.025 C
HETATM   30  C19 UNL     1      -8.126 -17.328  17.891  1.00  0.00     0.002 C
HETATM   31  C20 UNL     1      -8.030 -16.758  19.286  1.00  0.00     0.000 C
HETATM   32  C21 UNL     1      -6.626 -16.423  19.666  1.00  0.00     0.002 C
HETATM   33  C22 UNL     1      -5.757 -15.980  18.538  1.00  0.00     0.025 C
ENDBRANCH  26  28
ENDBRANCH  21  26
ENDBRANCH   6   8
ENDBRANCH   3   4
TORSDOF 5
ENDMDL