MODEL 2
REMARK VINA RESULT: -7.834687061      1.603      1.852
REMARK  6 active torsions:
REMARK  status: ('A' for Active; 'I' for Inactive)
REMARK    1  A    between atoms: N1_1  and  C1_4
REMARK    2  A    between atoms: C3_10  and  N4_11
REMARK    3  A    between atoms: N4_11  and  S1_13
REMARK    4  A    between atoms: S1_13  and  C4_16
REMARK    5  A    between atoms: C7_19  and  O3_20
REMARK    6  A    between atoms: O3_20  and  C8_21
ROOT
HETATM    1  S1  UNL     1      -4.968 -12.999  13.417  1.00  0.00     0.276 S
HETATM    2  O1  UNL     1      -6.242 -12.972  12.612  1.00  0.00    -0.200 OA
HETATM    3  O2  UNL     1      -4.798 -14.406  13.910  1.00  0.00    -0.200 OA
ENDROOT
BRANCH   1   4
HETATM    4  N4  UNL     1      -3.659 -12.476  12.466  1.00  0.00    -0.112 N
ATOM      5  H4  UNL     1      -2.730 -12.777  12.762  1.00  0.00     0.197 HD
BRANCH   4   6
HETATM    6  C3  UNL     1      -3.718 -11.751  11.427  1.00  0.00     0.707 A
HETATM    7  N3  UNL     1      -4.412 -12.243  10.366  1.00  0.00    -0.186 N
HETATM    8  C2  UNL     1      -4.529 -11.545   9.219  1.00  0.00     0.215 A
ATOM      9  H3  UNL     1      -4.853 -13.159  10.440  1.00  0.00     0.185 HD
HETATM   10  N2  UNL     1      -3.947 -10.335   9.119  1.00  0.00    -0.187 N
HETATM   11  C1  UNL     1      -3.248  -9.816  10.159  1.00  0.00     0.691 A
ATOM     12  H2  UNL     1      -4.033  -9.803   8.253  1.00  0.00     0.185 HD
HETATM   13  N5  UNL     1      -3.163 -10.550  11.273  1.00  0.00    -0.022 N
ATOM     14  H5  UNL     1      -2.638 -10.164  12.057  1.00  0.00     0.203 HD
BRANCH  11  15
HETATM   15  N1  UNL     1      -2.709  -8.653  10.013  1.00  0.00    -0.234 N
ATOM     16  H12 UNL     1      -3.109  -7.902   9.451  1.00  0.00     0.174 HD
ATOM     17  H11 UNL     1      -1.825  -8.467  10.488  1.00  0.00     0.174 HD
ENDBRANCH  11  15
ENDBRANCH   4   6
ENDBRANCH   1   4
BRANCH   1  18
HETATM   18  C4  UNL     1      -5.133 -11.885  14.770  1.00  0.00     0.080 A
HETATM   19  C5  UNL     1      -6.070 -10.893  14.806  1.00  0.00     0.028 A
HETATM   20  C6  UNL     1      -6.146 -10.052  15.896  1.00  0.00     0.039 A
HETATM   21  C7  UNL     1      -5.307 -10.156  16.989  1.00  0.00     0.076 A
HETATM   22  C14 UNL     1      -4.354 -11.170  16.945  1.00  0.00     0.039 A
HETATM   23  C15 UNL     1      -4.284 -12.007  15.850  1.00  0.00     0.028 A
BRANCH  21  24
HETATM   24  O3  UNL     1      -5.416  -9.295  18.061  1.00  0.00    -0.309 OA
BRANCH  24  25
HETATM   25  C8  UNL     1      -6.216  -9.498  19.147  1.00  0.00     0.093 A
HETATM   26  C9  UNL     1      -6.704 -10.751  19.419  1.00  0.00     0.039 A
HETATM   27  C10 UNL     1      -7.527 -10.979  20.529  1.00  0.00     0.003 A
HETATM   28  C11 UNL     1      -7.847  -9.927  21.357  1.00  0.00     0.002 A
HETATM   29  C12 UNL     1      -7.362  -8.647  21.096  1.00  0.00     0.022 A
HETATM   30  C13 UNL     1      -6.553  -8.467  19.989  1.00  0.00     0.044 A
HETATM   31 BR1  UNL     1      -5.882  -6.736  19.616  1.00  0.00    -0.048 Br
ENDBRANCH  24  25
ENDBRANCH  21  24
ENDBRANCH   1  18
TORSDOF 6
ENDMDL