MODEL 2
REMARK VINA RESULT: -7.455527238      1.483      2.055
REMARK  5 active torsions:
REMARK  status: ('A' for Active; 'I' for Inactive)
REMARK    1  A    between atoms: C2_2  and  C11_24
REMARK    2  A    between atoms: N1_3  and  N2_5
REMARK       I    between atoms: C3_7  and  N4_9
REMARK    3  A    between atoms: N4_9  and  N5_11
REMARK       I    between atoms: N5_11  and  C4_13
REMARK    4  A    between atoms: C4_13  and  C5_15
REMARK    5  A    between atoms: C8_18  and  N6_19
ROOT
HETATM    1  N2  UNL     1      -5.993 -14.593  16.939  1.00  0.00    -0.272 N
ATOM      2  H2  UNL     1      -6.490 -15.339  17.425  1.00  0.00     0.189 HD
HETATM    3  C3  UNL     1      -5.361 -14.897  15.863  1.00  0.00     0.222 C
HETATM    4  N3  UNL     1      -4.661 -13.894  15.158  1.00  0.00    -0.061 NA
HETATM    5  N4  UNL     1      -5.361 -16.217  15.402  1.00  0.00    -0.270 N
ATOM      6  H4  UNL     1      -4.508 -16.774  15.459  1.00  0.00     0.190 HD
ENDROOT
BRANCH   1   7
HETATM    7  N1  UNL     1      -6.043 -13.327  17.481  1.00  0.00    -0.302 N
HETATM    8  C2  UNL     1      -6.753 -13.093  18.520  1.00  0.00     0.032 C
HETATM    9  C1  UNL     1      -7.516 -14.212  19.125  1.00  0.00     0.070 C
ATOM     10  H1  UNL     1      -5.510 -12.572  17.050  1.00  0.00     0.186 HD
BRANCH   8  11
HETATM   11  C11 UNL     1      -6.807 -11.737  19.105  1.00  0.00    -0.013 A
HETATM   12  C12 UNL     1      -6.203 -10.652  18.518  1.00  0.00     0.015 A
HETATM   13  C13 UNL     1      -6.284  -9.385  19.112  1.00  0.00     0.020 A
HETATM   14  C14 UNL     1      -6.967  -9.191  20.293  1.00  0.00     0.011 A
HETATM   15 BR1  UNL     1      -7.071  -7.456  21.097  1.00  0.00    -0.051 Br
HETATM   16  C15 UNL     1      -7.572 -10.285  20.879  1.00  0.00     0.020 A
HETATM   17  C16 UNL     1      -7.486 -11.530  20.285  1.00  0.00     0.015 A
ENDBRANCH   8  11
ENDBRANCH   1   7
BRANCH   5  18
HETATM   18  N5  UNL     1      -6.516 -16.775  14.866  1.00  0.00    -0.263 N
HETATM   19  C4  UNL     1      -7.189 -17.906  15.363  1.00  0.00     0.270 C
HETATM   20  O1  UNL     1      -6.739 -18.491  16.374  1.00  0.00    -0.266 OA
ATOM     21  H5  UNL     1      -6.911 -16.324  14.040  1.00  0.00     0.190 HD
BRANCH  19  22
HETATM   22  C5  UNL     1      -8.396 -18.384  14.703  1.00  0.00     0.033 A
HETATM   23  C6  UNL     1      -9.631 -17.895  15.042  1.00  0.00     0.019 A
HETATM   24  C7  UNL     1     -10.788 -18.337  14.413  1.00  0.00     0.037 A
HETATM   25  C8  UNL     1     -10.683 -19.292  13.424  1.00  0.00     0.102 A
HETATM   26  C9  UNL     1      -9.433 -19.774  13.095  1.00  0.00     0.037 A
HETATM   27  C10 UNL     1      -8.284 -19.350  13.703  1.00  0.00     0.019 A
BRANCH  25  28
HETATM   28  N6  UNL     1     -11.856 -19.756  12.768  1.00  0.00    -0.116 N
HETATM   29  O2  UNL     1     -12.808 -20.176  13.424  1.00  0.00    -0.532 OA
HETATM   30  O3  UNL     1     -11.906 -19.728  11.386  1.00  0.00    -0.532 OA
ENDBRANCH  25  28
ENDBRANCH  19  22
ENDBRANCH   5  18
TORSDOF 5
ENDMDL