MODEL 3
REMARK VINA RESULT: -8.899664678      2.698      7.402
REMARK  7 active torsions:
REMARK  status: ('A' for Active; 'I' for Inactive)
REMARK    1  A    between atoms: C5_6  and  N2_7
REMARK    2  A    between atoms: N2_7  and  C6_9
REMARK    3  A    between atoms: C7_12  and  N4_13
REMARK    4  A    between atoms: N4_13  and  C8_15
REMARK    5  A    between atoms: C8_15  and  C9_16
REMARK    6  A    between atoms: C14_21  and  C15_22
REMARK    7  A    between atoms: C15_22  and  O1_23
ROOT
HETATM    1  N1  UNL     1      -7.259  -6.857  21.899  1.00  0.00    -0.191 NA
HETATM    2  C1  UNL     1      -6.915  -7.556  21.060  1.00  0.00     0.101 C
HETATM    3  C2  UNL     1      -6.511  -8.430  20.026  1.00  0.00     0.060 A
HETATM    4  C3  UNL     1      -6.499  -9.811  20.261  1.00  0.00     0.028 A
HETATM    5  C4  UNL     1      -6.106 -10.671  19.258  1.00  0.00     0.050 A
HETATM    6  C5  UNL     1      -5.721 -10.215  18.021  1.00  0.00     0.106 A
HETATM    7  N6  UNL     1      -5.742  -8.889  17.823  1.00  0.00    -0.351 N
ATOM      8  H6  UNL     1      -5.459  -8.531  16.911  1.00  0.00     0.166 HD
HETATM    9  C18 UNL     1      -6.120  -8.001  18.775  1.00  0.00     0.112 A
ENDROOT
BRANCH   6  10
HETATM   10  N2  UNL     1      -5.363 -11.064  17.121  1.00  0.00    -0.327 N
ATOM     11  H2  UNL     1      -5.448 -12.057  17.337  1.00  0.00     0.169 HD
BRANCH  10  12
HETATM   12  C6  UNL     1      -4.863 -10.704  15.860  1.00  0.00     0.141 A
HETATM   13  N3  UNL     1      -4.422  -9.472  15.546  1.00  0.00    -0.175 N
HETATM   14  C7  UNL     1      -3.946  -9.143  14.331  1.00  0.00     0.679 A
ATOM     15  H3  UNL     1      -4.451  -8.749  16.266  1.00  0.00     0.186 HD
HETATM   16  N5  UNL     1      -3.920 -10.123  13.400  1.00  0.00    -0.201 N
HETATM   17  C16 UNL     1      -4.340 -11.367  13.641  1.00  0.00     0.129 A
ATOM     18  H5  UNL     1      -3.562  -9.901  12.471  1.00  0.00     0.183 HD
HETATM   19  C17 UNL     1      -4.830 -11.707  14.886  1.00  0.00     0.071 A
HETATM   20 BR1  UNL     1      -5.445 -13.462  15.298  1.00  0.00    -0.046 Br
BRANCH  14  21
HETATM   21  N4  UNL     1      -3.530  -7.938  14.073  1.00  0.00    -0.222 N
ATOM     22  H4  UNL     1      -3.066  -7.736  13.188  1.00  0.00     0.178 HD
BRANCH  21  23
HETATM   23  C8  UNL     1      -3.726  -6.893  15.038  1.00  0.00     0.177 C
BRANCH  23  24
HETATM   24  C9  UNL     1      -3.416  -5.549  14.497  1.00  0.00    -0.032 A
HETATM   25  C10 UNL     1      -3.901  -5.107  13.279  1.00  0.00     0.009 A
HETATM   26  C11 UNL     1      -3.580  -3.846  12.824  1.00  0.00     0.001 A
HETATM   27  C12 UNL     1      -2.778  -2.996  13.555  1.00  0.00     0.001 A
HETATM   28  C13 UNL     1      -2.303  -3.465  14.777  1.00  0.00     0.010 A
HETATM   29  C14 UNL     1      -2.618  -4.728  15.246  1.00  0.00    -0.027 A
BRANCH  29  30
HETATM   30  C15 UNL     1      -2.066  -5.167  16.578  1.00  0.00     0.203 C
BRANCH  30  31
HETATM   31  O1  UNL     1      -0.752  -5.555  16.473  1.00  0.00    -0.396 OA
ATOM     32  H1  UNL     1      -0.171  -4.930  16.889  1.00  0.00     0.209 HD
ENDBRANCH  30  31
ENDBRANCH  29  30
ENDBRANCH  23  24
ENDBRANCH  21  23
ENDBRANCH  14  21
ENDBRANCH  10  12
ENDBRANCH   6  10
TORSDOF 7
ENDMDL