MODEL 3
REMARK VINA RESULT: -7.632668662      1.084      2.254
REMARK  7 active torsions:
REMARK  status: ('A' for Active; 'I' for Inactive)
REMARK    1  A    between atoms: C2_2  and  O1_3
REMARK    2  A    between atoms: C4_6  and  O2_7
REMARK    3  A    between atoms: C5_9  and  N1_10
REMARK    4  A    between atoms: N2_13  and  C8_14
REMARK    5  A    between atoms: C11_17  and  C12_18
REMARK    6  A    between atoms: C13_19  and  C14_20
REMARK    7  A    between atoms: C24_31  and  O3_32
ROOT
HETATM    1  N1  UNL     1      -6.592 -15.340  17.679  1.00  0.00     0.101 N
HETATM    2  C6  UNL     1      -6.446 -14.846  16.330  1.00  0.00     0.293 C
HETATM    3  C7  UNL     1      -5.322 -13.793  16.370  1.00  0.00     0.153 C
HETATM    4  N2  UNL     1      -5.918 -12.651  17.008  1.00  0.00    -0.378 N
HETATM    5  C22 UNL     1      -6.864 -12.909  18.061  1.00  0.00     0.153 C
HETATM    6  C23 UNL     1      -6.693 -14.307  18.633  1.00  0.00     0.293 C
ENDROOT
BRANCH   4   7
HETATM    7  C8  UNL     1      -5.611 -11.337  16.648  1.00  0.00     0.030 A
HETATM    8  C9  UNL     1      -5.165 -11.037  15.381  1.00  0.00     0.030 A
HETATM    9  C10 UNL     1      -4.865  -9.722  15.031  1.00  0.00     0.013 A
HETATM   10  C11 UNL     1      -5.003  -8.700  15.930  1.00  0.00    -0.036 A
HETATM   11  C20 UNL     1      -5.446  -8.992  17.192  1.00  0.00     0.013 A
HETATM   12  C21 UNL     1      -5.753 -10.314  17.557  1.00  0.00     0.030 A
BRANCH  10  13
HETATM   13  C12 UNL     1      -4.688  -7.339  15.567  1.00  0.00     0.012 C
HETATM   14  C13 UNL     1      -3.594  -6.947  14.979  1.00  0.00     0.012 C
BRANCH  14  15
HETATM   15  C14 UNL     1      -3.305  -5.563  14.626  1.00  0.00    -0.036 A
HETATM   16  C15 UNL     1      -2.640  -4.725  15.516  1.00  0.00     0.014 A
HETATM   17  C16 UNL     1      -2.334  -3.416  15.252  1.00  0.00     0.043 A
HETATM   18  C17 UNL     1      -2.690  -2.864  14.046  1.00  0.00     0.116 A
HETATM   19  F1  UNL     1      -2.392  -1.568  13.774  1.00  0.00    -0.206 F
HETATM   20  C18 UNL     1      -3.351  -3.667  13.142  1.00  0.00     0.043 A
HETATM   21  C19 UNL     1      -3.658  -4.999  13.420  1.00  0.00     0.014 A
ENDBRANCH  14  15
ENDBRANCH  10  13
ENDBRANCH   4   7
BRANCH   1  22
HETATM   22  C5  UNL     1      -7.667 -16.294  17.676  1.00  0.00     0.283 C
HETATM   23  C4  UNL     1      -8.055 -16.808  19.032  1.00  0.00     0.157 C
HETATM   24  C3  UNL     1      -8.532 -18.244  18.794  1.00  0.00     0.074 C
HETATM   25  C2  UNL     1      -8.184 -18.584  17.384  1.00  0.00     0.084 C
HETATM   26  C1  UNL     1      -9.323 -18.460  16.413  1.00  0.00     0.049 C
HETATM   27  C24 UNL     1      -7.145 -17.548  17.008  1.00  0.00     0.188 C
BRANCH  23  28
HETATM   28  O2  UNL     1      -9.154 -16.137  19.585  1.00  0.00    -0.393 OA
ATOM     29  H2  UNL     1      -8.879 -15.874  20.456  1.00  0.00     0.210 HD
ENDBRANCH  23  28
BRANCH  25  30
HETATM   30  O1  UNL     1      -7.595 -19.836  17.249  1.00  0.00    -0.387 OA
ATOM     31  H1  UNL     1      -6.995 -19.983  17.971  1.00  0.00     0.210 HD
ENDBRANCH  25  30
BRANCH  27  32
HETATM   32  O3  UNL     1      -5.943 -17.883  17.653  1.00  0.00    -0.390 OA
ATOM     33  H3  UNL     1      -5.224 -17.585  17.108  1.00  0.00     0.210 HD
ENDBRANCH  27  32
ENDBRANCH   1  22
TORSDOF 7
ENDMDL