MODEL 5
REMARK VINA RESULT: -6.705416152      1.362      1.905
REMARK  5 active torsions:
REMARK  status: ('A' for Active; 'I' for Inactive)
REMARK    1  A    between atoms: N1_2  and  C2_5
REMARK    2  A    between atoms: C2_5  and  C3_6
REMARK    3  A    between atoms: C3_6  and  O1_7
REMARK    4  A    between atoms: O1_7  and  C4_8
REMARK    5  A    between atoms: C4_8  and  C5_10
ROOT
HETATM    1  C5  UNL     1      17.343  -7.359  -0.361  1.00  0.00     0.091 C
HETATM    2  C6  UNL     1      15.992  -6.834  -0.725  1.00  0.00     0.024 C
HETATM    3  C7  UNL     1      16.089  -6.304  -2.125  1.00  0.00     0.016 C
HETATM    4  C8  UNL     1      15.738  -4.849  -2.213  1.00  0.00    -0.019 C
HETATM    5  C9  UNL     1      16.174  -3.897  -3.017  1.00  0.00    -0.084 C
HETATM    6  C10 UNL     1      15.524  -2.595  -2.723  1.00  0.00     0.043 C
HETATM    7  C11 UNL     1      17.141  -3.753  -4.138  1.00  0.00     0.071 C
HETATM    8  C12 UNL     1      18.525  -4.087  -3.629  1.00  0.00     0.065 C
HETATM    9  C13 UNL     1      19.523  -3.012  -3.916  1.00  0.00     0.046 C
HETATM   10  C14 UNL     1      19.024  -5.432  -4.023  1.00  0.00     0.076 C
HETATM   11  C15 UNL     1      18.525  -5.757  -2.642  1.00  0.00     0.073 C
HETATM   12  O3  UNL     1      18.423  -4.472  -2.276  1.00  0.00    -0.368 OA
HETATM   13  C16 UNL     1      19.350  -6.683  -1.806  1.00  0.00     0.022 C
HETATM   14  C17 UNL     1      20.489  -7.372  -2.511  1.00  0.00     0.013 C
HETATM   15  C18 UNL     1      18.113  -7.535  -1.647  1.00  0.00     0.013 C
HETATM   16  C19 UNL     1      17.400  -6.662  -2.685  1.00  0.00     0.034 C
ENDROOT
BRANCH   1  17
HETATM   17  C4  UNL     1      17.209  -8.741   0.229  1.00  0.00     0.263 C
HETATM   18  O2  UNL     1      17.134  -9.696  -0.566  1.00  0.00    -0.265 OA
BRANCH  17  19
HETATM   19  O1  UNL     1      17.176  -8.952   1.573  1.00  0.00    -0.320 OA
BRANCH  19  20
HETATM   20  C3  UNL     1      16.541 -10.063   2.145  1.00  0.00     0.206 C
BRANCH  20  21
HETATM   21  C2  UNL     1      15.336  -9.766   2.970  1.00  0.00     0.258 C
BRANCH  21  22
HETATM   22  N1  UNL     1      14.823 -11.038   3.457  1.00  0.00    -0.077 N
HETATM   23  C1  UNL     1      13.699 -10.833   4.352  1.00  0.00     0.267 C
ATOM     24  H12 UNL     1      15.556 -11.597   3.894  1.00  0.00     0.276 HD
ATOM     25  H11 UNL     1      14.585 -11.667   2.690  1.00  0.00     0.276 HD
ENDBRANCH  21  22
ENDBRANCH  20  21
ENDBRANCH  19  20
ENDBRANCH  17  19
ENDBRANCH   1  17
TORSDOF 5
ENDMDL