MODEL 1
REMARK VINA RESULT: -8.075516586      0.000      0.000
REMARK  4 active torsions:
REMARK  status: ('A' for Active; 'I' for Inactive)
REMARK    1  A    between atoms: C2_2  and  C3_3
REMARK    2  A    between atoms: C5_5  and  C6_6
REMARK    3  A    between atoms: C6_6  and  C8_8
REMARK    4  A    between atoms: N3_14  and  S1_16
ROOT
HETATM    1  C8  UNL     1      14.293  -5.894  -1.496  1.00  0.00     0.078 A
HETATM    2  N1  UNL     1      13.175  -6.569  -1.415  1.00  0.00    -0.295 N
ATOM      3  H1  UNL     1      13.210  -7.588  -1.375  1.00  0.00     0.187 HD
HETATM    4  N2  UNL     1      12.050  -5.986  -1.385  1.00  0.00    -0.278 N
ATOM      5  H2  UNL     1      11.187  -6.526  -1.323  1.00  0.00     0.189 HD
HETATM    6  C9  UNL     1      12.014  -4.652  -1.438  1.00  0.00     0.174 A
HETATM    7  N3  UNL     1      10.982  -3.849  -1.421  1.00  0.00    -0.263 N
ATOM      8  H3  UNL     1      11.119  -2.839  -1.469  1.00  0.00     0.180 HD
HETATM    9  S2  UNL     1      13.686  -4.272  -1.533  1.00  0.00    -0.037 SA
ENDROOT
BRANCH   1  10
HETATM   10  C6  UNL     1      15.718  -6.308  -1.546  1.00  0.00     0.073 C
HETATM   11  C7  UNL     1      16.555  -5.091  -1.213  1.00  0.00     0.022 C
BRANCH  10  12
HETATM   12  C5  UNL     1      16.046  -7.373  -0.591  1.00  0.00    -0.048 A
HETATM   13  C4  UNL     1      15.408  -7.365   0.634  1.00  0.00     0.015 A
HETATM   14  C3  UNL     1      15.677  -8.347   1.579  1.00  0.00    -0.052 A
HETATM   15  C13 UNL     1      16.596  -9.321   1.251  1.00  0.00    -0.056 A
HETATM   16  C12 UNL     1      17.239  -9.333   0.021  1.00  0.00     0.008 A
HETATM   17  C14 UNL     1      16.912 -10.384   2.222  1.00  0.00     0.049 C
HETATM   18  C11 UNL     1      16.968  -8.352  -0.918  1.00  0.00     0.008 A
BRANCH  14  19
HETATM   19  C2  UNL     1      15.036  -8.401   2.898  1.00  0.00     0.034 C
HETATM   20  C1  UNL     1      13.620  -8.944   2.833  1.00  0.00     0.010 C
ENDBRANCH  14  19
ENDBRANCH  10  12
ENDBRANCH   1  10
BRANCH   7  21
HETATM   21  S1  UNL     1       9.404  -4.493  -1.320  1.00  0.00     0.228 S
HETATM   22  C10 UNL     1       8.268  -3.100  -1.364  1.00  0.00     0.186 C
HETATM   23  O1  UNL     1       9.052  -5.388  -2.470  1.00  0.00    -0.206 OA
HETATM   24  O2  UNL     1       9.142  -5.228  -0.030  1.00  0.00    -0.206 OA
ENDBRANCH   7  21
TORSDOF 4
ENDMDL