MODEL 3
REMARK VINA RESULT: -6.296604532      4.237      5.594
REMARK  5 active torsions:
REMARK  status: ('A' for Active; 'I' for Inactive)
REMARK    1  A    between atoms: O1_2  and  C2_3
REMARK    2  A    between atoms: C4_6  and  N1_7
REMARK    3  A    between atoms: N1_7  and  S2_9
REMARK    4  A    between atoms: S2_9  and  C5_12
REMARK    5  A    between atoms: C10_17  and  C11_18
ROOT
HETATM    1  S2  UNL     1      16.605  -7.987  -0.698  1.00  0.00     0.264 S
HETATM    2  O2  UNL     1      16.857  -9.499  -1.013  1.00  0.00    -0.200 OA
HETATM    3  O3  UNL     1      15.164  -7.661  -1.098  1.00  0.00    -0.200 OA
ENDROOT
BRANCH   1   4
HETATM    4  N1  UNL     1      16.830  -7.824   0.968  1.00  0.00    -0.260 N
ATOM      5  H1  UNL     1      17.554  -7.225   1.365  1.00  0.00     0.181 HD
BRANCH   4   6
HETATM    6  C4  UNL     1      15.995  -8.533   1.727  1.00  0.00     0.160 A
HETATM    7  S1  UNL     1      16.301 -10.030   2.513  1.00  0.00    -0.061 SA
HETATM    8  C3  UNL     1      14.739 -10.274   3.195  1.00  0.00     0.109 A
HETATM    9  C2  UNL     1      14.076  -9.177   2.767  1.00  0.00     0.150 A
HETATM   10  N2  UNL     1      14.734  -8.314   2.029  1.00  0.00    -0.316 N
ATOM     11  H2  UNL     1      14.267  -7.472   1.691  1.00  0.00     0.170 HD
BRANCH   9  12
HETATM   12  O1  UNL     1      12.705  -8.935   3.073  1.00  0.00    -0.340 OA
HETATM   13  C1  UNL     1      11.641  -9.700   2.765  1.00  0.00     0.211 C
ENDBRANCH   9  12
ENDBRANCH   4   6
ENDBRANCH   1   4
BRANCH   1  14
HETATM   14  C5  UNL     1      17.681  -7.197  -1.800  1.00  0.00     0.080 A
HETATM   15  C6  UNL     1      17.107  -6.868  -3.031  1.00  0.00     0.026 A
HETATM   16  C7  UNL     1      17.865  -6.408  -4.020  1.00  0.00     0.009 A
HETATM   17  C8  UNL     1      19.231  -6.249  -3.847  1.00  0.00    -0.051 A
HETATM   18  C9  UNL     1      19.978  -5.726  -5.012  1.00  0.00     0.049 C
HETATM   19  C10 UNL     1      19.868  -6.546  -2.666  1.00  0.00    -0.027 A
HETATM   20  C14 UNL     1      19.037  -7.026  -1.642  1.00  0.00     0.037 A
BRANCH  19  21
HETATM   21  C11 UNL     1      21.322  -6.516  -2.595  1.00  0.00    -0.077 C
HETATM   22  C12 UNL     1      22.002  -7.832  -2.810  1.00  0.00     0.044 C
HETATM   23  C13 UNL     1      21.997  -5.512  -1.735  1.00  0.00     0.044 C
ENDBRANCH  19  21
ENDBRANCH   1  14
TORSDOF 5
ENDMDL