MODEL 2
REMARK VINA RESULT: -5.810553114      1.097      1.148
REMARK  4 active torsions:
REMARK  status: ('A' for Active; 'I' for Inactive)
REMARK    1  A    between atoms: C2_2  and  C4_4
REMARK    2  A    between atoms: C15_17  and  N2_18
REMARK    3  A    between atoms: N2_18  and  C16_20
REMARK    4  A    between atoms: C16_20  and  C17_21
REMARK       I    between atoms: C17_21  and  N3_23
ROOT
HETATM    1  C4  UNL     1      14.913  -3.587  -2.100  1.00  0.00     0.097 C
HETATM    2  C5  UNL     1      14.751  -2.407  -1.249  1.00  0.00     0.076 C
HETATM    3  N1  UNL     1      14.625  -1.446  -0.581  1.00  0.00    -0.196 NA
HETATM    4  C6  UNL     1      16.413  -3.852  -2.132  1.00  0.00     0.109 C
HETATM    5  C7  UNL     1      16.595  -5.337  -2.115  1.00  0.00     0.134 C
HETATM    6  O1  UNL     1      16.984  -5.956  -3.072  1.00  0.00    -0.297 OA
HETATM    7  C8  UNL     1      16.243  -5.916  -0.804  1.00  0.00     0.073 C
HETATM    8  C9  UNL     1      14.799  -5.598  -0.561  1.00  0.00     0.045 C
HETATM    9  C10 UNL     1      14.195  -6.939  -0.319  1.00  0.00     0.012 C
HETATM   10  C11 UNL     1      15.338  -7.701   0.372  1.00  0.00     0.010 C
HETATM   11  C12 UNL     1      16.467  -7.356  -0.612  1.00  0.00    -0.037 C
HETATM   12  C13 UNL     1      17.750  -7.704   0.112  1.00  0.00     0.015 C
HETATM   13  C14 UNL     1      16.349  -8.211  -1.819  1.00  0.00     0.015 C
HETATM   14  C15 UNL     1      14.133  -4.763  -1.581  1.00  0.00     0.011 C
ENDROOT
BRANCH   1  15
HETATM   15  C2  UNL     1      14.565  -3.148  -3.491  1.00  0.00     0.006 C
HETATM   16  C1  UNL     1      13.433  -2.210  -3.638  1.00  0.00     0.011 C
HETATM   17  C3  UNL     1      15.803  -2.416  -4.026  1.00  0.00     0.011 C
ENDBRANCH   1  15
BRANCH  14  18
HETATM   18  N2  UNL     1      13.332  -5.410  -2.573  1.00  0.00    -0.386 N
ATOM     19  H2  UNL     1      13.738  -5.900  -3.371  1.00  0.00     0.159 HD
BRANCH  18  20
HETATM   20  C16 UNL     1      11.909  -5.321  -2.364  1.00  0.00     0.222 C
BRANCH  20  21
HETATM   21  C17 UNL     1      11.125  -6.435  -2.879  1.00  0.00     0.236 C
HETATM   22  O2  UNL     1      10.978  -7.483  -2.208  1.00  0.00    -0.272 OA
HETATM   23  N3  UNL     1      10.535  -6.289  -4.171  1.00  0.00    -0.359 N
HETATM   24  C18 UNL     1       9.819  -7.382  -4.809  1.00  0.00     0.152 C
HETATM   25  C19 UNL     1      10.583  -5.029  -4.894  1.00  0.00     0.152 C
ENDBRANCH  20  21
ENDBRANCH  18  20
ENDBRANCH  14  18
TORSDOF 4
ENDMDL