MODEL 2
REMARK VINA RESULT: -6.011883854      1.620      3.651
REMARK  7 active torsions:
REMARK  status: ('A' for Active; 'I' for Inactive)
REMARK    1  A    between atoms: N1_2  and  C2_3
REMARK    2  A    between atoms: C3_4  and  C4_5
REMARK    3  A    between atoms: C4_5  and  C5_6
REMARK    4  A    between atoms: C10_13  and  N3_14
REMARK    5  A    between atoms: N3_14  and  C11_16
REMARK    6  A    between atoms: C11_16  and  C12_17
REMARK    7  A    between atoms: N4_22  and  C16_23
ROOT
HETATM    1  C2  UNL     1      12.942  -3.886  -2.046  1.00  0.00     0.203 A
HETATM    2  C3  UNL     1      14.068  -3.049  -1.876  1.00  0.00     0.024 A
HETATM    3  C8  UNL     1      15.210  -3.501  -1.260  1.00  0.00     0.034 A
HETATM    4  C9  UNL     1      16.402  -2.665  -0.990  1.00  0.00     0.069 C
HETATM    5  N2  UNL     1      15.205  -4.775  -0.837  1.00  0.00    -0.195 N
ATOM      6  H2  UNL     1      16.036  -5.146  -0.376  1.00  0.00     0.184 HD
HETATM    7  C10 UNL     1      14.139  -5.577  -1.002  1.00  0.00     0.683 A
HETATM    8  N4  UNL     1      13.006  -5.196  -1.585  1.00  0.00    -0.146 N
ENDROOT
BRANCH   7   9
HETATM    9  N3  UNL     1      14.241  -6.785  -0.553  1.00  0.00    -0.223 N
ATOM     10  H3  UNL     1      13.388  -7.195  -0.173  1.00  0.00     0.177 HD
BRANCH   9  11
HETATM   11  C11 UNL     1      15.395  -7.610  -0.524  1.00  0.00     0.170 C
BRANCH  11  12
HETATM   12  C12 UNL     1      15.989  -7.638   0.891  1.00  0.00     0.139 C
HETATM   13  C13 UNL     1      14.889  -7.867   1.867  1.00  0.00     0.035 C
HETATM   14  C14 UNL     1      15.439  -8.978   2.731  1.00  0.00     0.029 C
HETATM   15  C15 UNL     1      16.463  -9.605   1.838  1.00  0.00     0.168 C
HETATM   16  O1  UNL     1      16.919  -8.634   0.970  1.00  0.00    -0.384 OA
ENDBRANCH  11  12
ENDBRANCH   9  11
ENDBRANCH   7   9
BRANCH   8  17
HETATM   17  C16 UNL     1      11.836  -6.006  -1.799  1.00  0.00     0.046 C
HETATM   18  C17 UNL     1      10.617  -5.530  -1.033  1.00  0.00     0.039 C
HETATM   19  C18 UNL     1      11.986  -7.463  -1.409  1.00  0.00     0.039 C
HETATM   20  C19 UNL     1      11.465  -6.076  -3.286  1.00  0.00     0.039 C
ENDBRANCH   8  17
BRANCH   1  21
HETATM   21  N1  UNL     1      11.880  -3.477  -2.458  1.00  0.00    -0.410 NA
HETATM   22  C1  UNL     1      10.846  -2.748  -2.906  1.00  0.00     0.231 C
ENDBRANCH   1  21
BRANCH   2  23
HETATM   23  C4  UNL     1      14.103  -1.691  -2.442  1.00  0.00     0.049 C
BRANCH  23  24
HETATM   24  C5  UNL     1      13.655  -0.554  -1.619  1.00  0.00    -0.018 C
HETATM   25  C6  UNL     1      13.113  -0.787  -0.260  1.00  0.00     0.010 C
HETATM   26  C7  UNL     1      12.727   0.448  -2.296  1.00  0.00     0.010 C
ENDBRANCH  23  24
ENDBRANCH   2  23
TORSDOF 7
ENDMDL