MODEL 1
REMARK VINA RESULT: -5.744173171      0.000      0.000
REMARK  4 active torsions:
REMARK  status: ('A' for Active; 'I' for Inactive)
REMARK    1  A    between atoms: C2_3  and  C3_4
REMARK    2  A    between atoms: C3_4  and  N2_5
REMARK    3  A    between atoms: C3_4  and  C14_17
REMARK    4  A    between atoms: N2_5  and  C4_7
REMARK       I    between atoms: C14_17  and  N3_19
ROOT
HETATM    1  N1  UNL     1      11.971  -7.926  -1.309  1.00  0.00    -0.197 NA
HETATM    2  C1  UNL     1      11.165  -7.256  -1.793  1.00  0.00     0.061 C
HETATM    3  C2  UNL     1      10.139  -6.386  -2.437  1.00  0.00     0.158 C
ENDROOT
BRANCH   3   4
HETATM    4  C3  UNL     1      10.417  -4.934  -2.060  1.00  0.00     0.183 C
BRANCH   4   5
HETATM    5  N2  UNL     1      11.586  -4.789  -1.293  1.00  0.00    -0.400 N
ATOM      6  H2  UNL     1      11.597  -5.173  -0.348  1.00  0.00     0.154 HD
BRANCH   5   7
HETATM    7  C4  UNL     1      12.738  -4.142  -1.766  1.00  0.00     0.027 C
HETATM    8  C5  UNL     1      12.715  -2.766  -1.022  1.00  0.00     0.035 C
HETATM    9  C6  UNL     1      13.926  -1.978  -1.350  1.00  0.00    -0.012 C
HETATM   10  C7  UNL     1      15.170  -2.717  -0.851  1.00  0.00     0.009 C
HETATM   11  C11 UNL     1      14.126  -1.739  -2.823  1.00  0.00     0.009 C
HETATM   12  C8  UNL     1      15.253  -4.016  -1.581  1.00  0.00    -0.012 C
HETATM   13  C9  UNL     1      15.287  -3.876  -3.081  1.00  0.00     0.009 C
HETATM   14  C13 UNL     1      13.983  -4.823  -1.280  1.00  0.00     0.035 C
HETATM   15  C10 UNL     1      14.099  -3.091  -3.526  1.00  0.00    -0.012 C
HETATM   16  C12 UNL     1      12.769  -3.748  -3.214  1.00  0.00     0.035 C
ENDBRANCH   5   7
ENDBRANCH   4   5
BRANCH   4  17
HETATM   17  C14 UNL     1       9.274  -4.427  -1.249  1.00  0.00     0.243 C
HETATM   18  O1  UNL     1       8.985  -5.089  -0.198  1.00  0.00    -0.271 OA
HETATM   19  N3  UNL     1       8.489  -3.302  -1.522  1.00  0.00    -0.349 N
HETATM   20  C15 UNL     1       7.344  -2.946  -0.703  1.00  0.00     0.136 C
HETATM   21  C18 UNL     1       8.814  -2.425  -2.613  1.00  0.00     0.136 C
HETATM   22  C16 UNL     1       7.468  -1.664   0.037  1.00  0.00     0.093 C
HETATM   23  S1  UNL     1       8.517  -0.455  -0.811  1.00  0.00    -0.166 SA
HETATM   24  C17 UNL     1       9.620  -1.260  -2.000  1.00  0.00     0.093 C
ENDBRANCH   4  17
ENDBRANCH   3   4
TORSDOF 4
ENDMDL