MODEL 1
REMARK VINA RESULT: -6.027301824      0.000      0.000
REMARK  5 active torsions:
REMARK  status: ('A' for Active; 'I' for Inactive)
REMARK    1  A    between atoms: O1_1  and  C1_3
REMARK    2  A    between atoms: N1_9  and  C7_10
REMARK    3  A    between atoms: C7_10  and  C8_11
REMARK    4  A    between atoms: N2_16  and  C13_17
REMARK    5  A    between atoms: C13_17  and  C14_18
ROOT
HETATM    1  C1  UNL     1      16.012  -5.085  -2.295  1.00  0.00     0.156 C
HETATM    2  C2  UNL     1      16.897  -5.256  -3.497  1.00  0.00     0.039 C
HETATM    3  C3  UNL     1      17.931  -6.339  -3.300  1.00  0.00     0.034 C
HETATM    4  C4  UNL     1      18.391  -6.459  -1.869  1.00  0.00     0.039 C
HETATM    5  C5  UNL     1      19.289  -5.296  -1.557  1.00  0.00     0.061 C
HETATM    6  C6  UNL     1      20.500  -5.261  -2.407  1.00  0.00     0.275 C
HETATM    7  N1  UNL     1      21.183  -6.510  -2.561  1.00  0.00     0.088 N
HETATM    8  C11 UNL     1      20.342  -7.637  -2.769  1.00  0.00     0.275 C
HETATM    9  C12 UNL     1      19.206  -7.737  -1.772  1.00  0.00     0.061 C
HETATM   10  N2  UNL     1      17.287  -6.596  -0.979  1.00  0.00    -0.361 N
HETATM   11  C19 UNL     1      16.015  -6.402  -1.545  1.00  0.00     0.095 C
ENDROOT
BRANCH  10  12
HETATM   12  C13 UNL     1      17.460  -7.460   0.111  1.00  0.00     0.069 C
BRANCH  12  13
HETATM   13  C14 UNL     1      16.352  -8.450   0.381  1.00  0.00     0.028 C
HETATM   14  C15 UNL     1      15.200  -7.852   1.126  1.00  0.00     0.036 C
HETATM   15  C16 UNL     1      15.123  -8.129   2.570  1.00  0.00     0.168 C
HETATM   16  O2  UNL     1      16.061  -8.984   3.087  1.00  0.00    -0.391 OA
HETATM   17  C17 UNL     1      16.091 -10.116   2.241  1.00  0.00     0.168 C
HETATM   18  C18 UNL     1      16.893  -9.704   1.043  1.00  0.00     0.036 C
ENDBRANCH  12  13
ENDBRANCH  10  12
BRANCH   1  19
HETATM   19  O1  UNL     1      14.699  -4.834  -2.734  1.00  0.00    -0.390 OA
ATOM     20  H1  UNL     1      14.575  -3.895  -2.802  1.00  0.00     0.210 HD
ENDBRANCH   1  19
BRANCH   7  21
HETATM   21  C7  UNL     1      22.049  -6.378  -3.723  1.00  0.00     0.277 C
BRANCH  21  22
HETATM   22  C8  UNL     1      21.568  -5.370  -4.701  1.00  0.00     0.014 A
HETATM   23  C9  UNL     1      21.101  -5.883  -6.070  1.00  0.00     0.007 A
HETATM   24  C10 UNL     1      22.418  -5.205  -5.943  1.00  0.00     0.007 A
ENDBRANCH  21  22
ENDBRANCH   7  21
TORSDOF 5
ENDMDL