MODEL 1
REMARK VINA RESULT: -5.877806453      0.000      0.000
REMARK  4 active torsions:
REMARK  status: ('A' for Active; 'I' for Inactive)
REMARK    1  A    between atoms: C2_2  and  C3_3
REMARK    2  A    between atoms: C3_3  and  N1_6
REMARK       I    between atoms: N1_6  and  C6_8
REMARK    3  A    between atoms: C6_8  and  C7_10
REMARK    4  A    between atoms: N2_15  and  C12_16
ROOT
HETATM    1  C7  UNL     1      20.510  -6.997  -3.253  1.00  0.00     0.177 C
HETATM    2  C8  UNL     1      19.392  -7.096  -2.215  1.00  0.00     0.047 C
HETATM    3  C9  UNL     1      18.130  -6.462  -2.723  1.00  0.00    -0.006 C
HETATM    4  C10 UNL     1      18.076  -6.425  -4.248  1.00  0.00     0.032 C
HETATM    5  C11 UNL     1      19.240  -5.781  -4.913  1.00  0.00     0.125 C
HETATM    6  N2  UNL     1      20.376  -5.782  -3.974  1.00  0.00    -0.364 N
HETATM    7  C13 UNL     1      18.006  -5.026  -2.253  1.00  0.00     0.181 C
HETATM    8  O2  UNL     1      16.909  -4.961  -1.398  1.00  0.00    -0.360 OA
HETATM    9  C14 UNL     1      15.986  -5.897  -1.772  1.00  0.00     0.264 C
HETATM   10  O3  UNL     1      15.258  -6.427  -0.719  1.00  0.00    -0.360 OA
HETATM   11  C15 UNL     1      15.321  -7.818  -0.808  1.00  0.00     0.175 C
HETATM   12  C16 UNL     1      16.823  -7.972  -1.141  1.00  0.00     0.015 C
HETATM   13  C17 UNL     1      17.535  -7.622   0.100  1.00  0.00     0.012 C
HETATM   14  C18 UNL     1      16.874  -7.048  -2.273  1.00  0.00     0.057 C
ENDROOT
BRANCH   1  15
HETATM   15  C6  UNL     1      21.829  -7.335  -2.709  1.00  0.00     0.241 C
HETATM   16  N1  UNL     1      22.715  -8.272  -3.244  1.00  0.00    -0.351 N
ATOM     17  H1  UNL     1      22.418  -8.776  -4.079  1.00  0.00     0.163 HD
HETATM   18  O1  UNL     1      22.243  -6.735  -1.640  1.00  0.00    -0.271 OA
BRANCH  16  19
HETATM   19  C3  UNL     1      24.021  -8.586  -2.708  1.00  0.00     0.025 C
HETATM   20  C4  UNL     1      24.604  -9.733  -3.540  1.00  0.00     0.038 C
HETATM   21  C5  UNL     1      24.963  -7.402  -2.906  1.00  0.00     0.038 C
BRANCH  19  22
HETATM   22  C2  UNL     1      23.964  -8.993  -1.266  1.00  0.00     0.026 C
HETATM   23  C1  UNL     1      25.140  -8.431  -0.496  1.00  0.00     0.007 C
ENDBRANCH  19  22
ENDBRANCH  16  19
ENDBRANCH   1  15
BRANCH   6  24
HETATM   24  C12 UNL     1      21.111  -4.601  -3.915  1.00  0.00     0.172 C
HETATM   25  N3  UNL     1      21.296  -3.955  -2.815  1.00  0.00    -0.395 N
ATOM     26  H32 UNL     1      20.881  -4.337  -1.965  1.00  0.00     0.156 HD
ATOM     27  H31 UNL     1      21.834  -3.091  -2.772  1.00  0.00     0.156 HD
ENDBRANCH   6  24
TORSDOF 4
ENDMDL