MODEL 4
REMARK VINA RESULT: -7.187587890      4.668      7.724
REMARK  7 active torsions:
REMARK  status: ('A' for Active; 'I' for Inactive)
REMARK    1  A    between atoms: C3_3  and  C4_4
REMARK    2  A    between atoms: C5_5  and  C6_6
REMARK    3  A    between atoms: C7_7  and  C8_8
REMARK    4  A    between atoms: C10_10  and  C11_11
REMARK       I    between atoms: C11_11  and  N1_13
REMARK    5  A    between atoms: N1_13  and  C12_14
REMARK    6  A    between atoms: C12_14  and  C13_15
REMARK    7  A    between atoms: C14_20  and  C15_21
ROOT
HETATM    1  C1  UNL     1      14.252 -11.551   4.608  1.00  0.00     0.113 C
HETATM    2  C2  UNL     1      14.596 -10.463   3.692  1.00  0.00    -0.097 C
HETATM    3  C3  UNL     1      14.878  -9.570   2.912  1.00  0.00    -0.015 C
ENDROOT
BRANCH   3   4
HETATM    4  C4  UNL     1      15.182  -8.531   1.985  1.00  0.00    -0.001 C
HETATM    5  C5  UNL     1      15.432  -7.667   1.184  1.00  0.00    -0.001 C
BRANCH   5   6
HETATM    6  C6  UNL     1      15.722  -6.664   0.212  1.00  0.00    -0.009 C
HETATM    7  C7  UNL     1      15.945  -5.798  -0.613  1.00  0.00    -0.052 C
BRANCH   7   8
HETATM    8  C8  UNL     1      16.185  -4.765  -1.570  1.00  0.00     0.025 A
HETATM    9  C9  UNL     1      15.823  -3.469  -1.249  1.00  0.00     0.039 A
HETATM   10  C10 UNL     1      16.058  -2.462  -2.157  1.00  0.00     0.048 A
HETATM   11  C17 UNL     1      16.643  -2.692  -3.382  1.00  0.00     0.019 A
HETATM   12  C18 UNL     1      17.000  -3.985  -3.695  1.00  0.00     0.009 A
HETATM   13  C19 UNL     1      16.768  -4.980  -2.799  1.00  0.00    -0.043 A
HETATM   14  C20 UNL     1      17.152  -6.371  -3.143  1.00  0.00     0.049 C
BRANCH  10  15
HETATM   15  C11 UNL     1      15.640  -1.082  -1.743  1.00  0.00     0.325 C
HETATM   16  O1  UNL     1      16.533  -0.229  -1.946  1.00  0.00    -0.251 OA
HETATM   17  N1  UNL     1      14.396  -0.971  -1.227  1.00  0.00    -0.375 NA
BRANCH  17  18
HETATM   18  C12 UNL     1      13.140  -0.855  -0.705  1.00  0.00     0.244 C
BRANCH  18  19
HETATM   19  C13 UNL     1      12.181  -1.950  -1.118  1.00  0.00     0.193 A
HETATM   20  N2  UNL     1      10.858  -1.795  -1.150  1.00  0.00    -0.276 N
HETATM   21  N3  UNL     1      10.348  -2.965  -1.558  1.00  0.00    -0.281 N
ATOM     22  H2  UNL     1      10.336  -0.952  -0.911  1.00  0.00     0.189 HD
HETATM   23  C14 UNL     1      11.380  -3.836  -1.772  1.00  0.00     0.140 A
ATOM     24  H3  UNL     1       9.357  -3.171  -1.688  1.00  0.00     0.189 HD
HETATM   25  O2  UNL     1      12.471  -3.155  -1.486  1.00  0.00    -0.276 OA
BRANCH  23  26
HETATM   26  C15 UNL     1      11.248  -5.243  -2.233  1.00  0.00     0.081 C
HETATM   27  C16 UNL     1      12.434  -6.080  -1.765  1.00  0.00     0.013 C
ENDBRANCH  23  26
ENDBRANCH  18  19
ENDBRANCH  17  18
ENDBRANCH  10  15
ENDBRANCH   7   8
ENDBRANCH   5   6
ENDBRANCH   3   4
TORSDOF 7
ENDMDL