MODEL 2
REMARK VINA RESULT: -6.572482361      1.120      1.730
REMARK  4 active torsions:
REMARK  status: ('A' for Active; 'I' for Inactive)
REMARK    1  A    between atoms: N1_7  and  C7_8
REMARK    2  A    between atoms: C7_8  and  C8_9
REMARK    3  A    between atoms: C9_10  and  C10_11
REMARK    4  A    between atoms: C10_11  and  N2_12
ROOT
HETATM    1  N2  UNL     1      11.512  -4.727  -2.331  1.00  0.00     0.117 N
HETATM    2  C11 UNL     1      11.809  -3.988  -3.542  1.00  0.00     0.441 C
HETATM    3  O1  UNL     1      10.924  -4.456  -4.511  1.00  0.00    -0.349 OA
HETATM    4  C12 UNL     1      10.471  -5.700  -4.118  1.00  0.00     0.091 C
HETATM    5  C13 UNL     1      10.578  -6.699  -5.215  1.00  0.00     0.041 C
HETATM    6  C14 UNL     1       9.333  -7.521  -5.433  1.00  0.00     0.030 C
HETATM    7  C15 UNL     1       8.191  -6.656  -5.903  1.00  0.00     0.232 C
HETATM    8  N3  UNL     1       8.543  -5.267  -5.888  1.00  0.00    -0.075 N
ATOM      9  H31 UNL     1       8.050  -4.759  -6.622  1.00  0.00     0.277 HD
ATOM     10  H32 UNL     1       9.502  -5.130  -6.206  1.00  0.00     0.277 HD
HETATM   11  C16 UNL     1       8.331  -4.644  -4.591  1.00  0.00     0.235 C
HETATM   12  C17 UNL     1       9.064  -5.529  -3.586  1.00  0.00     0.067 C
HETATM   13  C18 UNL     1      11.334  -6.069  -2.901  1.00  0.00     0.313 C
ENDROOT
BRANCH   1  14
HETATM   14  C10 UNL     1      12.679  -4.664  -1.469  1.00  0.00     0.302 C
BRANCH  14  15
HETATM   15  C9  UNL     1      13.870  -4.806  -2.319  1.00  0.00     0.005 C
HETATM   16  C8  UNL     1      15.061  -5.184  -1.970  1.00  0.00     0.015 C
BRANCH  16  17
HETATM   17  C7  UNL     1      15.415  -5.543  -0.612  1.00  0.00     0.095 C
BRANCH  17  18
HETATM   18  N1  UNL     1      15.505  -6.932  -0.324  1.00  0.00    -0.350 N
HETATM   19  C6  UNL     1      16.127  -7.775  -1.259  1.00  0.00     0.072 C
HETATM   20  C4  UNL     1      17.273  -8.603  -0.786  1.00  0.00     0.021 C
HETATM   21  C3  UNL     1      17.303  -8.658   0.730  1.00  0.00     0.019 C
HETATM   22  C5  UNL     1      18.580  -8.192  -1.385  1.00  0.00     0.015 C
HETATM   23  C2  UNL     1      15.864  -8.700   1.241  1.00  0.00     0.021 C
HETATM   24  C1  UNL     1      15.904  -9.008   2.714  1.00  0.00     0.015 C
HETATM   25  C19 UNL     1      15.191  -7.376   0.955  1.00  0.00     0.072 C
ENDBRANCH  17  18
ENDBRANCH  16  17
ENDBRANCH  14  15
ENDBRANCH   1  14
TORSDOF 4
ENDMDL