MODEL 1
REMARK VINA RESULT: -7.696061061      0.000      0.000
REMARK  9 active torsions:
REMARK  status: ('A' for Active; 'I' for Inactive)
REMARK    1  A    between atoms: C2_2  and  C3_3
REMARK    2  A    between atoms: C3_3  and  C4_4
REMARK    3  A    between atoms: C3_3  and  N2_12
REMARK    4  A    between atoms: C4_4  and  N1_5
REMARK       I    between atoms: N2_12  and  C11_14
REMARK    5  A    between atoms: C11_14  and  C12_16
REMARK    6  A    between atoms: C12_16  and  O2_17
REMARK    7  A    between atoms: O2_17  and  C13_18
REMARK    8  A    between atoms: C13_18  and  C14_20
REMARK    9  A    between atoms: C14_20  and  O4_21
ROOT
HETATM    1  N2  UNL     1      -3.135   8.788 -16.259  1.00  0.00    -0.353 N
ATOM      2  H2  UNL     1      -3.011   7.911 -15.753  1.00  0.00     0.163 HD
HETATM    3  C11 UNL     1      -2.173   9.191 -17.214  1.00  0.00     0.242 C
HETATM    4  O1  UNL     1      -2.341  10.278 -17.831  1.00  0.00    -0.271 OA
ENDROOT
BRANCH   1   5
HETATM    5  C3  UNL     1      -4.332   9.640 -15.988  1.00  0.00     0.112 C
BRANCH   5   6
HETATM    6  C2  UNL     1      -4.113  10.238 -14.666  1.00  0.00     0.022 C
HETATM    7  C1  UNL     1      -3.741  11.691 -14.660  1.00  0.00     0.007 C
ENDBRANCH   5   6
BRANCH   5   8
HETATM    8  C4  UNL     1      -5.488   8.810 -16.331  1.00  0.00     0.297 C
BRANCH   8   9
HETATM    9  N1  UNL     1      -6.110   7.908 -15.435  1.00  0.00     0.094 N
HETATM   10  C5  UNL     1      -7.574   8.038 -15.774  1.00  0.00     0.273 C
HETATM   11  C6  UNL     1      -7.809   7.886 -17.225  1.00  0.00     0.030 C
HETATM   12  C7  UNL     1      -7.310   6.585 -17.805  1.00  0.00     0.004 C
HETATM   13  C8  UNL     1      -6.015   6.148 -17.186  1.00  0.00     0.035 C
HETATM   14  C9  UNL     1      -5.885   6.492 -15.731  1.00  0.00     0.219 C
HETATM   15  C10 UNL     1      -6.927   5.700 -14.923  1.00  0.00     0.043 C
ENDBRANCH   8   9
ENDBRANCH   5   8
ENDBRANCH   1   5
BRANCH   3  16
HETATM   16  C12 UNL     1      -0.995   8.342 -17.476  1.00  0.00     0.281 C
BRANCH  16  17
HETATM   17  O2  UNL     1      -1.102   7.021 -17.063  1.00  0.00    -0.310 OA
BRANCH  17  18
HETATM   18  C13 UNL     1      -0.887   5.961 -17.895  1.00  0.00     0.294 C
HETATM   19  O3  UNL     1       0.242   5.523 -18.155  1.00  0.00    -0.262 OA
BRANCH  18  20
HETATM   20  C14 UNL     1      -2.042   5.272 -18.537  1.00  0.00     0.145 C
HETATM   21  C15 UNL     1      -2.786   6.216 -19.467  1.00  0.00     0.048 C
HETATM   22  C16 UNL     1      -3.397   5.320 -20.501  1.00  0.00     0.004 C
HETATM   23  C17 UNL     1      -2.824   3.946 -20.314  1.00  0.00     0.004 C
HETATM   24  C18 UNL     1      -1.584   4.196 -19.485  1.00  0.00     0.048 C
BRANCH  20  25
HETATM   25  O4  UNL     1      -2.935   4.747 -17.633  1.00  0.00    -0.380 OA
ATOM     26  H4  UNL     1      -3.823   4.696 -17.967  1.00  0.00     0.211 HD
ENDBRANCH  20  25
ENDBRANCH  18  20
ENDBRANCH  17  18
ENDBRANCH  16  17
ENDBRANCH   3  16
TORSDOF 9
ENDMDL