MODEL 5
REMARK VINA RESULT: -6.929277233      2.749      4.542
REMARK  8 active torsions:
REMARK  status: ('A' for Active; 'I' for Inactive)
REMARK    1  A    between atoms: C2_2  and  N1_3
REMARK    2  A    between atoms: N1_3  and  C4_5
REMARK    3  A    between atoms: C4_5  and  C5_6
REMARK    4  A    between atoms: C5_6  and  O1_7
REMARK    5  A    between atoms: O1_7  and  C6_8
REMARK    6  A    between atoms: C6_8  and  C8_10
REMARK       I    between atoms: C8_10  and  N2_12
REMARK    7  A    between atoms: N2_12  and  C9_14
REMARK    8  A    between atoms: C13_18  and  O3_20
ROOT
HETATM    1  C9  UNL     1      -4.515   8.742 -18.587  1.00  0.00     0.096 C
HETATM    2  C10 UNL     1      -3.646   7.609 -18.025  1.00  0.00     0.031 C
HETATM    3  C11 UNL     1      -2.911   8.361 -16.937  1.00  0.00    -0.001 C
HETATM    4  C12 UNL     1      -2.283   9.628 -17.459  1.00  0.00     0.043 C
HETATM    5  C13 UNL     1      -3.391  10.633 -17.702  1.00  0.00     0.064 C
HETATM    6  C14 UNL     1      -3.298  11.904 -16.984  1.00  0.00     0.047 C
HETATM    7  C15 UNL     1      -4.598   9.759 -17.453  1.00  0.00     0.014 C
HETATM    8  C16 UNL     1      -5.876  10.461 -17.341  1.00  0.00     0.021 C
HETATM    9  C17 UNL     1      -4.174   8.953 -16.267  1.00  0.00    -0.032 C
HETATM   10  C18 UNL     1      -5.089   7.893 -15.798  1.00  0.00     0.016 C
HETATM   11  C19 UNL     1      -3.731   9.731 -15.055  1.00  0.00     0.016 C
ENDROOT
BRANCH   1  12
HETATM   12  N2  UNL     1      -5.735   8.337 -19.155  1.00  0.00    -0.353 N
HETATM   13  C8  UNL     1      -6.144   8.848 -20.415  1.00  0.00     0.246 C
HETATM   14  O2  UNL     1      -5.384   9.666 -21.000  1.00  0.00    -0.271 OA
ATOM     15  H2  UNL     1      -6.330   7.672 -18.660  1.00  0.00     0.163 HD
BRANCH  13  16
HETATM   16  C6  UNL     1      -7.450   8.434 -21.055  1.00  0.00     0.209 C
HETATM   17  C7  UNL     1      -8.500   9.502 -20.800  1.00  0.00     0.049 C
BRANCH  16  18
HETATM   18  O1  UNL     1      -7.209   8.222 -22.375  1.00  0.00    -0.375 OA
BRANCH  18  19
HETATM   19  C5  UNL     1      -6.973   6.894 -22.754  1.00  0.00     0.199 C
BRANCH  19  20
HETATM   20  C4  UNL     1      -5.660   6.803 -23.394  1.00  0.00     0.298 C
BRANCH  20  21
HETATM   21  N1  UNL     1      -4.620   6.021 -22.837  1.00  0.00     0.085 N
HETATM   22  C3  UNL     1      -3.508   6.020 -23.836  1.00  0.00     0.310 C
BRANCH  21  23
HETATM   23  C2  UNL     1      -4.042   6.380 -21.604  1.00  0.00     0.267 C
HETATM   24  C1  UNL     1      -3.226   5.291 -21.008  1.00  0.00     0.037 C
ENDBRANCH  21  23
ENDBRANCH  20  21
ENDBRANCH  19  20
ENDBRANCH  18  19
ENDBRANCH  16  18
ENDBRANCH  13  16
ENDBRANCH   1  12
BRANCH   5  25
HETATM   25  O3  UNL     1      -3.286  10.970 -19.081  1.00  0.00    -0.389 OA
ATOM     26  H3  UNL     1      -4.150  11.284 -19.324  1.00  0.00     0.210 HD
ENDBRANCH   5  25
TORSDOF 8
ENDMDL