MODEL 1
REMARK VINA RESULT: -8.113574780      0.000      0.000
REMARK  8 active torsions:
REMARK  status: ('A' for Active; 'I' for Inactive)
REMARK    1  A    between atoms: C2_2  and  C3_3
REMARK    2  A    between atoms: C3_3  and  C5_5
REMARK       I    between atoms: C5_5  and  N1_7
REMARK    3  A    between atoms: N1_7  and  C6_9
REMARK    4  A    between atoms: C6_9  and  C7_10
REMARK    5  A    between atoms: C6_9  and  C15_24
REMARK       I    between atoms: C7_10  and  N2_12
REMARK    6  A    between atoms: N2_12  and  C8_14
REMARK    7  A    between atoms: C8_14  and  C9_15
REMARK    8  A    between atoms: C11_17  and  C12_18
ROOT
HETATM    1  C7  UNL     1      -5.178   9.913 -16.817  1.00  0.00     0.241 C
HETATM    2  O2  UNL     1      -5.439  11.099 -16.438  1.00  0.00    -0.271 OA
HETATM    3  N2  UNL     1      -5.750   9.503 -18.048  1.00  0.00    -0.354 N
ATOM      4  H2  UNL     1      -5.567   8.560 -18.391  1.00  0.00     0.162 HD
ENDROOT
BRANCH   1   5
HETATM    5  C6  UNL     1      -4.328   9.097 -15.954  1.00  0.00     0.181 C
BRANCH   5   6
HETATM    6  N1  UNL     1      -3.763   7.982 -16.708  1.00  0.00    -0.347 N
HETATM    7  C5  UNL     1      -2.466   7.994 -17.247  1.00  0.00     0.222 C
HETATM    8  O1  UNL     1      -1.709   8.990 -17.106  1.00  0.00    -0.273 OA
ATOM      9  H1  UNL     1      -4.339   7.152 -16.850  1.00  0.00     0.163 HD
BRANCH   7  10
HETATM   10  C3  UNL     1      -1.962   6.821 -18.000  1.00  0.00     0.073 C
HETATM   11  C4  UNL     1      -2.938   5.688 -17.861  1.00  0.00     0.020 C
BRANCH  10  12
HETATM   12  C2  UNL     1      -0.592   6.396 -17.468  1.00  0.00     0.009 C
HETATM   13  C1  UNL     1       0.376   6.484 -18.620  1.00  0.00     0.006 C
ENDBRANCH  10  12
ENDBRANCH   7  10
ENDBRANCH   5   6
BRANCH   5  14
HETATM   14  C15 UNL     1      -4.926   8.643 -14.668  1.00  0.00     0.021 A
HETATM   15  C16 UNL     1      -4.037   7.637 -13.929  1.00  0.00     0.012 A
HETATM   16  C17 UNL     1      -5.493   7.330 -14.389  1.00  0.00    -0.012 A
HETATM   17  C18 UNL     1      -6.510   7.222 -13.248  1.00  0.00     0.010 C
ENDBRANCH   5  14
ENDBRANCH   1   5
BRANCH   3  18
HETATM   18  C8  UNL     1      -6.572  10.371 -18.819  1.00  0.00     0.181 C
BRANCH  18  19
HETATM   19  C9  UNL     1      -7.167   9.670 -19.984  1.00  0.00     0.052 A
HETATM   20  C10 UNL     1      -6.643   8.522 -20.589  1.00  0.00     0.064 A
HETATM   21  C11 UNL     1      -7.475   8.166 -21.631  1.00  0.00     0.082 A
HETATM   22  O3  UNL     1      -8.428   9.046 -21.641  1.00  0.00    -0.242 OA
HETATM   23  N3  UNL     1      -8.272   9.924 -20.699  1.00  0.00    -0.264 N
ATOM     24  H3  UNL     1      -8.905  10.704 -20.526  1.00  0.00     0.194 HD
BRANCH  21  25
HETATM   25  C12 UNL     1      -7.298   7.009 -22.545  1.00  0.00     0.045 A
HETATM   26  C13 UNL     1      -6.206   7.156 -23.581  1.00  0.00     0.012 A
HETATM   27  C14 UNL     1      -7.659   7.106 -23.983  1.00  0.00     0.012 A
ENDBRANCH  21  25
ENDBRANCH  18  19
ENDBRANCH   3  18
TORSDOF 8
ENDMDL