MODEL 3
REMARK VINA RESULT: -7.178570947      3.737      5.657
REMARK  9 active torsions:
REMARK  status: ('A' for Active; 'I' for Inactive)
REMARK    1  A    between atoms: C2_2  and  C3_3
REMARK    2  A    between atoms: C3_3  and  C4_4
REMARK    3  A    between atoms: C3_3  and  C6_6
REMARK    4  A    between atoms: C9_11  and  C10_12
REMARK    5  A    between atoms: C10_12  and  N2_13
REMARK    6  A    between atoms: N3_16  and  C13_17
REMARK    7  A    between atoms: C13_17  and  C14_18
REMARK    8  A    between atoms: C14_18  and  O1_19
REMARK    9  A    between atoms: C17_23  and  C18_24
ROOT
HETATM    1  C18 UNL     1      -4.698   6.434 -18.920  1.00  0.00     0.165 C
HETATM    2  C19 UNL     1      -4.303   7.771 -19.528  1.00  0.00     0.063 C
HETATM    3  N4  UNL     1      -3.950   8.792 -19.996  1.00  0.00    -0.197 NA
ENDROOT
BRANCH   1   4
HETATM    4  C17 UNL     1      -4.039   6.439 -17.613  1.00  0.00    -0.008 A
HETATM    5  C6  UNL     1      -2.672   6.200 -17.387  1.00  0.00     0.042 A
HETATM    6  N1  UNL     1      -2.553   6.565 -16.067  1.00  0.00    -0.359 N
HETATM    7  C7  UNL     1      -3.645   6.970 -15.497  1.00  0.00     0.014 A
ATOM      8  H1  UNL     1      -1.664   6.519 -15.568  1.00  0.00     0.166 HD
HETATM    9  C8  UNL     1      -3.904   7.447 -14.096  1.00  0.00     0.068 C
HETATM   10  C9  UNL     1      -4.644   6.896 -16.460  1.00  0.00     0.002 A
BRANCH   5  11
HETATM   11  C3  UNL     1      -1.661   5.469 -18.145  1.00  0.00    -0.053 C
BRANCH  11  12
HETATM   12  C2  UNL     1      -2.050   4.193 -18.807  1.00  0.00     0.032 C
HETATM   13  C1  UNL     1      -2.224   4.343 -20.337  1.00  0.00     0.010 C
ENDBRANCH  11  12
BRANCH  11  14
HETATM   14  C4  UNL     1      -0.221   5.806 -18.025  1.00  0.00     0.032 C
HETATM   15  C5  UNL     1       0.180   7.230 -18.218  1.00  0.00     0.010 C
ENDBRANCH  11  14
ENDBRANCH   5  11
BRANCH  10  16
HETATM   16  C10 UNL     1      -6.080   7.041 -16.237  1.00  0.00     0.313 C
BRANCH  16  17
HETATM   17  N2  UNL     1      -6.612   8.350 -16.124  1.00  0.00     0.096 N
HETATM   18  C11 UNL     1      -5.777   9.402 -16.651  1.00  0.00     0.303 C
HETATM   19  C12 UNL     1      -6.525  10.240 -17.702  1.00  0.00     0.302 C
HETATM   20  N3  UNL     1      -6.996   9.392 -18.738  1.00  0.00     0.093 N
HETATM   21  C15 UNL     1      -7.806   8.282 -18.242  1.00  0.00     0.302 C
HETATM   22  C16 UNL     1      -7.959   8.392 -16.735  1.00  0.00     0.303 C
BRANCH  20  23
HETATM   23  C13 UNL     1      -7.595  10.012 -19.873  1.00  0.00     0.298 C
BRANCH  23  24
HETATM   24  C14 UNL     1      -8.387   9.105 -20.773  1.00  0.00     0.194 C
BRANCH  24  25
HETATM   25  O1  UNL     1      -9.137   9.922 -21.645  1.00  0.00    -0.399 OA
ATOM     26  H1  UNL     1     -10.051   9.686 -21.542  1.00  0.00     0.209 HD
ENDBRANCH  24  25
ENDBRANCH  23  24
ENDBRANCH  20  23
ENDBRANCH  16  17
ENDBRANCH  10  16
ENDBRANCH   1   4
TORSDOF 9
ENDMDL