MODEL 4
REMARK VINA RESULT: -6.736031542      3.715      7.445
REMARK  10 active torsions:
REMARK  status: ('A' for Active; 'I' for Inactive)
REMARK    1  A    between atoms: C1_2  and  C2_3
REMARK       I    between atoms: C1_2  and  N1_17
REMARK    2  A    between atoms: C3_4  and  C4_5
REMARK    3  A    between atoms: C9_10  and  C10_11
REMARK    4  A    between atoms: C10_11  and  S1_12
REMARK    5  A    between atoms: S1_12  and  C11_13
REMARK    6  A    between atoms: C11_13  and  C12_14
REMARK    7  A    between atoms: C12_14  and  O2_15
REMARK    8  A    between atoms: N1_17  and  C13_19
REMARK    9  A    between atoms: C13_19  and  C14_20
REMARK   10  A    between atoms: C14_20  and  N2_21
ROOT
HETATM    1  C2  UNL     1      -4.359   9.363 -19.520  1.00  0.00     0.070 C
HETATM    2  C3  UNL     1      -4.367   8.121 -19.158  1.00  0.00    -0.016 C
ENDROOT
BRANCH   2   3
HETATM    3  C4  UNL     1      -4.760   6.909 -19.923  1.00  0.00     0.013 C
HETATM    4  C5  UNL     1      -4.370   5.670 -19.125  1.00  0.00     0.009 C
HETATM    5  C6  UNL     1      -2.931   5.290 -19.365  1.00  0.00     0.001 C
HETATM    6  C7  UNL     1      -2.676   5.033 -20.835  1.00  0.00     0.000 C
HETATM    7  C8  UNL     1      -3.129   6.127 -21.712  1.00  0.00     0.006 C
HETATM    8  C9  UNL     1      -4.381   6.861 -21.332  1.00  0.00     0.002 C
BRANCH   8   9
HETATM    9  C10 UNL     1      -5.501   6.616 -22.306  1.00  0.00     0.079 C
BRANCH   9  10
HETATM   10  S1  UNL     1      -6.879   7.685 -22.369  1.00  0.00    -0.167 SA
BRANCH  10  11
HETATM   11  C11 UNL     1      -7.815   7.948 -20.894  1.00  0.00     0.099 C
BRANCH  11  12
HETATM   12  C12 UNL     1      -8.054   9.434 -20.646  1.00  0.00     0.174 C
BRANCH  12  13
HETATM   13  O2  UNL     1      -9.052   9.925 -21.459  1.00  0.00    -0.400 OA
ATOM     14  H2  UNL     1      -9.521  10.637 -21.040  1.00  0.00     0.209 HD
ENDBRANCH  12  13
ENDBRANCH  11  12
ENDBRANCH  10  11
ENDBRANCH   9  10
ENDBRANCH   8   9
ENDBRANCH   2   3
BRANCH   1  15
HETATM   15  C1  UNL     1      -3.918  10.407 -18.561  1.00  0.00     0.240 C
HETATM   16  O1  UNL     1      -2.863  11.019 -18.860  1.00  0.00    -0.269 OA
HETATM   17  N1  UNL     1      -4.664  10.675 -17.388  1.00  0.00    -0.356 N
ATOM     18  H1  UNL     1      -5.517  10.158 -17.177  1.00  0.00     0.162 HD
BRANCH  17  19
HETATM   19  C13 UNL     1      -4.176  11.707 -16.497  1.00  0.00     0.153 C
BRANCH  19  20
HETATM   20  C14 UNL     1      -3.741  11.182 -15.175  1.00  0.00     0.292 C
BRANCH  20  21
HETATM   21  N2  UNL     1      -4.182   9.849 -14.992  1.00  0.00     0.090 N
HETATM   22  C15 UNL     1      -4.544   9.473 -13.654  1.00  0.00     0.272 C
HETATM   23  C16 UNL     1      -4.970   8.031 -13.825  1.00  0.00     0.032 C
HETATM   24  C17 UNL     1      -3.939   7.516 -14.805  1.00  0.00     0.032 C
HETATM   25  C18 UNL     1      -3.326   8.793 -15.403  1.00  0.00     0.272 C
ENDBRANCH  20  21
ENDBRANCH  19  20
ENDBRANCH  17  19
ENDBRANCH   1  15
TORSDOF 10
ENDMDL