MODEL 5
REMARK VINA RESULT: -7.584590892      2.369      2.822
REMARK  8 active torsions:
REMARK  status: ('A' for Active; 'I' for Inactive)
REMARK    1  A    between atoms: C2_2  and  C4_4
REMARK    2  A    between atoms: C4_4  and  N1_5
REMARK    3  A    between atoms: C4_4  and  C13_19
REMARK       I    between atoms: N1_5  and  C5_7
REMARK    4  A    between atoms: C5_7  and  C6_9
REMARK    5  A    between atoms: C8_11  and  C9_12
REMARK    6  A    between atoms: C9_12  and  C10_13
REMARK       I    between atoms: C13_19  and  N3_21
REMARK    7  A    between atoms: N3_21  and  C14_23
REMARK    8  A    between atoms: C14_23  and  C15_24
ROOT
HETATM    1  C4  UNL     1      -3.024   9.876 -17.037  1.00  0.00     0.180 C
ENDROOT
BRANCH   1   2
HETATM    2  C2  UNL     1      -3.261  10.504 -15.699  1.00  0.00     0.009 C
HETATM    3  C1  UNL     1      -4.305   9.857 -14.872  1.00  0.00     0.012 C
HETATM    4  C3  UNL     1      -3.536  11.985 -15.923  1.00  0.00     0.012 C
ENDBRANCH   1   2
BRANCH   1   5
HETATM    5  N1  UNL     1      -4.219   9.680 -17.812  1.00  0.00    -0.342 N
HETATM    6  C5  UNL     1      -4.530  10.264 -19.034  1.00  0.00     0.278 C
HETATM    7  O1  UNL     1      -3.741  11.054 -19.581  1.00  0.00    -0.265 OA
ATOM      8  H1  UNL     1      -4.914   9.043 -17.424  1.00  0.00     0.163 HD
BRANCH   6   9
HETATM    9  C6  UNL     1      -5.777   9.968 -19.697  1.00  0.00     0.168 A
HETATM   10  C7  UNL     1      -6.003   8.884 -20.553  1.00  0.00     0.072 A
HETATM   11  C8  UNL     1      -7.325   8.939 -20.993  1.00  0.00     0.036 A
HETATM   12  N2  UNL     1      -7.821  10.034 -20.392  1.00  0.00    -0.265 N
HETATM   13  O2  UNL     1      -6.924  10.604 -19.659  1.00  0.00    -0.232 OA
ATOM     14  H2  UNL     1      -8.778  10.368 -20.500  1.00  0.00     0.194 HD
BRANCH  11  15
HETATM   15  C9  UNL     1      -7.976   7.982 -21.914  1.00  0.00     0.064 C
BRANCH  15  16
HETATM   16  C10 UNL     1      -7.266   7.947 -23.234  1.00  0.00    -0.009 A
HETATM   17  C11 UNL     1      -7.674   6.842 -24.147  1.00  0.00     0.005 A
HETATM   18  C12 UNL     1      -6.316   6.834 -23.498  1.00  0.00     0.005 A
ENDBRANCH  15  16
ENDBRANCH  11  15
ENDBRANCH   6   9
ENDBRANCH   1   5
BRANCH   1  19
HETATM   19  C13 UNL     1      -2.240   8.651 -16.999  1.00  0.00     0.244 C
HETATM   20  O3  UNL     1      -0.987   8.713 -17.023  1.00  0.00    -0.271 OA
HETATM   21  N3  UNL     1      -2.806   7.323 -16.933  1.00  0.00    -0.339 N
ATOM     22  H3  UNL     1      -3.821   7.222 -16.912  1.00  0.00     0.167 HD
BRANCH  21  23
HETATM   23  C14 UNL     1      -2.006   6.166 -16.898  1.00  0.00     0.069 C
BRANCH  23  24
HETATM   24  C15 UNL     1      -1.763   5.315 -18.036  1.00  0.00     0.033 A
HETATM   25  C16 UNL     1      -1.091   5.738 -19.286  1.00  0.00     0.020 A
HETATM   26  C17 UNL     1      -2.523   5.280 -19.309  1.00  0.00    -0.039 A
HETATM   27  C18 UNL     1      -3.505   6.261 -19.802  1.00  0.00     0.015 C
HETATM   28  C19 UNL     1      -2.788   3.854 -19.836  1.00  0.00     0.015 C
ENDBRANCH  23  24
ENDBRANCH  21  23
ENDBRANCH   1  19
TORSDOF 8
ENDMDL