MODEL 3
REMARK VINA RESULT: -7.111502540      2.675      6.396
REMARK  8 active torsions:
REMARK  status: ('A' for Active; 'I' for Inactive)
REMARK    1  A    between atoms: C2_2  and  C3_3
REMARK    2  A    between atoms: C3_3  and  C4_4
REMARK    3  A    between atoms: C4_4  and  C5_5
REMARK    4  A    between atoms: C5_5  and  C6_6
REMARK    5  A    between atoms: C5_5  and  C12_16
REMARK    6  A    between atoms: C6_6  and  N1_7
REMARK       I    between atoms: N1_7  and  C7_9
REMARK    7  A    between atoms: C7_9  and  C8_11
REMARK       I    between atoms: C12_16  and  N2_18
REMARK    8  A    between atoms: N2_18  and  C13_20
ROOT
HETATM    1  C5  UNL     1      -2.485   5.047 -19.318  1.00  0.00     0.027 C
ENDROOT
BRANCH   1   2
HETATM    2  C4  UNL     1      -1.176   4.803 -18.776  1.00  0.00     0.010 C
BRANCH   2   3
HETATM    3  C3  UNL     1      -0.317   5.610 -17.944  1.00  0.00    -0.026 C
BRANCH   3   4
HETATM    4  C2  UNL     1       0.462   6.754 -18.486  1.00  0.00     0.022 C
HETATM    5  C1  UNL     1       0.061   8.023 -17.670  1.00  0.00     0.009 C
ENDBRANCH   3   4
ENDBRANCH   2   3
ENDBRANCH   1   2
BRANCH   1   6
HETATM    6  C6  UNL     1      -2.853   5.175 -20.725  1.00  0.00     0.166 C
BRANCH   6   7
HETATM    7  N1  UNL     1      -3.999   5.943 -21.098  1.00  0.00    -0.354 N
HETATM    8  C7  UNL     1      -4.026   6.795 -22.237  1.00  0.00     0.246 C
HETATM    9  O1  UNL     1      -2.992   6.870 -22.941  1.00  0.00    -0.271 OA
ATOM     10  H1  UNL     1      -4.836   5.878 -20.521  1.00  0.00     0.162 HD
BRANCH   8  11
HETATM   11  C8  UNL     1      -5.212   7.590 -22.625  1.00  0.00     0.213 C
HETATM   12  C9  UNL     1      -5.955   6.842 -23.700  1.00  0.00     0.043 C
HETATM   13  C10 UNL     1      -7.379   6.910 -23.265  1.00  0.00     0.029 C
HETATM   14  C11 UNL     1      -7.320   7.449 -21.881  1.00  0.00     0.168 C
HETATM   15  O2  UNL     1      -6.042   7.782 -21.566  1.00  0.00    -0.376 OA
ENDBRANCH   8  11
ENDBRANCH   6   7
ENDBRANCH   1   6
BRANCH   1  16
HETATM   16  C12 UNL     1      -3.192   6.152 -18.507  1.00  0.00     0.249 C
HETATM   17  O3  UNL     1      -3.161   7.336 -18.852  1.00  0.00    -0.268 OA
HETATM   18  N2  UNL     1      -3.876   5.746 -17.353  1.00  0.00    -0.352 N
ATOM     19  H2  UNL     1      -3.878   4.757 -17.102  1.00  0.00     0.163 HD
BRANCH  18  20
HETATM   20  C13 UNL     1      -4.591   6.700 -16.490  1.00  0.00     0.086 C
HETATM   21  C14 UNL     1      -5.697   5.916 -15.826  1.00  0.00     0.035 C
HETATM   22  C15 UNL     1      -6.731   6.819 -15.191  1.00  0.00     0.076 C
HETATM   23  S1  UNL     1      -5.791   8.027 -14.179  1.00  0.00    -0.169 SA
HETATM   24  C16 UNL     1      -4.086   7.355 -14.118  1.00  0.00     0.076 C
HETATM   25  C17 UNL     1      -3.605   7.279 -15.543  1.00  0.00     0.035 C
ENDBRANCH  18  20
ENDBRANCH   1  16
TORSDOF 8
ENDMDL