MODEL 1
REMARK VINA RESULT: -7.401886020      0.000      0.000
REMARK  10 active torsions:
REMARK  status: ('A' for Active; 'I' for Inactive)
REMARK    1  A    between atoms: N4_14  and  C7_15
REMARK    2  A    between atoms: C7_15  and  C8_16
REMARK    3  A    between atoms: C8_16  and  N5_17
REMARK    4  A    between atoms: N5_17  and  C9_18
REMARK    5  A    between atoms: N5_17  and  C15_24
REMARK    6  A    between atoms: C9_18  and  C10_19
REMARK    7  A    between atoms: C11_20  and  C12_21
REMARK    8  A    between atoms: C12_21  and  C13_22
REMARK    9  A    between atoms: C15_24  and  C16_25
REMARK   10  A    between atoms: C16_25  and  C17_26
ROOT
HETATM    1  C1  UNL     1      -4.214  12.207 -14.534  1.00  0.00     0.045 C
HETATM    2  C2  UNL     1      -3.743  11.557 -15.571  1.00  0.00     0.057 A
HETATM    3  N1  UNL     1      -3.339  12.232 -16.750  1.00  0.00    -0.307 N
ATOM      4  H1  UNL     1      -3.409  13.248 -16.808  1.00  0.00     0.170 HD
HETATM    5  C3  UNL     1      -2.835  11.481 -17.859  1.00  0.00     0.326 A
HETATM    6  O1  UNL     1      -2.476  12.098 -18.906  1.00  0.00    -0.247 OA
HETATM    7  N2  UNL     1      -2.722  10.071 -17.819  1.00  0.00    -0.292 N
ATOM      8  H2  UNL     1      -2.359   9.551 -18.618  1.00  0.00     0.172 HD
HETATM    9  C4  UNL     1      -3.130   9.396 -16.629  1.00  0.00     0.142 A
HETATM   10  C5  UNL     1      -3.615  10.094 -15.559  1.00  0.00     0.104 A
HETATM   11  N3  UNL     1      -3.924   9.223 -14.578  1.00  0.00    -0.347 N
ATOM     12  H3  UNL     1      -4.306   9.450 -13.659  1.00  0.00     0.167 HD
HETATM   13  C6  UNL     1      -3.630   7.995 -15.046  1.00  0.00     0.185 A
HETATM   14  N4  UNL     1      -3.147   8.089 -16.290  1.00  0.00    -0.326 N
ENDROOT
BRANCH  14  15
HETATM   15  C7  UNL     1      -2.704   6.979 -17.148  1.00  0.00     0.161 C
BRANCH  15  16
HETATM   16  C8  UNL     1      -3.925   6.173 -17.449  1.00  0.00     0.293 C
BRANCH  16  17
HETATM   17  N5  UNL     1      -4.444   6.394 -18.762  1.00  0.00     0.100 N
BRANCH  17  18
HETATM   18  C9  UNL     1      -3.360   6.417 -19.735  1.00  0.00     0.365 C
BRANCH  18  19
HETATM   19  C10 UNL     1      -3.982   6.450 -21.060  1.00  0.00    -0.076 C
HETATM   20  C11 UNL     1      -4.518   6.479 -22.137  1.00  0.00    -0.105 C
BRANCH  20  21
HETATM   21  C12 UNL     1      -5.204   6.511 -23.446  1.00  0.00     0.093 C
BRANCH  21  22
HETATM   22  C13 UNL     1      -6.721   6.499 -23.207  1.00  0.00     0.007 C
HETATM   23  C14 UNL     1      -7.397   7.524 -24.075  1.00  0.00     0.006 C
ENDBRANCH  21  22
ENDBRANCH  20  21
ENDBRANCH  18  19
ENDBRANCH  17  18
BRANCH  17  24
HETATM   24  C15 UNL     1      -5.318   7.515 -18.910  1.00  0.00     0.274 C
BRANCH  24  25
HETATM   25  C16 UNL     1      -6.788   7.190 -18.778  1.00  0.00     0.034 C
BRANCH  25  26
HETATM   26  C17 UNL     1      -7.458   7.814 -19.997  1.00  0.00    -0.021 C
HETATM   27  C18 UNL     1      -6.724   9.023 -20.500  1.00  0.00     0.009 C
HETATM   28  C19 UNL     1      -8.859   8.287 -19.596  1.00  0.00     0.009 C
ENDBRANCH  25  26
ENDBRANCH  24  25
ENDBRANCH  17  24
ENDBRANCH  16  17
ENDBRANCH  15  16
ENDBRANCH  14  15
TORSDOF 10
ENDMDL