MODEL 5
REMARK VINA RESULT: -6.843613105      1.905      3.431
REMARK  9 active torsions:
REMARK  status: ('A' for Active; 'I' for Inactive)
REMARK    1  A    between atoms: N1_2  and  C2_5
REMARK    2  A    between atoms: C2_5  and  C3_6
REMARK    3  A    between atoms: C2_5  and  N2_12
REMARK    4  A    between atoms: C3_6  and  C4_7
REMARK    5  A    between atoms: N2_12  and  C9_15
REMARK    6  A    between atoms: C9_15  and  C10_16
REMARK    7  A    between atoms: C10_16  and  C11_17
REMARK    8  A    between atoms: N4_21  and  C13_22
REMARK    9  A    between atoms: C13_22  and  C14_23
ROOT
HETATM    1  C9  UNL     1      -3.226   9.694 -16.440  1.00  0.00     0.241 C
ENDROOT
BRANCH   1   2
HETATM    2  N2  UNL     1      -2.728   8.389 -16.112  1.00  0.00    -0.046 N
ATOM      3  H22 UNL     1      -1.984   8.438 -15.415  1.00  0.00     0.279 HD
ATOM      4  H21 UNL     1      -2.195   7.988 -16.884  1.00  0.00     0.279 HD
BRANCH   2   5
HETATM    5  C2  UNL     1      -3.776   7.514 -15.693  1.00  0.00     0.382 C
BRANCH   5   6
HETATM    6  N1  UNL     1      -3.337   6.788 -14.500  1.00  0.00    -0.050 N
HETATM    7  C1  UNL     1      -3.673   7.565 -13.296  1.00  0.00     0.269 C
ATOM      8  H12 UNL     1      -2.346   6.549 -14.539  1.00  0.00     0.279 HD
ATOM      9  H11 UNL     1      -3.716   5.842 -14.465  1.00  0.00     0.279 HD
ENDBRANCH   5   6
BRANCH   5  10
HETATM   10  C3  UNL     1      -5.065   8.202 -15.330  1.00  0.00     0.068 C
BRANCH  10  11
HETATM   11  C4  UNL     1      -6.193   7.815 -16.258  1.00  0.00    -0.002 A
HETATM   12  C5  UNL     1      -7.601   8.019 -15.668  1.00  0.00     0.014 A
HETATM   13  C6  UNL     1      -7.052   6.647 -15.958  1.00  0.00    -0.044 A
HETATM   14  C7  UNL     1      -7.624   5.881 -17.155  1.00  0.00     0.015 C
HETATM   15  C8  UNL     1      -6.841   5.788 -14.745  1.00  0.00     0.015 C
ENDBRANCH  10  11
ENDBRANCH   5  10
ENDBRANCH   2   5
ENDBRANCH   1   2
BRANCH   1  16
HETATM   16  C10 UNL     1      -2.977   9.918 -17.939  1.00  0.00     0.086 C
BRANCH  16  17
HETATM   17  C11 UNL     1      -4.260   9.837 -18.689  1.00  0.00     0.034 A
HETATM   18  N3  UNL     1      -5.169  10.790 -18.961  1.00  0.00    -0.354 N
HETATM   19  C12 UNL     1      -6.167  10.259 -19.696  1.00  0.00     0.183 A
ATOM     20  H3  UNL     1      -5.114  11.762 -18.657  1.00  0.00     0.166 HD
HETATM   21  N4  UNL     1      -5.882   8.948 -19.894  1.00  0.00    -0.343 N
HETATM   22  C18 UNL     1      -4.718   8.684 -19.280  1.00  0.00     0.031 A
HETATM   23  C19 UNL     1      -4.072   7.324 -19.256  1.00  0.00     0.070 C
BRANCH  21  24
HETATM   24  C13 UNL     1      -6.699   7.983 -20.643  1.00  0.00     0.161 C
BRANCH  24  25
HETATM   25  C14 UNL     1      -6.354   8.017 -22.113  1.00  0.00     0.139 C
HETATM   26  C15 UNL     1      -5.587   6.812 -22.569  1.00  0.00     0.035 C
HETATM   27  C16 UNL     1      -5.968   6.700 -24.032  1.00  0.00     0.029 C
HETATM   28  C17 UNL     1      -7.165   7.599 -24.138  1.00  0.00     0.168 C
HETATM   29  O1  UNL     1      -7.548   7.897 -22.828  1.00  0.00    -0.384 OA
ENDBRANCH  24  25
ENDBRANCH  21  24
ENDBRANCH  16  17
ENDBRANCH   1  16
TORSDOF 9
ENDMDL