MODEL 1
REMARK VINA RESULT: -7.405147778      0.000      0.000
REMARK  10 active torsions:
REMARK  status: ('A' for Active; 'I' for Inactive)
REMARK    1  A    between atoms: C2_2  and  O1_3
REMARK    2  A    between atoms: O1_3  and  C3_4
REMARK    3  A    between atoms: C3_4  and  C4_5
REMARK       I    between atoms: C4_5  and  N1_7
REMARK    4  A    between atoms: N1_7  and  C5_9
REMARK    5  A    between atoms: C5_9  and  C6_10
REMARK    6  A    between atoms: C5_9  and  C13_17
REMARK    7  A    between atoms: C6_10  and  C7_11
REMARK    8  A    between atoms: C13_17  and  O3_18
REMARK    9  A    between atoms: C13_17  and  N2_20
REMARK   10  A    between atoms: N2_20  and  C15_22
ROOT
HETATM    1  C5  UNL     1      -5.545   8.060 -18.765  1.00  0.00     0.048 C
ENDROOT
BRANCH   1   2
HETATM    2  N1  UNL     1      -6.403   7.885 -17.662  1.00  0.00    -0.328 N
HETATM    3  C4  UNL     1      -6.739   8.664 -16.565  1.00  0.00     0.245 C
HETATM    4  O2  UNL     1      -6.261   9.796 -16.415  1.00  0.00    -0.271 OA
ATOM      5  H1  UNL     1      -6.885   6.986 -17.673  1.00  0.00     0.168 HD
BRANCH   3   6
HETATM    6  C3  UNL     1      -7.680   8.178 -15.535  1.00  0.00     0.270 C
BRANCH   6   7
HETATM    7  O1  UNL     1      -7.220   8.171 -14.257  1.00  0.00    -0.382 OA
BRANCH   7   8
HETATM    8  C2  UNL     1      -6.575   7.071 -13.797  1.00  0.00     0.163 C
HETATM    9  C1  UNL     1      -6.942   5.802 -14.558  1.00  0.00     0.033 C
ENDBRANCH   7   8
ENDBRANCH   6   7
ENDBRANCH   3   6
ENDBRANCH   1   2
BRANCH   1  10
HETATM   10  C6  UNL     1      -5.863   7.188 -19.954  1.00  0.00     0.061 C
BRANCH  10  11
HETATM   11  C7  UNL     1      -5.784   7.814 -21.300  1.00  0.00    -0.009 C
HETATM   12  C8  UNL     1      -4.527   7.519 -22.083  1.00  0.00     0.005 C
HETATM   13  C9  UNL     1      -4.617   6.227 -22.866  1.00  0.00     0.000 C
HETATM   14  C10 UNL     1      -5.540   6.522 -24.047  1.00  0.00     0.000 C
HETATM   15  C11 UNL     1      -6.625   7.497 -23.575  1.00  0.00     0.000 C
HETATM   16  C12 UNL     1      -6.914   7.153 -22.137  1.00  0.00     0.005 C
ENDBRANCH  10  11
ENDBRANCH   1  10
BRANCH   1  17
HETATM   17  C13 UNL     1      -4.100   8.251 -18.524  1.00  0.00     0.403 C
BRANCH  17  18
HETATM   18  O3  UNL     1      -3.790   9.587 -18.261  1.00  0.00    -0.363 OA
ATOM     19  H3  UNL     1      -3.239   9.961 -18.938  1.00  0.00     0.212 HD
ENDBRANCH  17  18
BRANCH  17  20
HETATM   20  N2  UNL     1      -3.464   7.322 -17.627  1.00  0.00     0.123 N
HETATM   21  C14 UNL     1      -2.935   7.909 -16.447  1.00  0.00     0.314 C
BRANCH  20  22
HETATM   22  C15 UNL     1      -2.387   6.698 -18.390  1.00  0.00     0.226 C
HETATM   23  C16 UNL     1      -2.837   5.361 -18.954  1.00  0.00     0.036 C
HETATM   24  C17 UNL     1      -1.579   4.564 -19.143  1.00  0.00     0.002 C
HETATM   25  C18 UNL     1      -0.467   5.337 -18.486  1.00  0.00     0.002 C
HETATM   26  C19 UNL     1      -1.210   6.315 -17.566  1.00  0.00     0.036 C
ENDBRANCH  20  22
ENDBRANCH  17  20
ENDBRANCH   1  17
TORSDOF 10
ENDMDL