MODEL 1
REMARK VINA RESULT: -7.918388924      0.000      0.000
REMARK  7 active torsions:
REMARK  status: ('A' for Active; 'I' for Inactive)
REMARK    1  A    between atoms: C4_7  and  C5_8
REMARK    2  A    between atoms: C5_8  and  C6_9
REMARK    3  A    between atoms: C6_9  and  N2_10
REMARK    4  A    between atoms: C9_13  and  C10_14
REMARK    5  A    between atoms: C10_14  and  C11_15
REMARK    6  A    between atoms: C11_15  and  C12_16
REMARK    7  A    between atoms: C12_16  and  C13_17
ROOT
HETATM    1  N2  UNL     1      -4.561   8.799 -14.834  1.00  0.00    -0.343 N
HETATM    2  C7  UNL     1      -5.877   8.359 -15.002  1.00  0.00     0.066 C
HETATM    3  C8  UNL     1      -6.191   8.116 -16.436  1.00  0.00     0.049 C
HETATM    4  C9  UNL     1      -4.934   7.644 -17.245  1.00  0.00    -0.005 C
HETATM    5  C21 UNL     1      -4.178   6.869 -16.183  1.00  0.00     0.064 C
HETATM    6  C22 UNL     1      -3.525   7.945 -15.290  1.00  0.00     0.274 C
HETATM    7  F1  UNL     1      -2.690   8.708 -16.120  1.00  0.00    -0.227 F
ENDROOT
BRANCH   4   8
HETATM    8  C10 UNL     1      -5.462   6.858 -18.383  1.00  0.00     0.014 C
BRANCH   8   9
HETATM    9  C11 UNL     1      -5.218   7.187 -19.777  1.00  0.00    -0.037 C
HETATM   10  C17 UNL     1      -6.464   6.901 -20.665  1.00  0.00     0.037 C
HETATM   11  C18 UNL     1      -6.780   7.993 -21.623  1.00  0.00     0.233 C
HETATM   12  N3  UNL     1      -5.628   8.374 -22.383  1.00  0.00    -0.075 N
HETATM   13  C19 UNL     1      -4.533   8.756 -21.572  1.00  0.00     0.233 C
ATOM     14  H32 UNL     1      -5.361   7.636 -23.033  1.00  0.00     0.277 HD
ATOM     15  H31 UNL     1      -5.860   9.108 -23.053  1.00  0.00     0.277 HD
HETATM   16  C20 UNL     1      -4.872   8.609 -20.081  1.00  0.00     0.037 C
BRANCH   9  17
HETATM   17  C12 UNL     1      -4.168   6.273 -20.366  1.00  0.00     0.014 C
BRANCH  17  18
HETATM   18  C13 UNL     1      -3.492   5.267 -19.580  1.00  0.00    -0.014 C
HETATM   19  C14 UNL     1      -2.805   4.083 -20.153  1.00  0.00     0.005 C
HETATM   20  C15 UNL     1      -1.577   4.342 -19.247  1.00  0.00     0.001 C
HETATM   21  C16 UNL     1      -2.087   5.772 -19.170  1.00  0.00     0.005 C
ENDBRANCH  17  18
ENDBRANCH   9  17
ENDBRANCH   8   9
ENDBRANCH   4   8
BRANCH   1  22
HETATM   22  C6  UNL     1      -4.230   9.769 -13.875  1.00  0.00     0.067 C
BRANCH  22  23
HETATM   23  C5  UNL     1      -3.402  10.920 -14.240  1.00  0.00     0.059 C
BRANCH  23  24
HETATM   24  C4  UNL     1      -3.948  12.066 -14.960  1.00  0.00     0.084 C
HETATM   25  C1  UNL     1      -2.811  12.656 -15.774  1.00  0.00     0.222 C
HETATM   26  O1  UNL     1      -2.006  13.550 -15.429  1.00  0.00    -0.273 OA
HETATM   27  N1  UNL     1      -2.810  12.005 -17.031  1.00  0.00    -0.361 N
HETATM   28  C2  UNL     1      -4.125  11.458 -17.292  1.00  0.00     0.123 C
ATOM     29  H1  UNL     1      -2.007  11.932 -17.657  1.00  0.00     0.162 HD
HETATM   30  C3  UNL     1      -4.914  11.798 -16.062  1.00  0.00     0.034 C
ENDBRANCH  23  24
ENDBRANCH  22  23
ENDBRANCH   1  22
TORSDOF 7
ENDMDL