MODEL 4
REMARK VINA RESULT: -7.368805780      1.978      2.497
REMARK  7 active torsions:
REMARK  status: ('A' for Active; 'I' for Inactive)
REMARK    1  A    between atoms: C2_2  and  C3_3
REMARK    2  A    between atoms: C3_3  and  C4_4
REMARK    3  A    between atoms: C4_4  and  N1_5
REMARK       I    between atoms: N1_5  and  C5_7
REMARK    4  A    between atoms: C5_7  and  C6_9
REMARK    5  A    between atoms: C6_9  and  C7_10
REMARK       I    between atoms: C7_10  and  N2_12
REMARK    6  A    between atoms: N2_12  and  C8_14
REMARK    7  A    between atoms: N3_20  and  C13_21
ROOT
HETATM    1  C6  UNL     1      -3.606   8.419 -17.734  1.00  0.00     0.130 C
HETATM    2  C11 UNL     1      -4.411   7.273 -18.280  1.00  0.00     0.074 C
HETATM    3  C12 UNL     1      -5.386   7.657 -19.340  1.00  0.00     0.065 C
HETATM    4  N3  UNL     1      -4.983   8.685 -20.208  1.00  0.00    -0.369 N
HETATM    5  C19 UNL     1      -4.641   9.869 -19.549  1.00  0.00     0.065 C
HETATM    6  C20 UNL     1      -3.578   9.659 -18.522  1.00  0.00     0.074 C
ENDROOT
BRANCH   1   7
HETATM    7  C5  UNL     1      -2.190   7.903 -17.624  1.00  0.00     0.236 C
HETATM    8  N1  UNL     1      -1.880   6.559 -17.956  1.00  0.00    -0.360 N
ATOM      9  H1  UNL     1      -2.613   5.925 -18.272  1.00  0.00     0.162 HD
HETATM   10  O1  UNL     1      -1.306   8.701 -17.230  1.00  0.00    -0.272 OA
BRANCH   8  11
HETATM   11  C4  UNL     1      -0.528   6.098 -17.844  1.00  0.00     0.122 C
BRANCH  11  12
HETATM   12  C3  UNL     1      -0.299   4.794 -18.571  1.00  0.00     0.019 C
BRANCH  12  13
HETATM   13  C2  UNL     1      -1.623   4.083 -18.730  1.00  0.00    -0.003 C
HETATM   14  C1  UNL     1      -2.107   4.163 -20.178  1.00  0.00     0.005 C
ENDBRANCH  12  13
ENDBRANCH  11  12
ENDBRANCH   8  11
ENDBRANCH   1   7
BRANCH   1  15
HETATM   15  C7  UNL     1      -4.065   8.730 -16.355  1.00  0.00     0.237 C
HETATM   16  O2  UNL     1      -4.808   9.743 -16.154  1.00  0.00    -0.272 OA
HETATM   17  N2  UNL     1      -3.681   7.906 -15.260  1.00  0.00    -0.338 N
ATOM     18  H2  UNL     1      -3.081   7.104 -15.452  1.00  0.00     0.164 HD
BRANCH  17  19
HETATM   19  C8  UNL     1      -4.085   8.133 -13.900  1.00  0.00     0.102 C
HETATM   20  C9  UNL     1      -5.555   7.837 -13.678  1.00  0.00     0.056 C
HETATM   21  C10 UNL     1      -3.771   9.535 -13.434  1.00  0.00     0.056 C
HETATM   22 CL1  UNL     1      -3.184   7.036 -12.808  1.00  0.00    -0.096 Cl
ENDBRANCH  17  19
ENDBRANCH   1  15
BRANCH   4  23
HETATM   23  C13 UNL     1      -5.663   8.693 -21.436  1.00  0.00     0.088 C
HETATM   24  C14 UNL     1      -7.144   8.583 -21.209  1.00  0.00     0.026 C
HETATM   25  C15 UNL     1      -7.721   7.219 -21.497  1.00  0.00     0.002 C
HETATM   26  C16 UNL     1      -7.260   6.798 -22.871  1.00  0.00     0.000 C
HETATM   27  C17 UNL     1      -5.757   6.500 -22.695  1.00  0.00     0.002 C
HETATM   28  C18 UNL     1      -5.114   7.854 -22.533  1.00  0.00     0.026 C
ENDBRANCH   4  23
TORSDOF 7
ENDMDL