MODEL 5
REMARK VINA RESULT: -6.933979303      1.967      2.675
REMARK  8 active torsions:
REMARK  status: ('A' for Active; 'I' for Inactive)
REMARK    1  A    between atoms: C2_2  and  C3_3
REMARK    2  A    between atoms: C3_3  and  C5_5
REMARK    3  A    between atoms: C5_5  and  C6_6
REMARK    4  A    between atoms: C5_5  and  N2_9
REMARK    5  A    between atoms: C10_13  and  C12_15
REMARK       I    between atoms: C12_15  and  N3_17
REMARK    6  A    between atoms: N3_17  and  C13_19
REMARK    7  A    between atoms: C13_19  and  C18_25
REMARK    8  A    between atoms: C14_20  and  C15_21
ROOT
HETATM    1  N2  UNL     1      -5.579   7.731 -19.902  1.00  0.00    -0.362 N
HETATM    2  C7  UNL     1      -6.771   7.019 -19.822  1.00  0.00     0.060 C
HETATM    3  C8  UNL     1      -7.884   8.014 -19.928  1.00  0.00     0.047 C
HETATM    4  C9  UNL     1      -7.213   9.347 -19.989  1.00  0.00     0.046 C
HETATM    5  C10 UNL     1      -5.723   9.097 -19.701  1.00  0.00     0.110 C
HETATM    6  C11 UNL     1      -4.974  10.027 -20.619  1.00  0.00     0.049 C
ENDROOT
BRANCH   5   7
HETATM    7  C12 UNL     1      -5.508   9.587 -18.307  1.00  0.00     0.250 C
HETATM    8  O2  UNL     1      -6.418  10.321 -17.857  1.00  0.00    -0.270 OA
HETATM    9  N3  UNL     1      -4.396   9.273 -17.535  1.00  0.00    -0.329 N
ATOM     10  H3  UNL     1      -3.684   8.667 -17.943  1.00  0.00     0.168 HD
BRANCH   9  11
HETATM   11  C13 UNL     1      -4.185   9.770 -16.151  1.00  0.00     0.013 C
HETATM   12  C14 UNL     1      -3.716  10.964 -16.130  1.00  0.00     0.023 C
BRANCH  12  13
HETATM   13  C15 UNL     1      -3.319  11.950 -15.151  1.00  0.00     0.049 C
HETATM   14  C16 UNL     1      -4.637  12.446 -14.446  1.00  0.00     0.036 C
HETATM   15  C17 UNL     1      -2.712  13.220 -15.668  1.00  0.00     0.036 C
HETATM   16 CL1  UNL     1      -2.335  11.340 -13.803  1.00  0.00    -0.116 Cl
ENDBRANCH  12  13
BRANCH  11  17
HETATM   17  C18 UNL     1      -4.548   8.834 -15.126  1.00  0.00     0.027 C
HETATM   18  C19 UNL     1      -5.896   8.312 -14.904  1.00  0.00     0.016 C
HETATM   19  C20 UNL     1      -3.618   7.575 -15.183  1.00  0.00     0.016 C
ENDBRANCH  11  17
ENDBRANCH   9  11
ENDBRANCH   5   7
BRANCH   1  20
HETATM   20  C5  UNL     1      -4.435   7.181 -20.508  1.00  0.00     0.177 C
BRANCH  20  21
HETATM   21  C3  UNL     1      -3.914   5.944 -19.836  1.00  0.00     0.013 C
HETATM   22  C4  UNL     1      -3.054   6.319 -18.632  1.00  0.00     0.012 C
BRANCH  21  23
HETATM   23  C2  UNL     1      -3.197   4.949 -20.644  1.00  0.00     0.002 C
HETATM   24  C1  UNL     1      -2.203   4.068 -19.962  1.00  0.00     0.005 C
ENDBRANCH  21  23
ENDBRANCH  20  21
BRANCH  20  25
HETATM   25  C6  UNL     1      -4.495   7.097 -21.983  1.00  0.00     0.254 C
HETATM   26  N1  UNL     1      -5.629   6.647 -22.709  1.00  0.00    -0.060 NA
HETATM   27  O1  UNL     1      -3.501   7.432 -22.718  1.00  0.00    -0.275 OA
ENDBRANCH  20  25
ENDBRANCH   1  20
TORSDOF 8
ENDMDL