MODEL 3
REMARK VINA RESULT: -7.933749698      1.185      1.594
REMARK  8 active torsions:
REMARK  status: ('A' for Active; 'I' for Inactive)
REMARK    1  A    between atoms: C2_2  and  N1_4
REMARK    2  A    between atoms: N1_4  and  C3_6
REMARK    3  A    between atoms: C3_6  and  C4_7
REMARK    4  A    between atoms: C4_7  and  N2_8
REMARK       I    between atoms: N2_8  and  C5_9
REMARK    5  A    between atoms: N2_8  and  C17_25
REMARK       I    between atoms: C5_9  and  N3_11
REMARK    6  A    between atoms: N3_11  and  C6_13
REMARK    7  A    between atoms: N4_16  and  C9_17
REMARK    8  A    between atoms: C9_17  and  C10_18
ROOT
HETATM    1  N2  UNL     1      -4.286  10.699 -16.275  1.00  0.00    -0.325 N
HETATM    2  C5  UNL     1      -5.411  10.707 -17.105  1.00  0.00     0.319 C
HETATM    3  O1  UNL     1      -6.268  11.651 -17.070  1.00  0.00    -0.247 OA
HETATM    4  N3  UNL     1      -5.716   9.690 -18.054  1.00  0.00    -0.336 N
ATOM      5  H3  UNL     1      -5.072   8.904 -18.141  1.00  0.00     0.164 HD
ENDROOT
BRANCH   1   6
HETATM    6  C4  UNL     1      -3.335   9.568 -16.349  1.00  0.00     0.172 C
BRANCH   6   7
HETATM    7  C3  UNL     1      -3.991   8.446 -15.627  1.00  0.00     0.076 C
BRANCH   7   8
HETATM    8  N1  UNL     1      -3.264   7.293 -15.318  1.00  0.00    -0.384 N
ATOM      9  H1  UNL     1      -2.699   7.289 -14.468  1.00  0.00     0.160 HD
BRANCH   8  10
HETATM   10  C2  UNL     1      -3.272   6.148 -16.117  1.00  0.00     0.174 C
HETATM   11  C1  UNL     1      -2.239   6.167 -17.213  1.00  0.00     0.049 C
HETATM   12 CL1  UNL     1      -4.869   6.055 -16.962  1.00  0.00    -0.103 Cl
ENDBRANCH   8  10
ENDBRANCH   7   8
ENDBRANCH   6   7
ENDBRANCH   1   6
BRANCH   1  13
HETATM   13  C17 UNL     1      -4.007  11.756 -15.355  1.00  0.00     0.089 C
HETATM   14  C18 UNL     1      -2.935  11.411 -14.327  1.00  0.00     0.025 C
HETATM   15  C19 UNL     1      -2.453  12.839 -14.450  1.00  0.00     0.004 C
HETATM   16  C20 UNL     1      -3.197  12.920 -15.791  1.00  0.00     0.025 C
ENDBRANCH   1  13
BRANCH   4  17
HETATM   17  C6  UNL     1      -6.884   9.709 -18.900  1.00  0.00     0.109 C
HETATM   18  C7  UNL     1      -7.786   8.560 -18.512  1.00  0.00     0.071 C
HETATM   19  C8  UNL     1      -8.374   8.118 -19.853  1.00  0.00     0.065 C
HETATM   20  N4  UNL     1      -7.534   8.561 -20.866  1.00  0.00    -0.371 N
HETATM   21  C16 UNL     1      -6.451   9.343 -20.307  1.00  0.00     0.152 C
BRANCH  20  22
HETATM   22  C9  UNL     1      -7.164   7.737 -21.940  1.00  0.00     0.067 C
BRANCH  22  23
HETATM   23  C10 UNL     1      -5.750   7.313 -21.971  1.00  0.00     0.024 C
HETATM   24  C11 UNL     1      -5.255   6.485 -23.100  1.00  0.00     0.010 C
HETATM   25  C12 UNL     1      -3.744   6.383 -22.986  1.00  0.00     0.001 C
HETATM   26  C13 UNL     1      -3.206   5.946 -21.693  1.00  0.00     0.000 C
HETATM   27  C14 UNL     1      -3.953   6.418 -20.484  1.00  0.00     0.001 C
HETATM   28  C15 UNL     1      -5.426   6.531 -20.685  1.00  0.00     0.010 C
ENDBRANCH  22  23
ENDBRANCH  20  22
ENDBRANCH   4  17
TORSDOF 8
ENDMDL