MODEL 3
REMARK VINA RESULT: -7.794222950      2.207      5.801
REMARK  8 active torsions:
REMARK  status: ('A' for Active; 'I' for Inactive)
REMARK    1  A    between atoms: C1_2  and  C2_3
REMARK       I    between atoms: C1_2  and  N1_7
REMARK    2  A    between atoms: C2_3  and  C3_4
REMARK    3  A    between atoms: C3_4  and  C4_5
REMARK    4  A    between atoms: N1_7  and  C5_9
REMARK    5  A    between atoms: C8_12  and  C9_13
REMARK    6  A    between atoms: C9_13  and  C10_14
REMARK    7  A    between atoms: C10_14  and  N2_15
REMARK    8  A    between atoms: C12_17  and  O2_18
ROOT
HETATM    1  C5  UNL     1      -2.433   7.331 -16.571  1.00  0.00     0.084 C
HETATM    2  C6  UNL     1      -2.765   8.278 -17.695  1.00  0.00     0.025 C
HETATM    3  C7  UNL     1      -3.624   9.433 -17.233  1.00  0.00     0.007 C
HETATM    4  C8  UNL     1      -4.902   8.802 -16.695  1.00  0.00    -0.013 C
HETATM    5  C20 UNL     1      -4.537   8.119 -15.418  1.00  0.00     0.007 C
HETATM    6  C21 UNL     1      -3.608   6.989 -15.715  1.00  0.00     0.025 C
ENDROOT
BRANCH   4   7
HETATM    7  C9  UNL     1      -5.994   9.826 -16.538  1.00  0.00     0.024 C
BRANCH   7   8
HETATM    8  C10 UNL     1      -7.375   9.204 -16.622  1.00  0.00     0.117 C
BRANCH   8   9
HETATM    9  N2  UNL     1      -7.795   9.230 -17.977  1.00  0.00    -0.405 N
HETATM   10  C11 UNL     1      -7.181  10.175 -18.833  1.00  0.00     0.155 C
HETATM   11  C12 UNL     1      -6.945   9.721 -20.236  1.00  0.00     0.077 C
HETATM   12  C13 UNL     1      -5.621   8.965 -20.236  1.00  0.00     0.044 C
HETATM   13  C18 UNL     1      -7.979   8.832 -20.821  1.00  0.00     0.024 C
HETATM   14  C14 UNL     1      -6.138   7.528 -20.230  1.00  0.00    -0.009 C
HETATM   15  C15 UNL     1      -6.759   7.208 -18.916  1.00  0.00     0.029 C
HETATM   16  C19 UNL     1      -7.169   7.644 -21.361  1.00  0.00     0.012 C
HETATM   17  C16 UNL     1      -8.004   7.935 -18.571  1.00  0.00     0.080 C
HETATM   18  C17 UNL     1      -8.910   8.197 -19.783  1.00  0.00     0.032 C
BRANCH  11  19
HETATM   19  O2  UNL     1      -6.732  10.881 -21.012  1.00  0.00    -0.388 OA
ATOM     20  H2  UNL     1      -7.209  10.760 -21.825  1.00  0.00     0.210 HD
ENDBRANCH  11  19
ENDBRANCH   8   9
ENDBRANCH   7   8
ENDBRANCH   4   7
BRANCH   1  21
HETATM   21  N1  UNL     1      -1.945   6.111 -17.186  1.00  0.00    -0.356 N
HETATM   22  C1  UNL     1      -0.638   6.095 -17.795  1.00  0.00     0.217 C
HETATM   23  O1  UNL     1       0.033   7.181 -17.758  1.00  0.00    -0.274 OA
ATOM     24  H1  UNL     1      -2.522   5.270 -17.187  1.00  0.00     0.162 HD
BRANCH  22  25
HETATM   25  C2  UNL     1      -0.180   4.850 -18.406  1.00  0.00     0.104 C
BRANCH  25  26
HETATM   26  C3  UNL     1      -1.300   3.933 -18.787  1.00  0.00     0.024 C
BRANCH  26  27
HETATM   27  C4  UNL     1      -1.815   4.260 -20.148  1.00  0.00     0.115 C
HETATM   28 CL1  UNL     1      -3.427   5.048 -20.015  1.00  0.00    -0.130 Cl
ENDBRANCH  26  27
ENDBRANCH  25  26
ENDBRANCH  22  25
ENDBRANCH   1  21
TORSDOF 8
ENDMDL