MODEL 2
REMARK VINA RESULT: -7.851645916      1.276      1.534
REMARK  7 active torsions:
REMARK  status: ('A' for Active; 'I' for Inactive)
REMARK    1  A    between atoms: C2_2  and  C4_4
REMARK    2  A    between atoms: C4_4  and  N1_5
REMARK    3  A    between atoms: C8_9  and  C9_10
REMARK    4  A    between atoms: C9_10  and  N2_11
REMARK       I    between atoms: N2_11  and  C10_13
REMARK    5  A    between atoms: C10_13  and  C11_15
REMARK    6  A    between atoms: C16_20  and  C17_21
REMARK       I    between atoms: C17_21  and  N3_23
REMARK    7  A    between atoms: N3_23  and  C18_25
ROOT
HETATM    1  C11 UNL     1      -4.960  11.256 -18.827  1.00  0.00     0.091 C
HETATM    2  C12 UNL     1      -3.456  11.270 -18.774  1.00  0.00     0.015 C
HETATM    3  C13 UNL     1      -2.982  12.059 -17.583  1.00  0.00     0.001 C
HETATM    4  C14 UNL     1      -3.648  11.695 -16.300  1.00  0.00     0.001 C
HETATM    5  C15 UNL     1      -5.153  11.620 -16.421  1.00  0.00     0.015 C
HETATM    6  C16 UNL     1      -5.589  10.750 -17.564  1.00  0.00     0.091 C
ENDROOT
BRANCH   1   7
HETATM    7  C10 UNL     1      -5.441  10.555 -20.036  1.00  0.00     0.222 C
HETATM    8  N2  UNL     1      -4.623   9.501 -20.554  1.00  0.00    -0.359 N
ATOM      9  H2  UNL     1      -3.747   9.265 -20.088  1.00  0.00     0.162 HD
HETATM   10  O1  UNL     1      -6.498  10.812 -20.631  1.00  0.00    -0.273 OA
BRANCH   8  11
HETATM   11  C9  UNL     1      -5.029   8.766 -21.738  1.00  0.00     0.158 C
BRANCH  11  12
HETATM   12  C8  UNL     1      -5.573   7.444 -21.324  1.00  0.00     0.240 C
HETATM   13  N1  UNL     1      -4.868   6.321 -21.906  1.00  0.00     0.095 N
HETATM   14  C5  UNL     1      -5.189   6.319 -23.268  1.00  0.00     0.273 C
HETATM   15  C6  UNL     1      -6.581   6.976 -23.359  1.00  0.00     0.032 C
HETATM   16  C7  UNL     1      -6.953   7.285 -21.924  1.00  0.00     0.039 C
BRANCH  13  17
HETATM   17  C4  UNL     1      -3.548   6.173 -21.457  1.00  0.00     0.277 C
BRANCH  17  18
HETATM   18  C2  UNL     1      -3.440   5.478 -20.138  1.00  0.00     0.006 C
HETATM   19  C1  UNL     1      -2.605   6.193 -19.142  1.00  0.00     0.011 C
HETATM   20  C3  UNL     1      -2.775   4.101 -20.349  1.00  0.00     0.011 C
ENDBRANCH  17  18
ENDBRANCH  13  17
ENDBRANCH  11  12
ENDBRANCH   8  11
ENDBRANCH   1   7
BRANCH   6  21
HETATM   21  C17 UNL     1      -5.249   9.355 -17.236  1.00  0.00     0.224 C
HETATM   22  O2  UNL     1      -4.315   8.701 -17.764  1.00  0.00    -0.273 OA
HETATM   23  N3  UNL     1      -6.030   8.693 -16.249  1.00  0.00    -0.339 N
ATOM     24  H3  UNL     1      -6.795   9.199 -15.802  1.00  0.00     0.164 HD
BRANCH  23  25
HETATM   25  C18 UNL     1      -5.770   7.317 -15.858  1.00  0.00     0.102 C
HETATM   26  C19 UNL     1      -4.400   7.157 -15.255  1.00  0.00     0.056 C
HETATM   27  C20 UNL     1      -6.784   6.960 -14.764  1.00  0.00     0.056 C
HETATM   28 CL1  UNL     1      -5.899   6.195 -17.225  1.00  0.00    -0.096 Cl
ENDBRANCH  23  25
ENDBRANCH   6  21
TORSDOF 7
ENDMDL