MODEL 4
REMARK VINA RESULT: -8.651782860      3.469      6.411
REMARK  7 active torsions:
REMARK  status: ('A' for Active; 'I' for Inactive)
REMARK    1  A    between atoms: C1_2  and  C2_3
REMARK       I    between atoms: C1_2  and  N2_11
REMARK    2  A    between atoms: C2_3  and  C3_4
REMARK    3  A    between atoms: N2_11  and  C7_13
REMARK    4  A    between atoms: C7_13  and  C8_14
REMARK    5  A    between atoms: C7_13  and  C16_25
REMARK       I    between atoms: C8_14  and  N3_16
REMARK    6  A    between atoms: C11_19  and  C12_20
REMARK    7  A    between atoms: C12_20  and  C13_21
ROOT
HETATM    1  C7  UNL     1      -6.577   7.785 -20.332  1.00  0.00     0.180 C
ENDROOT
BRANCH   1   2
HETATM    2  N2  UNL     1      -5.346   7.010 -20.268  1.00  0.00    -0.347 N
HETATM    3  C1  UNL     1      -4.555   6.739 -21.407  1.00  0.00     0.220 C
HETATM    4  O1  UNL     1      -4.912   7.174 -22.523  1.00  0.00    -0.274 OA
ATOM      5  H2  UNL     1      -5.042   6.649 -19.364  1.00  0.00     0.163 HD
BRANCH   3   6
HETATM    6  C2  UNL     1      -3.308   5.952 -21.331  1.00  0.00     0.135 C
BRANCH   6   7
HETATM    7  C3  UNL     1      -3.114   5.355 -19.963  1.00  0.00     0.194 C
HETATM    8  C4  UNL     1      -2.532   3.971 -20.088  1.00  0.00     0.035 C
HETATM    9  C5  UNL     1      -1.678   3.909 -18.816  1.00  0.00     0.029 C
HETATM   10  C6  UNL     1      -1.101   5.309 -18.797  1.00  0.00     0.233 C
HETATM   11  N1  UNL     1      -2.279   6.116 -19.090  1.00  0.00    -0.070 N
ATOM     12  H12 UNL     1      -2.047   7.037 -19.464  1.00  0.00     0.277 HD
ATOM     13  H11 UNL     1      -2.764   6.431 -18.250  1.00  0.00     0.277 HD
ENDBRANCH   6   7
ENDBRANCH   3   6
ENDBRANCH   1   2
BRANCH   1  14
HETATM   14  C8  UNL     1      -6.279   9.215 -20.242  1.00  0.00     0.243 C
HETATM   15  O2  UNL     1      -6.991  10.004 -20.937  1.00  0.00    -0.271 OA
HETATM   16  N3  UNL     1      -5.268   9.806 -19.448  1.00  0.00    -0.350 N
HETATM   17  C9  UNL     1      -5.087  11.248 -19.517  1.00  0.00     0.126 C
HETATM   18  C15 UNL     1      -4.394   9.093 -18.544  1.00  0.00     0.126 C
HETATM   19  C10 UNL     1      -3.897  11.716 -18.721  1.00  0.00     0.024 C
HETATM   20  C11 UNL     1      -4.088  11.278 -17.306  1.00  0.00    -0.009 C
HETATM   21  C14 UNL     1      -4.401   9.821 -17.197  1.00  0.00     0.024 C
BRANCH  20  22
HETATM   22  C12 UNL     1      -2.952  11.665 -16.392  1.00  0.00     0.036 C
BRANCH  22  23
HETATM   23  C13 UNL     1      -3.267  12.901 -15.583  1.00  0.00     0.222 C
HETATM   24  F1  UNL     1      -2.092  13.635 -15.459  1.00  0.00    -0.255 F
ENDBRANCH  22  23
ENDBRANCH  20  22
ENDBRANCH   1  14
BRANCH   1  25
HETATM   25  C16 UNL     1      -7.450   7.282 -19.208  1.00  0.00     0.018 C
HETATM   26  C17 UNL     1      -8.250   8.371 -18.555  1.00  0.00     0.007 C
HETATM   27  C18 UNL     1      -7.800   8.631 -17.124  1.00  0.00     0.000 C
HETATM   28  C19 UNL     1      -7.921   7.436 -16.235  1.00  0.00     0.000 C
HETATM   29  C20 UNL     1      -7.534   6.210 -17.018  1.00  0.00     0.000 C
HETATM   30  C21 UNL     1      -6.597   6.643 -18.132  1.00  0.00     0.007 C
ENDBRANCH   1  25
TORSDOF 7
ENDMDL