MODEL 3
REMARK VINA RESULT: -8.001802573      2.857      4.549
REMARK  7 active torsions:
REMARK  status: ('A' for Active; 'I' for Inactive)
REMARK       I    between atoms: N1_2  and  C2_3
REMARK    1  A    between atoms: N1_2  and  C12_14
REMARK    2  A    between atoms: C2_3  and  C3_5
REMARK    3  A    between atoms: C3_5  and  C4_6
REMARK    4  A    between atoms: C4_6  and  C5_7
REMARK    5  A    between atoms: C5_7  and  C6_8
REMARK    6  A    between atoms: C12_14  and  C13_15
REMARK       I    between atoms: C13_15  and  N2_17
REMARK    7  A    between atoms: N2_17  and  C14_19
ROOT
HETATM    1  C12 UNL     1      -5.584   7.167 -15.406  1.00  0.00     0.115 C
HETATM    2  C18 UNL     1      -4.765   8.071 -14.523  1.00  0.00     0.041 C
HETATM    3  C19 UNL     1      -5.511   8.201 -13.211  1.00  0.00     0.003 C
HETATM    4  C20 UNL     1      -6.912   7.651 -13.526  1.00  0.00     0.003 C
HETATM    5  C21 UNL     1      -6.537   6.544 -14.441  1.00  0.00     0.041 C
ENDROOT
BRANCH   1   6
HETATM    6  N1  UNL     1      -6.224   7.945 -16.444  1.00  0.00    -0.338 N
HETATM    7  C1  UNL     1      -5.810   9.272 -16.846  1.00  0.00     0.154 C
HETATM    8  C2  UNL     1      -7.347   7.399 -17.124  1.00  0.00     0.220 C
HETATM    9  O1  UNL     1      -7.804   6.251 -16.882  1.00  0.00    -0.273 OA
BRANCH   8  10
HETATM   10  C3  UNL     1      -8.069   8.163 -18.184  1.00  0.00     0.103 C
BRANCH  10  11
HETATM   11  C4  UNL     1      -7.910   7.560 -19.536  1.00  0.00     0.010 C
BRANCH  11  12
HETATM   12  C5  UNL     1      -6.504   7.458 -20.004  1.00  0.00     0.005 C
BRANCH  12  13
HETATM   13  C6  UNL     1      -6.216   8.183 -21.284  1.00  0.00    -0.014 C
HETATM   14  C7  UNL     1      -4.844   8.002 -21.811  1.00  0.00     0.004 C
HETATM   15  C8  UNL     1      -4.647   6.847 -22.730  1.00  0.00     0.000 C
HETATM   16  C9  UNL     1      -5.735   6.664 -23.745  1.00  0.00     0.000 C
HETATM   17  C10 UNL     1      -7.042   6.499 -22.958  1.00  0.00     0.000 C
HETATM   18  C11 UNL     1      -7.281   7.829 -22.276  1.00  0.00     0.004 C
ENDBRANCH  12  13
ENDBRANCH  11  12
ENDBRANCH  10  11
ENDBRANCH   8  10
ENDBRANCH   1   6
BRANCH   1  19
HETATM   19  C13 UNL     1      -4.748   6.133 -16.075  1.00  0.00     0.246 C
HETATM   20  O2  UNL     1      -4.998   4.934 -15.821  1.00  0.00    -0.271 OA
HETATM   21  N2  UNL     1      -3.697   6.480 -16.976  1.00  0.00    -0.350 N
ATOM     22  H2  UNL     1      -3.501   7.461 -17.178  1.00  0.00     0.163 HD
BRANCH  21  23
HETATM   23  C14 UNL     1      -2.914   5.444 -17.600  1.00  0.00     0.145 C
HETATM   24  C15 UNL     1      -1.477   5.875 -17.818  1.00  0.00     0.260 C
HETATM   25  N3  UNL     1      -1.186   5.385 -19.174  1.00  0.00    -0.070 N
HETATM   26  C16 UNL     1      -2.400   5.831 -19.864  1.00  0.00     0.271 C
ATOM     27  H32 UNL     1      -0.303   5.693 -19.580  1.00  0.00     0.277 HD
ATOM     28  H31 UNL     1      -0.967   4.391 -19.253  1.00  0.00     0.277 HD
HETATM   29  C17 UNL     1      -3.468   5.200 -18.997  1.00  0.00     0.220 C
HETATM   30  F1  UNL     1      -4.697   5.810 -19.160  1.00  0.00    -0.245 F
ENDBRANCH  21  23
ENDBRANCH   1  19
TORSDOF 7
ENDMDL