MODEL 5
REMARK VINA RESULT: -7.488795363      2.428      6.633
REMARK  8 active torsions:
REMARK  status: ('A' for Active; 'I' for Inactive)
REMARK    1  A    between atoms: C2_2  and  C3_3
REMARK    2  A    between atoms: C3_3  and  N1_4
REMARK    3  A    between atoms: C6_7  and  C7_8
REMARK    4  A    between atoms: C7_8  and  C8_9
REMARK    5  A    between atoms: C8_9  and  C9_10
REMARK       I    between atoms: C9_10  and  N2_12
REMARK    6  A    between atoms: N2_12  and  C10_13
REMARK    7  A    between atoms: N2_12  and  C13_16
REMARK    8  A    between atoms: N3_21  and  O2_22
ROOT
HETATM    1  C9  UNL     1      -4.885   6.259 -18.354  1.00  0.00     0.221 C
HETATM    2  O1  UNL     1      -4.594   5.013 -18.203  1.00  0.00    -0.273 OA
HETATM    3  N2  UNL     1      -4.830   6.791 -19.652  1.00  0.00    -0.333 N
ENDROOT
BRANCH   3   4
HETATM    4  C10 UNL     1      -4.368   5.923 -20.714  1.00  0.00     0.088 A
HETATM    5  C11 UNL     1      -3.181   5.044 -20.595  1.00  0.00     0.027 A
HETATM    6  C12 UNL     1      -3.149   6.174 -21.522  1.00  0.00     0.027 A
ENDBRANCH   3   4
BRANCH   3   7
HETATM    7  C13 UNL     1      -5.242   8.140 -19.998  1.00  0.00     0.086 C
HETATM    8  C14 UNL     1      -4.391   9.125 -19.196  1.00  0.00     0.044 C
HETATM    9  C15 UNL     1      -4.966   8.507 -21.431  1.00  0.00     0.215 C
HETATM   10  F1  UNL     1      -4.792   9.918 -21.561  1.00  0.00    -0.245 F
HETATM   11  C16 UNL     1      -6.309   8.290 -22.124  1.00  0.00     0.161 C
HETATM   12  N3  UNL     1      -7.142   8.984 -21.192  1.00  0.00    -0.185 NA
HETATM   13  C17 UNL     1      -6.681   8.468 -19.882  1.00  0.00     0.059 C
HETATM   14  C18 UNL     1      -6.965   9.676 -18.968  1.00  0.00     0.037 C
HETATM   15  C19 UNL     1      -7.608   7.352 -19.548  1.00  0.00     0.037 C
BRANCH  12  16
HETATM   16  O2  UNL     1      -8.435   8.866 -21.399  1.00  0.00    -0.312 OA
ATOM     17  H2  UNL     1      -8.922   9.681 -21.396  1.00  0.00     0.237 HD
ENDBRANCH  12  16
ENDBRANCH   3   7
BRANCH   1  18
HETATM   18  C8  UNL     1      -5.230   6.919 -17.087  1.00  0.00     0.103 C
BRANCH  18  19
HETATM   19  C7  UNL     1      -4.343   6.447 -15.942  1.00  0.00     0.014 C
BRANCH  19  20
HETATM   20  C6  UNL     1      -3.564   7.531 -15.291  1.00  0.00    -0.011 C
HETATM   21  C5  UNL     1      -3.372   8.783 -16.068  1.00  0.00     0.035 C
HETATM   22  C4  UNL     1      -4.374   9.861 -15.656  1.00  0.00     0.272 C
HETATM   23  N1  UNL     1      -4.177  10.297 -14.314  1.00  0.00     0.088 N
HETATM   24  C21 UNL     1      -3.720   9.231 -13.447  1.00  0.00     0.272 C
HETATM   25  C20 UNL     1      -4.240   7.907 -13.965  1.00  0.00     0.035 C
BRANCH  23  26
HETATM   26  C3  UNL     1      -3.352  11.483 -14.211  1.00  0.00     0.272 C
BRANCH  26  27
HETATM   27  C2  UNL     1      -3.708  12.502 -15.272  1.00  0.00     0.026 C
HETATM   28  C1  UNL     1      -2.458  13.272 -15.618  1.00  0.00     0.007 C
ENDBRANCH  26  27
ENDBRANCH  23  26
ENDBRANCH  19  20
ENDBRANCH  18  19
ENDBRANCH   1  18
TORSDOF 8
ENDMDL