MODEL 2
REMARK VINA RESULT: -7.722472038      2.069      3.391
REMARK  8 active torsions:
REMARK  status: ('A' for Active; 'I' for Inactive)
REMARK    1  A    between atoms: C2_2  and  C3_3
REMARK    2  A    between atoms: C11_12  and  C12_13
REMARK    3  A    between atoms: C12_13  and  C13_14
REMARK    4  A    between atoms: C13_14  and  C14_15
REMARK    5  A    between atoms: C14_15  and  N1_16
REMARK    6  A    between atoms: N1_16  and  C15_17
REMARK    7  A    between atoms: N1_16  and  S1_23
REMARK    8  A    between atoms: C15_17  and  C16_18
ROOT
HETATM    1  C12 UNL     1      -6.548   7.029 -17.703  1.00  0.00     0.011 C
ENDROOT
BRANCH   1   2
HETATM    2  C11 UNL     1      -6.591   7.820 -18.967  1.00  0.00    -0.031 C
HETATM    3  C2  UNL     1      -5.348   7.740 -19.752  1.00  0.00    -0.020 C
HETATM    4  C1  UNL     1      -4.235   8.562 -19.100  1.00  0.00     0.017 C
HETATM    5  C4  UNL     1      -5.550   8.476 -21.105  1.00  0.00    -0.004 C
HETATM    6  C5  UNL     1      -6.759   7.899 -21.803  1.00  0.00     0.010 C
HETATM    7  C9  UNL     1      -5.803   9.934 -20.893  1.00  0.00     0.010 C
HETATM    8  C6  UNL     1      -7.988   8.153 -20.987  1.00  0.00    -0.013 C
HETATM    9  C7  UNL     1      -8.187   9.623 -20.660  1.00  0.00     0.009 C
HETATM   10  C18 UNL     1      -7.842   7.373 -19.708  1.00  0.00     0.015 C
HETATM   11  C8  UNL     1      -6.934  10.104 -19.914  1.00  0.00    -0.013 C
HETATM   12  C10 UNL     1      -6.823   9.311 -18.665  1.00  0.00     0.015 C
BRANCH   3  13
HETATM   13  C3  UNL     1      -4.777   6.419 -20.087  1.00  0.00     0.124 C
HETATM   14 CL1  UNL     1      -3.572   6.542 -21.374  1.00  0.00    -0.130 Cl
ENDBRANCH   3  13
ENDBRANCH   1   2
BRANCH   1  15
HETATM   15  C13 UNL     1      -6.911   7.807 -16.456  1.00  0.00     0.016 C
BRANCH  15  16
HETATM   16  C14 UNL     1      -5.923   7.457 -15.330  1.00  0.00     0.107 C
BRANCH  16  17
HETATM   17  N1  UNL     1      -4.582   7.730 -15.750  1.00  0.00    -0.204 NA
BRANCH  17  18
HETATM   18  C15 UNL     1      -3.981   8.819 -15.032  1.00  0.00     0.179 C
BRANCH  18  19
HETATM   19  C16 UNL     1      -3.882  10.080 -15.762  1.00  0.00     0.100 C
HETATM   20  N2  UNL     1      -2.733  10.436 -16.244  1.00  0.00    -0.390 N
ATOM     21  H22 UNL     1      -1.941   9.811 -16.088  1.00  0.00     0.157 HD
ATOM     22  H21 UNL     1      -2.664  11.317 -16.753  1.00  0.00     0.157 HD
HETATM   23  N3  UNL     1      -4.971  10.941 -15.976  1.00  0.00    -0.087 NA
ENDBRANCH  18  19
ENDBRANCH  17  18
BRANCH  17  24
HETATM   24  S1  UNL     1      -3.563   6.352 -15.679  1.00  0.00     0.208 S
HETATM   25  C17 UNL     1      -2.345   6.433 -16.975  1.00  0.00     0.180 C
HETATM   26  O1  UNL     1      -4.337   5.089 -15.854  1.00  0.00    -0.212 OA
HETATM   27  O2  UNL     1      -2.806   6.307 -14.378  1.00  0.00    -0.212 OA
ENDBRANCH  17  24
ENDBRANCH  16  17
ENDBRANCH  15  16
ENDBRANCH   1  15
TORSDOF 8
ENDMDL