MODEL 1
REMARK VINA RESULT: -3.792918526      0.000      0.000
REMARK  3 active torsions:
REMARK  status: ('A' for Active; 'I' for Inactive)
REMARK    1  A    between atoms: C2_2  and  N1_4
REMARK    2  A    between atoms: N1_4  and  C4_6
REMARK    3  A    between atoms: C4_6  and  C5_7
ROOT
HETATM    1  C5  UNL     1       9.488   7.324  13.410  1.00  0.00     0.249 C
HETATM    2  C6  UNL     1       8.525   6.172  13.079  1.00  0.00     0.270 C
HETATM    3  N2  UNL     1       7.180   6.610  12.867  1.00  0.00    -0.071 N
ATOM      4  H21 UNL     1       6.574   5.822  12.640  1.00  0.00     0.277 HD
ATOM      5  H22 UNL     1       7.105   7.138  11.997  1.00  0.00     0.277 HD
HETATM    6  C7  UNL     1       6.645   7.367  13.973  1.00  0.00     0.260 C
HETATM    7  C8  UNL     1       7.707   8.306  14.532  1.00  0.00     0.260 C
HETATM    8  N3  UNL     1       8.647   8.512  13.416  1.00  0.00    -0.063 N
ATOM      9  H31 UNL     1       8.193   8.702  12.523  1.00  0.00     0.278 HD
ATOM     10  H32 UNL     1       9.168   9.387  13.470  1.00  0.00     0.278 HD
ENDROOT
BRANCH   1  11
HETATM   11  C4  UNL     1      10.605   7.391  12.434  1.00  0.00     0.090 C
BRANCH  11  12
HETATM   12  N1  UNL     1      11.780   6.683  12.682  1.00  0.00    -0.396 N
ATOM     13  H1  UNL     1      12.471   7.086  13.315  1.00  0.00     0.159 HD
BRANCH  12  14
HETATM   14  C2  UNL     1      12.048   5.440  12.097  1.00  0.00     0.072 C
HETATM   15  C1  UNL     1      11.372   5.129  10.792  1.00  0.00     0.031 C
HETATM   16  C3  UNL     1      13.523   5.134  11.911  1.00  0.00     0.031 C
ENDBRANCH  12  14
ENDBRANCH  11  12
ENDBRANCH   1  11
TORSDOF 3
ENDMDL