MODEL 4
REMARK VINA RESULT: -3.746300863      1.626      5.605
REMARK  5 active torsions:
REMARK  status: ('A' for Active; 'I' for Inactive)
REMARK    1  A    between atoms: N1_1  and  C1_5
REMARK    2  A    between atoms: C1_5  and  C2_6
REMARK    3  A    between atoms: C3_7  and  C4_8
REMARK    4  A    between atoms: C4_8  and  C5_9
REMARK    5  A    between atoms: C5_9  and  N2_10
ROOT
HETATM    1  C4  UNL     1       9.827   7.583  12.787  1.00  0.00     0.057 C
ENDROOT
BRANCH   1   2
HETATM    2  C3  UNL     1      11.129   6.984  12.471  1.00  0.00    -0.027 C
HETATM    3  C2  UNL     1      11.269   5.677  12.377  1.00  0.00    -0.004 C
BRANCH   3   4
HETATM    4  C1  UNL     1      12.644   5.141  12.048  1.00  0.00     0.256 C
BRANCH   4   5
HETATM    5  N1  UNL     1      13.613   6.203  12.239  1.00  0.00    -0.076 N
ATOM      6  H13 UNL     1      14.525   5.976  11.841  1.00  0.00     0.274 HD
ATOM      7  H12 UNL     1      13.411   7.023  11.669  1.00  0.00     0.274 HD
ATOM      8  H11 UNL     1      13.665   6.421  13.234  1.00  0.00     0.274 HD
ENDBRANCH   4   5
ENDBRANCH   3   4
ENDBRANCH   1   2
BRANCH   1   9
HETATM    9  C5  UNL     1       8.703   6.569  12.809  1.00  0.00     0.278 C
BRANCH   9  10
HETATM   10  N2  UNL     1       7.545   7.295  13.326  1.00  0.00     0.115 N
HETATM   11  C6  UNL     1       7.933   8.448  14.123  1.00  0.00     0.302 C
HETATM   12  C7  UNL     1       6.809   8.501  15.140  1.00  0.00     0.264 C
HETATM   13  N3  UNL     1       6.764   7.085  15.515  1.00  0.00    -0.047 N
HETATM   14  C8  UNL     1       6.751   6.443  14.187  1.00  0.00     0.502 C
ATOM     15  H32 UNL     1       7.504   6.774  16.145  1.00  0.00     0.279 HD
ATOM     16  H31 UNL     1       6.001   6.820  16.138  1.00  0.00     0.279 HD
ENDBRANCH   9  10
ENDBRANCH   1   9
TORSDOF 5
ENDMDL