MODEL 5
REMARK VINA RESULT: -4.323291857      1.635      4.935
REMARK  4 active torsions:
REMARK  status: ('A' for Active; 'I' for Inactive)
REMARK    1  A    between atoms: C2_2  and  C3_3
REMARK    2  A    between atoms: C3_3  and  N1_4
REMARK    3  A    between atoms: N1_4  and  C4_6
REMARK    4  A    between atoms: C6_12  and  N4_13
ROOT
HETATM    1  C4  UNL     1       9.606   7.286  12.492  1.00  0.00     0.693 A
HETATM    2  N2  UNL     1       9.242   8.243  13.375  1.00  0.00    -0.187 N
ATOM      3  H2  UNL     1       9.905   8.988  13.588  1.00  0.00     0.185 HD
HETATM    4  C5  UNL     1       8.040   8.254  13.985  1.00  0.00     0.215 A
HETATM    5  N3  UNL     1       7.152   7.281  13.715  1.00  0.00    -0.187 N
ATOM      6  H3  UNL     1       6.236   7.270  14.163  1.00  0.00     0.185 HD
HETATM    7  C6  UNL     1       7.502   6.328  12.843  1.00  0.00     0.691 A
HETATM    8  N5  UNL     1       8.714   6.326  12.236  1.00  0.00    -0.023 N
ATOM      9  H5  UNL     1       8.948   5.584  11.577  1.00  0.00     0.203 HD
ENDROOT
BRANCH   1  10
HETATM   10  N1  UNL     1      10.755   7.337  11.956  1.00  0.00    -0.222 N
ATOM     11  H1  UNL     1      10.806   7.708  11.007  1.00  0.00     0.178 HD
BRANCH  10  12
HETATM   12  C3  UNL     1      11.984   6.923  12.556  1.00  0.00     0.164 C
BRANCH  12  13
HETATM   13  C2  UNL     1      12.304   5.497  12.279  1.00  0.00    -0.017 C
HETATM   14  C1  UNL     1      13.538   5.130  11.956  1.00  0.00     0.008 C
ENDBRANCH  12  13
ENDBRANCH  10  12
ENDBRANCH   1  10
BRANCH   7  15
HETATM   15  N4  UNL     1       6.658   5.373  12.566  1.00  0.00    -0.234 N
ATOM     16  H42 UNL     1       6.717   4.497  13.085  1.00  0.00     0.174 HD
ATOM     17  H41 UNL     1       5.958   5.520  11.839  1.00  0.00     0.174 HD
ENDBRANCH   7  15
TORSDOF 4
ENDMDL