MODEL 4
REMARK VINA RESULT: -3.780403688      1.889      2.690
REMARK  4 active torsions:
REMARK  status: ('A' for Active; 'I' for Inactive)
REMARK    1  A    between atoms: C2_2  and  N1_3
REMARK    2  A    between atoms: C2_2  and  C3_7
REMARK    3  A    between atoms: C3_7  and  C4_8
REMARK    4  A    between atoms: C4_8  and  N2_9
ROOT
HETATM    1  N2  UNL     1       9.005   6.485  12.387  1.00  0.00    -0.217 N
HETATM    2  C5  UNL     1       9.295   7.751  13.048  1.00  0.00     0.161 C
HETATM    3  C6  UNL     1       8.131   8.021  13.953  1.00  0.00     0.158 C
HETATM    4  N3  UNL     1       7.189   6.923  13.783  1.00  0.00    -0.225 N
ATOM      5  H3  UNL     1       6.388   6.698  14.374  1.00  0.00     0.177 HD
HETATM    6  C7  UNL     1       7.625   6.233  12.620  1.00  0.00     0.669 C
HETATM    7  N4  UNL     1       6.830   5.480  11.897  1.00  0.00    -0.235 N
ATOM      8  H41 UNL     1       5.841   5.300  12.065  1.00  0.00     0.174 HD
ATOM      9  H42 UNL     1       7.143   4.984  11.062  1.00  0.00     0.174 HD
ENDROOT
BRANCH   1  10
HETATM   10  C4  UNL     1       9.913   5.670  11.653  1.00  0.00     0.143 C
BRANCH  10  11
HETATM   11  C3  UNL     1      11.121   5.304  12.491  1.00  0.00     0.052 C
BRANCH  11  12
HETATM   12  C2  UNL     1      12.362   6.005  12.031  1.00  0.00     0.181 C
HETATM   13  C1  UNL     1      13.580   5.129  11.945  1.00  0.00     0.039 C
BRANCH  12  14
HETATM   14  N1  UNL     1      12.663   7.083  12.955  1.00  0.00    -0.075 N
ATOM     15  H13 UNL     1      13.195   6.772  13.768  1.00  0.00     0.274 HD
ATOM     16  H12 UNL     1      13.351   7.740  12.588  1.00  0.00     0.274 HD
ATOM     17  H11 UNL     1      11.780   7.530  13.204  1.00  0.00     0.274 HD
ENDBRANCH  12  14
ENDBRANCH  11  12
ENDBRANCH  10  11
ENDBRANCH   1  10
TORSDOF 4
ENDMDL