MODEL 4
REMARK VINA RESULT: -4.321259033      1.636      4.867
REMARK  4 active torsions:
REMARK  status: ('A' for Active; 'I' for Inactive)
REMARK    1  A    between atoms: C2_2  and  C3_3
REMARK    2  A    between atoms: C3_3  and  N1_4
REMARK    3  A    between atoms: N1_4  and  C4_6
REMARK    4  A    between atoms: C6_12  and  N4_13
ROOT
HETATM    1  C4  UNL     1       9.645   7.234  12.415  1.00  0.00     0.693 A
HETATM    2  N2  UNL     1       9.266   8.126  13.331  1.00  0.00    -0.187 N
ATOM      3  H2  UNL     1       9.919   8.853  13.620  1.00  0.00     0.185 HD
HETATM    4  C5  UNL     1       8.018   8.086  13.890  1.00  0.00     0.215 A
HETATM    5  N3  UNL     1       7.175   7.126  13.499  1.00  0.00    -0.187 N
ATOM      6  H3  UNL     1       6.242   7.085  13.908  1.00  0.00     0.185 HD
HETATM    7  C6  UNL     1       7.532   6.216  12.579  1.00  0.00     0.691 A
HETATM    8  N5  UNL     1       8.780   6.290  12.047  1.00  0.00    -0.023 N
ATOM      9  H5  UNL     1       9.063   5.603  11.347  1.00  0.00     0.203 HD
ENDROOT
BRANCH   1  10
HETATM   10  N1  UNL     1      10.809   7.283  11.903  1.00  0.00    -0.222 N
ATOM     11  H1  UNL     1      10.875   7.590  10.933  1.00  0.00     0.178 HD
BRANCH  10  12
HETATM   12  C3  UNL     1      12.031   6.946  12.564  1.00  0.00     0.164 C
BRANCH  12  13
HETATM   13  C2  UNL     1      12.327   5.505  12.275  1.00  0.00    -0.017 C
HETATM   14  C1  UNL     1      13.558   5.129  11.912  1.00  0.00     0.008 C
ENDBRANCH  12  13
ENDBRANCH  10  12
ENDBRANCH   1  10
BRANCH   7  15
HETATM   15  N4  UNL     1       6.717   5.268  12.185  1.00  0.00    -0.234 N
ATOM     16  H42 UNL     1       5.722   5.341  12.395  1.00  0.00     0.174 HD
ATOM     17  H41 UNL     1       7.046   4.451  11.669  1.00  0.00     0.174 HD
ENDBRANCH   7  15
TORSDOF 4
ENDMDL