MODEL 5
REMARK VINA RESULT: -4.143734769      2.717      5.282
REMARK  3 active torsions:
REMARK  status: ('A' for Active; 'I' for Inactive)
REMARK    1  A    between atoms: C2_2  and  C4_4
REMARK    2  A    between atoms: C4_4  and  C5_5
REMARK    3  A    between atoms: C5_5  and  N1_6
ROOT
HETATM    1  N1  UNL     1      10.436   7.743  12.953  1.00  0.00    -0.361 N
ATOM      2  H1  UNL     1      10.737   8.665  13.268  1.00  0.00     0.162 HD
HETATM    3  C6  UNL     1      11.293   6.858  12.634  1.00  0.00     0.188 C
HETATM    4  N2  UNL     1      11.044   5.534  12.178  1.00  0.00    -0.346 N
ATOM      5  H2  UNL     1      10.196   4.986  12.313  1.00  0.00     0.163 HD
HETATM    6  C7  UNL     1      12.246   5.129  11.482  1.00  0.00     0.259 C
HETATM    7  N3  UNL     1      13.327   5.894  12.087  1.00  0.00    -0.119 NA
HETATM    8  N4  UNL     1      12.706   7.008  12.666  1.00  0.00    -0.274 N
ATOM      9  H4  UNL     1      13.199   7.812  13.056  1.00  0.00     0.185 HD
ENDROOT
BRANCH   1  10
HETATM   10  C5  UNL     1       9.030   7.422  12.862  1.00  0.00     0.123 C
BRANCH  10  11
HETATM   11  C4  UNL     1       8.277   8.071  14.022  1.00  0.00     0.023 C
BRANCH  11  12
HETATM   12  C2  UNL     1       7.221   7.072  14.486  1.00  0.00    -0.021 C
HETATM   13  C1  UNL     1       6.428   6.651  13.273  1.00  0.00     0.009 C
HETATM   14  C3  UNL     1       7.900   5.893  15.134  1.00  0.00     0.009 C
ENDBRANCH  11  12
ENDBRANCH  10  11
ENDBRANCH   1  10
TORSDOF 3
ENDMDL