MODEL 5
REMARK VINA RESULT: -3.477850534      1.872      1.955
REMARK  5 active torsions:
REMARK  status: ('A' for Active; 'I' for Inactive)
REMARK    1  A    between atoms: C2_2  and  C3_3
REMARK    2  A    between atoms: C3_3  and  N1_4
REMARK    3  A    between atoms: N1_4  and  C4_7
REMARK    4  A    between atoms: C4_7  and  C5_8
REMARK    5  A    between atoms: C6_9  and  C7_10
ROOT
HETATM    1  C4  UNL     1      10.366   7.681  12.673  1.00  0.00     0.325 C
ENDROOT
BRANCH   1   2
HETATM    2  N1  UNL     1      10.565   6.967  11.462  1.00  0.00    -0.065 N
ATOM      3  H12 UNL     1      11.302   7.402  10.906  1.00  0.00     0.278 HD
ATOM      4  H11 UNL     1       9.774   7.100  10.832  1.00  0.00     0.278 HD
BRANCH   2   5
HETATM    5  C3  UNL     1      10.830   5.583  11.646  1.00  0.00     0.233 C
BRANCH   5   6
HETATM    6  C2  UNL     1      11.991   5.386  12.633  1.00  0.00     0.023 C
HETATM    7  C1  UNL     1      13.279   5.131  11.894  1.00  0.00     0.007 C
ENDBRANCH   5   6
ENDBRANCH   2   5
ENDBRANCH   1   2
BRANCH   1   8
HETATM    8  C5  UNL     1       8.998   7.442  13.169  1.00  0.00    -0.077 C
HETATM    9  C6  UNL     1       7.876   7.256  13.625  1.00  0.00    -0.081 C
BRANCH   9  10
HETATM   10  C7  UNL     1       6.559   7.038  14.215  1.00  0.00     0.190 C
HETATM   11  C8  UNL     1       6.410   5.696  14.828  1.00  0.00     0.165 C
HETATM   12  N2  UNL     1       6.922   6.274  16.054  1.00  0.00    -0.145 NA
HETATM   13  N3  UNL     1       6.465   7.539  15.592  1.00  0.00    -0.130 NA
ENDBRANCH   9  10
ENDBRANCH   1   8
TORSDOF 5
ENDMDL