MODEL 2
REMARK VINA RESULT: -4.440418540      0.879      1.117
REMARK  5 active torsions:
REMARK  status: ('A' for Active; 'I' for Inactive)
REMARK    1  A    between atoms: N1_1  and  C1_5
REMARK    2  A    between atoms: C1_5  and  C2_6
REMARK    3  A    between atoms: C2_6  and  N2_7
REMARK    4  A    between atoms: N2_7  and  N3_9
REMARK    5  A    between atoms: N3_9  and  C3_11
ROOT
HETATM    1  N3  UNL     1       9.020   7.210  13.106  1.00  0.00    -0.290 N
ATOM      2  H3  UNL     1       8.836   6.222  12.934  1.00  0.00     0.188 HD
ENDROOT
BRANCH   1   3
HETATM    3  N2  UNL     1      10.108   7.840  12.525  1.00  0.00    -0.333 N
ATOM      4  H2  UNL     1      10.037   8.822  12.260  1.00  0.00     0.180 HD
BRANCH   3   5
HETATM    5  C2  UNL     1      11.332   7.135  12.291  1.00  0.00     0.166 C
BRANCH   5   6
HETATM    6  C1  UNL     1      11.203   5.711  12.754  1.00  0.00     0.250 C
BRANCH   6   7
HETATM    7  N1  UNL     1      12.435   5.229  13.309  1.00  0.00    -0.078 N
ATOM      8  H13 UNL     1      13.231   5.785  12.994  1.00  0.00     0.274 HD
ATOM      9  H12 UNL     1      12.496   5.421  14.309  1.00  0.00     0.274 HD
ATOM     10  H11 UNL     1      12.570   4.238  13.109  1.00  0.00     0.274 HD
ENDBRANCH   6   7
ENDBRANCH   5   6
ENDBRANCH   3   5
ENDBRANCH   1   3
BRANCH   1  11
HETATM   11  C3  UNL     1       8.246   7.899  13.865  1.00  0.00     0.119 A
HETATM   12  C4  UNL     1       7.344   7.276  14.683  1.00  0.00     0.050 A
HETATM   13  C5  UNL     1       6.482   7.976  15.525  1.00  0.00     0.005 A
HETATM   14  C6  UNL     1       6.587   9.353  15.492  1.00  0.00     0.017 A
HETATM   15  C7  UNL     1       7.483   9.989  14.680  1.00  0.00     0.089 A
HETATM   16  N4  UNL     1       8.280   9.241  13.896  1.00  0.00    -0.351 N
ATOM     17  H4  UNL     1       8.948   9.720  13.292  1.00  0.00     0.166 HD
ENDBRANCH   1  11
TORSDOF 5
ENDMDL