MODEL 4
REMARK VINA RESULT: -7.556113532      3.106      4.930
REMARK  4 active torsions:
REMARK  status: ('A' for Active; 'I' for Inactive)
REMARK    1  A    between atoms: C2_2  and  O1_5
REMARK    2  A    between atoms: O1_5  and  C5_6
REMARK       I    between atoms: C5_6  and  N1_8
REMARK    3  A    between atoms: N4_14  and  C7_15
REMARK    4  A    between atoms: C10_18  and  C11_19
ROOT
HETATM    1  C5  UNL     1       0.530   5.411  19.521  1.00  0.00     0.388 C
HETATM    2  O2  UNL     1       1.270   4.583  18.964  1.00  0.00    -0.236 OA
HETATM    3  N1  UNL     1       0.705   5.692  20.914  1.00  0.00    -0.147 N
HETATM    4  C6  UNL     1      -0.028   6.594  21.729  1.00  0.00     0.360 C
HETATM    5  O3  UNL     1      -0.780   7.493  21.281  1.00  0.00    -0.244 OA
HETATM    6  N2  UNL     1       0.275   6.252  23.074  1.00  0.00    -0.237 N
ATOM      7  H2  UNL     1      -0.044   6.743  23.909  1.00  0.00     0.188 HD
HETATM    8  N3  UNL     1       1.092   5.119  23.042  1.00  0.00    -0.021 NA
HETATM    9  N4  UNL     1       1.658   5.116  21.761  1.00  0.00    -0.078 NA
ENDROOT
BRANCH   9  10
HETATM   10  C7  UNL     1       2.801   6.033  21.820  1.00  0.00     0.237 C
HETATM   11  C8  UNL     1       3.387   5.963  23.195  1.00  0.00     0.052 C
HETATM   12  C9  UNL     1       4.900   5.821  23.185  1.00  0.00     0.021 C
HETATM   13  C10 UNL     1       5.526   6.686  22.119  1.00  0.00     0.024 A
HETATM   14  C15 UNL     1       4.682   7.892  21.613  1.00  0.00     0.050 A
HETATM   15  C16 UNL     1       4.759   6.629  20.876  1.00  0.00     0.138 A
HETATM   16  O5  UNL     1       3.727   5.706  20.862  1.00  0.00    -0.361 OA
BRANCH  13  17
HETATM   17  C11 UNL     1       6.972   6.899  22.184  1.00  0.00     0.057 A
HETATM   18  C12 UNL     1       7.953   6.018  21.786  1.00  0.00     0.150 A
HETATM   19  F1  UNL     1       7.728   4.789  21.262  1.00  0.00    -0.203 F
HETATM   20  C13 UNL     1       9.187   6.622  22.024  1.00  0.00     0.188 A
HETATM   21  O4  UNL     1       8.955   7.801  22.535  1.00  0.00    -0.293 OA
HETATM   22  C14 UNL     1       7.647   8.008  22.648  1.00  0.00     0.240 A
HETATM   23  F2  UNL     1       7.115   9.149  23.149  1.00  0.00    -0.177 F
ENDBRANCH  13  17
ENDBRANCH   9  10
BRANCH   1  24
HETATM   24  O1  UNL     1      -0.442   6.035  18.779  1.00  0.00    -0.292 OA
BRANCH  24  25
HETATM   25  C2  UNL     1      -1.686   5.497  18.446  1.00  0.00     0.061 C
HETATM   26  C1  UNL     1      -2.643   6.681  18.254  1.00  0.00     0.046 C
HETATM   27  C3  UNL     1      -2.263   4.630  19.540  1.00  0.00     0.046 C
HETATM   28  C4  UNL     1      -1.696   4.729  17.153  1.00  0.00     0.046 C
ENDBRANCH  24  25
ENDBRANCH   1  24
TORSDOF 4
ENDMDL