MODEL 1
REMARK VINA RESULT: -8.881674131      0.000      0.000
REMARK  4 active torsions:
REMARK  status: ('A' for Active; 'I' for Inactive)
REMARK    1  A    between atoms: N1_1  and  C1_5
REMARK    2  A    between atoms: C5_9  and  O1_10
REMARK    3  A    between atoms: O1_10  and  C6_11
REMARK       I    between atoms: C6_11  and  N2_13
REMARK    4  A    between atoms: C8_17  and  N4_18
ROOT
HETATM    1  C6  UNL     1       7.642   7.287  21.827  1.00  0.00     0.382 C
HETATM    2  O2  UNL     1       8.674   6.574  21.796  1.00  0.00    -0.237 OA
HETATM    3  N2  UNL     1       6.387   6.668  21.658  1.00  0.00    -0.121 N
HETATM    4  C7  UNL     1       6.382   5.258  21.460  1.00  0.00     0.693 A
HETATM    5  N3  UNL     1       7.474   4.479  21.322  1.00  0.00    -0.169 N
ATOM      6  H3  UNL     1       8.436   4.819  21.344  1.00  0.00     0.186 HD
HETATM    7  C8  UNL     1       7.120   3.196  21.151  1.00  0.00     0.204 A
HETATM    8  C9  UNL     1       5.743   3.145  21.181  1.00  0.00     0.165 A
HETATM    9  N5  UNL     1       5.326   4.384  21.366  1.00  0.00    -0.178 N
HETATM   10  C10 UNL     1       3.938   4.872  21.472  1.00  0.00     0.179 C
HETATM   11  C11 UNL     1       3.634   5.877  20.414  1.00  0.00     0.034 C
HETATM   12  C12 UNL     1       4.446   7.110  20.392  1.00  0.00     0.029 C
HETATM   13  C13 UNL     1       5.162   7.453  21.686  1.00  0.00     0.119 C
HETATM   14  C14 UNL     1       4.362   6.955  22.862  1.00  0.00     0.107 C
HETATM   15  C15 UNL     1       3.859   5.576  22.804  1.00  0.00     0.266 C
HETATM   16  F1  UNL     1       2.503   5.589  23.157  1.00  0.00    -0.204 F
HETATM   17  F2  UNL     1       4.461   4.724  23.736  1.00  0.00    -0.204 F
ENDROOT
BRANCH   1  18
HETATM   18  O1  UNL     1       7.821   8.634  22.026  1.00  0.00    -0.298 OA
BRANCH  18  19
HETATM   19  C5  UNL     1       8.001   9.246  23.285  1.00  0.00     0.135 C
HETATM   20  C4  UNL     1       9.488   9.533  23.534  1.00  0.00     0.033 C
HETATM   21  C3  UNL     1       9.473  10.285  24.871  1.00  0.00     0.004 C
HETATM   22  C2  UNL     1       9.267   9.228  25.929  1.00  0.00     0.033 C
HETATM   23  C1  UNL     1       8.323   8.152  25.536  1.00  0.00     0.186 C
HETATM   24  C16 UNL     1       7.424   8.440  24.390  1.00  0.00     0.065 C
BRANCH  23  25
HETATM   25  N1  UNL     1       7.497   7.835  26.693  1.00  0.00    -0.075 N
ATOM     26  H13 UNL     1       7.980   7.248  27.373  1.00  0.00     0.274 HD
ATOM     27  H12 UNL     1       7.337   8.641  27.297  1.00  0.00     0.274 HD
ATOM     28  H11 UNL     1       6.630   7.416  26.355  1.00  0.00     0.274 HD
ENDBRANCH  23  25
ENDBRANCH  18  19
ENDBRANCH   1  18
BRANCH   7  29
HETATM   29  N4  UNL     1       7.976   2.072  20.970  1.00  0.00    -0.096 N
HETATM   30  O3  UNL     1       7.463   0.921  21.022  1.00  0.00    -0.530 OA
HETATM   31  O4  UNL     1       9.312   2.236  20.747  1.00  0.00    -0.530 OA
ENDBRANCH   7  29
TORSDOF 4
ENDMDL