MODEL 5
REMARK VINA RESULT: -7.104014209      5.019      9.061
REMARK  5 active torsions:
REMARK  status: ('A' for Active; 'I' for Inactive)
REMARK    1  A    between atoms: C2_2  and  O1_5
REMARK    2  A    between atoms: O1_5  and  C5_6
REMARK       I    between atoms: C5_6  and  N1_8
REMARK    3  A    between atoms: N2_11  and  C8_12
REMARK    4  A    between atoms: C9_15  and  S1_16
REMARK    5  A    between atoms: S1_16  and  C10_17
ROOT
HETATM    1  C8  UNL     1       1.659   5.444  21.268  1.00  0.00     0.684 A
HETATM    2  N3  UNL     1       1.382   5.448  19.931  1.00  0.00    -0.170 N
ATOM      3  H3  UNL     1       2.111   5.710  19.267  1.00  0.00     0.186 HD
HETATM    4  C9  UNL     1       0.157   5.111  19.476  1.00  0.00     0.167 A
HETATM    5  N4  UNL     1      -0.771   4.773  20.409  1.00  0.00    -0.313 N
ATOM      6  H4  UNL     1      -1.707   4.512  20.098  1.00  0.00     0.170 HD
HETATM    7  C12 UNL     1      -0.501   4.768  21.719  1.00  0.00     0.204 A
HETATM    8  C13 UNL     1      -1.476   4.410  22.713  1.00  0.00     0.137 C
HETATM    9  N5  UNL     1      -2.245   4.130  23.522  1.00  0.00    -0.188 NA
HETATM   10  N6  UNL     1       0.721   5.105  22.159  1.00  0.00    -0.166 N
ATOM     11  H6  UNL     1       0.931   5.102  23.157  1.00  0.00     0.186 HD
ENDROOT
BRANCH   4  12
HETATM   12  S1  UNL     1      -0.203   5.109  17.887  1.00  0.00    -0.017 SA
BRANCH  12  13
HETATM   13  C10 UNL     1      -0.306   3.505  17.023  1.00  0.00     0.295 C
HETATM   14  C11 UNL     1      -1.757   3.023  17.133  1.00  0.00     0.103 C
HETATM   15  F1  UNL     1       0.468   2.571  17.680  1.00  0.00    -0.194 F
HETATM   16  F2  UNL     1       0.059   3.631  15.697  1.00  0.00    -0.194 F
ENDBRANCH  12  13
ENDBRANCH   4  12
BRANCH   1  17
HETATM   17  N2  UNL     1       2.949   5.796  21.743  1.00  0.00    -0.214 N
HETATM   18  C7  UNL     1       4.054   5.696  20.817  1.00  0.00     0.161 C
HETATM   19  C6  UNL     1       4.848   6.999  20.989  1.00  0.00     0.148 C
HETATM   20  N1  UNL     1       5.333   7.074  22.338  1.00  0.00    -0.325 N
HETATM   21  C5  UNL     1       6.472   7.849  22.641  1.00  0.00     0.363 C
HETATM   22  C15 UNL     1       4.671   6.367  23.395  1.00  0.00     0.148 C
HETATM   23  O2  UNL     1       7.116   8.499  21.776  1.00  0.00    -0.238 OA
HETATM   24  C14 UNL     1       3.197   6.245  23.092  1.00  0.00     0.161 C
BRANCH  21  25
HETATM   25  O1  UNL     1       6.959   7.939  23.934  1.00  0.00    -0.294 OA
BRANCH  25  26
HETATM   26  C2  UNL     1       8.243   8.354  24.212  1.00  0.00     0.061 C
HETATM   27  C1  UNL     1       9.232   7.470  23.505  1.00  0.00     0.046 C
HETATM   28  C3  UNL     1       8.567   9.784  23.911  1.00  0.00     0.046 C
HETATM   29  C4  UNL     1       8.459   8.142  25.714  1.00  0.00     0.046 C
ENDBRANCH  25  26
ENDBRANCH  21  25
ENDBRANCH   1  17
TORSDOF 5
ENDMDL