MODEL 4
REMARK VINA RESULT: -7.235647404      1.828      5.340
REMARK  3 active torsions:
REMARK  status: ('A' for Active; 'I' for Inactive)
REMARK    1  A    between atoms: O1_2  and  C2_3
REMARK    2  A    between atoms: C2_3  and  C3_5
REMARK    3  A    between atoms: N2_13  and  C8_14
ROOT
HETATM    1  C3  UNL     1       4.658   6.588  25.384  1.00  0.00     0.190 A
HETATM    2  N1  UNL     1       5.563   7.163  26.248  1.00  0.00    -0.329 N
ATOM      3  H1  UNL     1       5.508   7.196  27.266  1.00  0.00     0.168 HD
HETATM    4  C4  UNL     1       6.534   7.673  25.469  1.00  0.00     0.104 A
HETATM    5  S1  UNL     1       8.012   8.536  25.520  1.00  0.00    -0.071 SA
HETATM    6  C5  UNL     1       8.327   8.617  23.863  1.00  0.00     0.027 A
HETATM    7  C6  UNL     1       7.270   7.963  23.290  1.00  0.00    -0.010 A
HETATM    8  C7  UNL     1       6.319   7.464  24.151  1.00  0.00     0.082 A
HETATM    9  N2  UNL     1       5.102   6.763  24.129  1.00  0.00    -0.295 N
HETATM   10  C13 UNL     1       7.296   7.866  21.763  1.00  0.00     0.068 C
HETATM   11  C14 UNL     1       8.587   8.382  21.262  1.00  0.00     0.173 C
HETATM   12  O3  UNL     1       9.053   9.549  21.809  1.00  0.00    -0.375 OA
HETATM   13  C15 UNL     1       9.462   9.250  23.121  1.00  0.00     0.087 C
HETATM   14  C16 UNL     1       9.826  10.580  23.753  1.00  0.00     0.051 C
HETATM   15  C17 UNL     1      10.693   8.388  23.119  1.00  0.00     0.051 C
ENDROOT
BRANCH   9  16
HETATM   16  C8  UNL     1       4.411   6.305  22.970  1.00  0.00     0.028 C
HETATM   17  C9  UNL     1       3.733   7.294  22.091  1.00  0.00     0.285 C
HETATM   18  N3  UNL     1       2.470   6.638  21.663  1.00  0.00    -0.065 N
HETATM   19  C10 UNL     1       2.685   5.241  21.427  1.00  0.00     0.311 C
ATOM     20  H32 UNL     1       1.715   6.798  22.329  1.00  0.00     0.277 HD
ATOM     21  H31 UNL     1       2.059   7.100  20.852  1.00  0.00     0.277 HD
HETATM   22  C11 UNL     1       4.094   4.852  21.073  1.00  0.00     0.272 C
HETATM   23  F1  UNL     1       4.088   3.457  20.963  1.00  0.00    -0.204 F
HETATM   24  F2  UNL     1       4.376   5.363  19.822  1.00  0.00    -0.204 F
HETATM   25  C12 UNL     1       5.120   5.290  22.110  1.00  0.00     0.135 C
ENDBRANCH   9  16
BRANCH   1  26
HETATM   26  C2  UNL     1       3.490   5.957  25.970  1.00  0.00     0.327 C
HETATM   27  O2  UNL     1       3.417   5.194  26.943  1.00  0.00    -0.256 OA
BRANCH  26  28
HETATM   28  O1  UNL     1       2.205   6.202  25.399  1.00  0.00    -0.320 OA
HETATM   29  C1  UNL     1       1.127   6.664  26.226  1.00  0.00     0.213 C
ENDBRANCH  26  28
ENDBRANCH   1  26
TORSDOF 3
ENDMDL