MODEL 1
REMARK VINA RESULT: -7.525348627      0.000      0.000
REMARK  2 active torsions:
REMARK  status: ('A' for Active; 'I' for Inactive)
REMARK    1  A    between atoms: N1_6  and  C4_7
REMARK    2  A    between atoms: C6_12  and  N3_13
ROOT
HETATM    1  C4  UNL     1       5.562   7.147  24.647  1.00  0.00     0.138 A
HETATM    2  N2  UNL     1       4.696   6.625  23.785  1.00  0.00    -0.310 N
ATOM      3  H2  UNL     1       4.814   6.493  22.781  1.00  0.00     0.176 HD
HETATM    4  S1  UNL     1       3.363   6.231  24.726  1.00  0.00    -0.007 SA
HETATM    5  C5  UNL     1       3.934   6.747  26.246  1.00  0.00     0.096 A
HETATM    6  C6  UNL     1       3.414   6.763  27.547  1.00  0.00     0.125 A
HETATM    7  N5  UNL     1       4.129   7.253  28.577  1.00  0.00    -0.337 N
ATOM      8  H5  UNL     1       3.774   7.275  29.533  1.00  0.00     0.168 HD
HETATM    9  C15 UNL     1       5.362   7.714  28.243  1.00  0.00     0.182 A
HETATM   10  N6  UNL     1       5.877   7.712  27.029  1.00  0.00    -0.348 N
ATOM     11  H6  UNL     1       6.816   8.084  26.888  1.00  0.00     0.167 HD
HETATM   12  C16 UNL     1       5.181   7.221  25.948  1.00  0.00     0.100 A
ENDROOT
BRANCH   6  13
HETATM   13  N3  UNL     1       2.107   6.234  27.686  1.00  0.00    -0.365 N
HETATM   14  C7  UNL     1       0.890   7.013  27.622  1.00  0.00     0.125 C
HETATM   15  C8  UNL     1       0.005   6.242  28.607  1.00  0.00     0.031 C
HETATM   16  C9  UNL     1       0.292   4.818  28.224  1.00  0.00    -0.020 C
HETATM   17  C10 UNL     1      -0.540   4.349  27.073  1.00  0.00     0.030 C
HETATM   18  C13 UNL     1      -0.017   3.903  29.405  1.00  0.00     0.030 C
HETATM   19  C14 UNL     1       1.765   4.844  27.911  1.00  0.00     0.134 C
HETATM   20  C11 UNL     1      -1.988   4.420  27.404  1.00  0.00     0.114 C
HETATM   21  N4  UNL     1      -2.348   3.798  28.641  1.00  0.00    -0.421 N
HETATM   22  C12 UNL     1      -1.461   4.058  29.729  1.00  0.00     0.114 C
ATOM     23  H4  UNL     1      -3.177   3.212  28.738  1.00  0.00     0.153 HD
ENDBRANCH   6  13
BRANCH   1  24
HETATM   24  N1  UNL     1       6.845   7.603  24.162  1.00  0.00    -0.365 N
HETATM   25  C3  UNL     1       7.814   8.057  25.096  1.00  0.00     0.130 C
HETATM   26  C2  UNL     1       8.793   9.056  24.540  1.00  0.00     0.099 C
HETATM   27  C1  UNL     1       9.293   8.567  23.202  1.00  0.00     0.246 C
HETATM   28  F1  UNL     1      10.236   9.420  22.703  1.00  0.00    -0.206 F
HETATM   29  F2  UNL     1       9.729   7.278  23.327  1.00  0.00    -0.206 F
HETATM   30  C18 UNL     1       8.085   8.561  22.264  1.00  0.00     0.099 C
HETATM   31  C17 UNL     1       7.070   7.571  22.749  1.00  0.00     0.130 C
ENDBRANCH   1  24
TORSDOF 2
ENDMDL