MODEL 4
REMARK VINA RESULT: -7.521611967      2.967      6.523
REMARK  5 active torsions:
REMARK  status: ('A' for Active; 'I' for Inactive)
REMARK    1  A    between atoms: C2_2  and  O1_3
REMARK    2  A    between atoms: O1_3  and  C3_4
REMARK    3  A    between atoms: C3_4  and  C4_6
REMARK    4  A    between atoms: C5_7  and  O3_8
REMARK    5  A    between atoms: O3_8  and  C6_9
REMARK       I    between atoms: C6_9  and  N1_11
ROOT
HETATM    1  C4  UNL     1       5.887   3.422  21.071  1.00  0.00     0.123 A
HETATM    2  C5  UNL     1       7.076   4.082  21.164  1.00  0.00     0.178 A
HETATM    3  N2  UNL     1       8.178   3.348  21.106  1.00  0.00    -0.304 N
ATOM      4  H2  UNL     1       9.143   3.674  21.161  1.00  0.00     0.176 HD
HETATM    5  S1  UNL     1       7.646   1.772  20.926  1.00  0.00     0.004 SA
HETATM    6  C13 UNL     1       5.973   2.060  20.925  1.00  0.00     0.124 A
HETATM    7  N3  UNL     1       4.861   1.142  20.804  1.00  0.00    -0.092 NA
ENDROOT
BRANCH   2   8
HETATM    8  O3  UNL     1       7.196   5.501  21.321  1.00  0.00    -0.242 OA
BRANCH   8   9
HETATM    9  C6  UNL     1       8.285   6.035  21.985  1.00  0.00     0.371 C
HETATM   10  O4  UNL     1       9.393   5.478  21.803  1.00  0.00    -0.238 OA
HETATM   11  N1  UNL     1       8.214   7.154  22.841  1.00  0.00    -0.291 N
HETATM   12  C7  UNL     1       9.341   7.726  23.544  1.00  0.00     0.140 C
HETATM   13  C12 UNL     1       7.034   7.939  23.181  1.00  0.00     0.193 C
HETATM   14  C8  UNL     1       8.999   9.184  23.746  1.00  0.00    -0.027 C
HETATM   15  C9  UNL     1       9.472   9.942  22.513  1.00  0.00     0.016 C
HETATM   16  C10 UNL     1       9.716   9.704  24.950  1.00  0.00     0.016 C
HETATM   17  C11 UNL     1       7.513   9.174  23.866  1.00  0.00     0.076 C
HETATM   18 CL1  UNL     1       6.127   8.396  21.722  1.00  0.00    -0.078 Cl
HETATM   19 CL2  UNL     1       6.017   6.998  24.295  1.00  0.00    -0.078 Cl
ENDBRANCH   8   9
ENDBRANCH   2   8
BRANCH   1  20
HETATM   20  C3  UNL     1       4.564   4.124  21.121  1.00  0.00     0.300 C
HETATM   21  O2  UNL     1       3.776   4.115  20.144  1.00  0.00    -0.259 OA
BRANCH  20  22
HETATM   22  O1  UNL     1       4.165   4.808  22.247  1.00  0.00    -0.318 OA
BRANCH  22  23
HETATM   23  C2  UNL     1       3.431   6.016  22.207  1.00  0.00     0.174 C
HETATM   24  C1  UNL     1       2.082   5.899  22.843  1.00  0.00     0.034 C
ENDBRANCH  22  23
ENDBRANCH  20  22
ENDBRANCH   1  20
TORSDOF 5
ENDMDL