MODEL 4
REMARK VINA RESULT: -7.092543770      1.143      1.266
REMARK  3 active torsions:
REMARK  status: ('A' for Active; 'I' for Inactive)
REMARK    1  A    between atoms: N1_1  and  N2_4
REMARK    2  A    between atoms: N3_12  and  C5_13
REMARK    3  A    between atoms: N4_20  and  C11_21
ROOT
HETATM    1  N2  UNL     1       2.154   6.397  25.771  1.00  0.00    -0.174 N
HETATM    2  C1  UNL     1       2.981   6.845  26.714  1.00  0.00     0.287 A
HETATM    3  O1  UNL     1       2.585   7.066  27.883  1.00  0.00    -0.265 OA
HETATM    4  C2  UNL     1       4.315   7.080  26.411  1.00  0.00     0.122 A
HETATM    5  C3  UNL     1       5.355   7.554  27.166  1.00  0.00     0.192 A
HETATM    6  F1  UNL     1       5.292   7.897  28.473  1.00  0.00    -0.200 F
HETATM    7  C4  UNL     1       6.429   7.605  26.347  1.00  0.00     0.234 A
HETATM    8  F2  UNL     1       7.678   8.023  26.697  1.00  0.00    -0.182 F
HETATM    9  N3  UNL     1       6.112   7.176  25.085  1.00  0.00    -0.278 N
HETATM   10  C10 UNL     1       4.824   6.855  25.132  1.00  0.00     0.137 A
HETATM   11  N4  UNL     1       3.907   6.384  24.201  1.00  0.00    -0.278 N
HETATM   12  C18 UNL     1       2.624   6.170  24.517  1.00  0.00     0.352 A
HETATM   13  O3  UNL     1       1.803   5.756  23.673  1.00  0.00    -0.244 OA
ENDROOT
BRANCH  11  14
HETATM   14  C11 UNL     1       4.425   6.092  22.902  1.00  0.00     0.096 C
HETATM   15  C12 UNL     1       3.665   6.529  21.723  1.00  0.00     0.026 C
HETATM   16  C13 UNL     1       3.200   5.544  20.695  1.00  0.00     0.002 C
HETATM   17  C14 UNL     1       4.304   4.910  19.907  1.00  0.00     0.000 C
HETATM   18  C15 UNL     1       4.951   3.722  20.515  1.00  0.00     0.000 C
HETATM   19  C16 UNL     1       5.634   4.203  21.777  1.00  0.00     0.002 C
HETATM   20  C17 UNL     1       4.470   4.559  22.750  1.00  0.00     0.026 C
ENDBRANCH  11  14
BRANCH   9  21
HETATM   21  C5  UNL     1       7.047   7.184  24.034  1.00  0.00     0.231 C
HETATM   22  C6  UNL     1       6.512   8.196  22.968  1.00  0.00     0.054 C
HETATM   23  C7  UNL     1       7.576   9.040  22.382  1.00  0.00     0.006 C
HETATM   24  C8  UNL     1       8.931   8.416  22.312  1.00  0.00     0.026 C
HETATM   25  C9  UNL     1       9.217   7.792  23.649  1.00  0.00     0.170 C
HETATM   26  O2  UNL     1       8.160   7.969  24.534  1.00  0.00    -0.366 OA
ENDBRANCH   9  21
BRANCH   1  27
HETATM   27  N1  UNL     1       0.811   6.147  26.015  1.00  0.00    -0.332 N
ATOM     28  H12 UNL     1       0.184   6.948  26.091  1.00  0.00     0.177 HD
ATOM     29  H11 UNL     1       0.439   5.203  26.118  1.00  0.00     0.177 HD
ENDBRANCH   1  27
TORSDOF 3
ENDMDL