MODEL 2
REMARK VINA RESULT: -7.463725987      2.861      6.600
REMARK  2 active torsions:
REMARK  status: ('A' for Active; 'I' for Inactive)
REMARK    1  A    between atoms: C9_12  and  C10_13
REMARK    2  A    between atoms: C13_20  and  C14_21
ROOT
HETATM    1  N1  UNL     1      -1.909   4.532  24.249  1.00  0.00    -0.197 NA
HETATM    2  C1  UNL     1      -1.360   4.405  23.235  1.00  0.00     0.071 C
HETATM    3  C2  UNL     1      -0.678   4.234  21.934  1.00  0.00     0.181 C
HETATM    4  C3  UNL     1      -1.663   3.683  20.963  1.00  0.00     0.261 C
HETATM    5  F1  UNL     1      -1.133   2.965  19.921  1.00  0.00    -0.205 F
HETATM    6  F2  UNL     1      -2.370   2.711  21.709  1.00  0.00    -0.205 F
HETATM    7  C4  UNL     1      -2.631   4.723  20.568  1.00  0.00     0.087 C
HETATM    8  C5  UNL     1      -2.306   5.680  19.512  1.00  0.00     0.020 A
HETATM    9  C6  UNL     1      -1.083   6.110  18.917  1.00  0.00     0.014 A
HETATM   10  C7  UNL     1       0.289   5.594  19.004  1.00  0.00     0.008 C
HETATM   11  C8  UNL     1       0.838   5.192  20.309  1.00  0.00     0.019 C
HETATM   12  C9  UNL     1       0.017   5.496  21.519  1.00  0.00     0.043 C
HETATM   13  C18 UNL     1      -0.901   6.668  21.361  1.00  0.00     0.044 C
HETATM   14  C19 UNL     1      -1.583   6.854  20.082  1.00  0.00     0.058 A
HETATM   15  C20 UNL     1      -2.133   8.221  19.896  1.00  0.00     0.070 C
HETATM   16  N6  UNL     1      -2.580   9.278  19.745  1.00  0.00    -0.196 NA
ENDROOT
BRANCH  12  17
HETATM   17  C10 UNL     1       0.910   5.834  22.675  1.00  0.00     0.131 A
HETATM   18  N2  UNL     1       0.805   6.159  23.907  1.00  0.00    -0.178 N
HETATM   19  C11 UNL     1       2.201   6.260  24.124  1.00  0.00     0.691 A
ATOM     20  H2  UNL     1       0.000   6.297  24.518  1.00  0.00     0.185 HD
HETATM   21  N3  UNL     1       3.446   6.424  24.595  1.00  0.00    -0.199 N
HETATM   22  N5  UNL     1       2.333   5.917  22.827  1.00  0.00    -0.137 N
HETATM   23  C12 UNL     1       4.341   6.191  23.620  1.00  0.00     0.132 A
ATOM     24  H3  UNL     1       3.679   6.687  25.552  1.00  0.00     0.183 HD
HETATM   25  C13 UNL     1       3.619   5.866  22.486  1.00  0.00     0.057 A
BRANCH  25  26
HETATM   26  C14 UNL     1       4.182   5.527  21.149  1.00  0.00     0.065 C
HETATM   27  C15 UNL     1       4.127   4.041  20.887  1.00  0.00     0.040 C
HETATM   28  C16 UNL     1       5.471   3.535  21.275  1.00  0.00     0.233 C
HETATM   29  N4  UNL     1       6.374   4.639  21.286  1.00  0.00    -0.074 N
HETATM   30  C17 UNL     1       5.636   5.839  21.057  1.00  0.00     0.243 C
ATOM     31  H42 UNL     1       6.928   4.681  22.141  1.00  0.00     0.277 HD
ATOM     32  H41 UNL     1       7.141   4.522  20.625  1.00  0.00     0.277 HD
ENDBRANCH  25  26
ENDBRANCH  12  17
TORSDOF 2
ENDMDL