MODEL 3
REMARK VINA RESULT: -5.266852953      5.397      7.471
REMARK  3 active torsions:
REMARK  status: ('A' for Active; 'I' for Inactive)
REMARK    1  A    between atoms: C9_11  and  N2_12
REMARK    2  A    between atoms: C14_23  and  O2_24
REMARK    3  A    between atoms: O2_24  and  C15_25
ROOT
HETATM    1  C1  UNL     1       3.551   6.224  24.084  1.00  0.00     0.048 C
HETATM    2  C2  UNL     1       3.357   6.592  25.537  1.00  0.00    -0.027 C
HETATM    3  C3  UNL     1       2.181   6.467  26.106  1.00  0.00     0.061 C
HETATM    4  C4  UNL     1       1.094   5.965  25.280  1.00  0.00     0.098 C
HETATM    5  N1  UNL     1       0.223   5.555  24.637  1.00  0.00    -0.192 NA
HETATM    6  C5  UNL     1       1.859   6.790  27.531  1.00  0.00     0.119 C
HETATM    7  C6  UNL     1       1.504   8.217  27.669  1.00  0.00     0.059 C
HETATM    8  C7  UNL     1       0.724   8.596  28.885  1.00  0.00     0.054 C
HETATM    9  C8  UNL     1       0.368  10.060  28.812  1.00  0.00     0.022 C
HETATM   10  S1  UNL     1      -0.783   7.570  28.874  1.00  0.00    -0.090 SA
HETATM   11  C9  UNL     1      -0.199   5.923  28.527  1.00  0.00     0.139 C
HETATM   12  N3  UNL     1       0.927   5.818  27.962  1.00  0.00    -0.351 N
ATOM     13  H3  UNL     1       1.218   4.856  27.786  1.00  0.00     0.163 HD
HETATM   14  C12 UNL     1       3.111   6.566  28.334  1.00  0.00     0.119 C
HETATM   15  N4  UNL     1       3.022   6.431  29.603  1.00  0.00    -0.222 N
ATOM     16  H4  UNL     1       2.115   6.475  30.067  1.00  0.00     0.199 HD
HETATM   17  F1  UNL     1       4.146   6.231  30.315  1.00  0.00    -0.101 F
HETATM   18  C13 UNL     1       4.408   6.501  27.679  1.00  0.00     0.210 C
HETATM   19  O1  UNL     1       5.389   5.962  28.229  1.00  0.00    -0.288 OA
HETATM   20  C14 UNL     1       4.502   7.105  26.333  1.00  0.00     0.239 C
ENDROOT
BRANCH  20  21
HETATM   21  O2  UNL     1       5.738   6.839  25.710  1.00  0.00    -0.288 OA
BRANCH  21  22
HETATM   22  C15 UNL     1       6.754   7.780  25.730  1.00  0.00     0.373 C
HETATM   23  N5  UNL     1       7.461   8.160  24.565  1.00  0.00    -0.032 NA
HETATM   24  O3  UNL     1       7.081   8.336  26.811  1.00  0.00    -0.242 OA
ENDBRANCH  21  22
ENDBRANCH  20  21
BRANCH  11  25
HETATM   25  N2  UNL     1      -1.003   4.801  28.888  1.00  0.00    -0.371 N
HETATM   26  C10 UNL     1      -1.019   3.647  28.031  1.00  0.00     0.151 C
HETATM   27  C11 UNL     1      -1.778   4.842  30.093  1.00  0.00     0.151 C
ENDBRANCH  11  25
TORSDOF 3
ENDMDL