MODEL 4
REMARK VINA RESULT: -7.376370681      5.146      6.892
REMARK  4 active torsions:
REMARK  status: ('A' for Active; 'I' for Inactive)
REMARK    1  A    between atoms: N1_7  and  C5_8
REMARK    2  A    between atoms: C7_10  and  N2_11
REMARK       I    between atoms: N2_11  and  C8_13
REMARK    3  A    between atoms: C8_13  and  O4_15
REMARK    4  A    between atoms: O4_15  and  C9_16
ROOT
HETATM    1  C5  UNL     1       5.990   7.365  24.837  1.00  0.00     0.121 A
HETATM    2  C6  UNL     1       5.480   7.015  26.057  1.00  0.00     0.097 A
HETATM    3  C7  UNL     1       6.112   7.329  27.264  1.00  0.00     0.113 A
HETATM    4  N3  UNL     1       7.269   8.006  27.147  1.00  0.00    -0.338 N
ATOM      5  H3  UNL     1       7.773   8.261  27.996  1.00  0.00     0.168 HD
HETATM    6  C12 UNL     1       7.794   8.364  25.945  1.00  0.00     0.183 A
HETATM    7  N4  UNL     1       7.157   8.043  24.813  1.00  0.00    -0.338 N
ATOM      8  H4  UNL     1       7.559   8.317  23.917  1.00  0.00     0.168 HD
ENDROOT
BRANCH   1   9
HETATM    9  N1  UNL     1       5.309   7.025  23.614  1.00  0.00    -0.211 N
HETATM   10  C4  UNL     1       5.562   7.639  22.358  1.00  0.00     0.374 C
HETATM   11  O1  UNL     1       4.503   7.271  21.540  1.00  0.00    -0.285 OA
HETATM   12  O2  UNL     1       6.526   8.376  21.992  1.00  0.00    -0.238 OA
HETATM   13  C2  UNL     1       4.090   5.984  21.955  1.00  0.00     0.151 C
HETATM   14  C1  UNL     1       2.642   5.719  21.620  1.00  0.00     0.055 C
HETATM   15  C3  UNL     1       4.966   4.920  21.337  1.00  0.00     0.055 C
HETATM   16  C13 UNL     1       4.281   6.042  23.454  1.00  0.00     0.364 C
HETATM   17  F1  UNL     1       3.142   6.526  24.079  1.00  0.00    -0.178 F
HETATM   18  F2  UNL     1       4.609   4.808  23.981  1.00  0.00    -0.178 F
ENDBRANCH   1   9
BRANCH   3  19
HETATM   19  N2  UNL     1       5.556   6.956  28.327  1.00  0.00    -0.288 N
HETATM   20  C8  UNL     1       4.264   7.067  28.800  1.00  0.00     0.366 C
HETATM   21  O3  UNL     1       4.084   6.736  30.029  1.00  0.00    -0.238 OA
ATOM     22  H2  UNL     1       6.186   6.475  28.969  1.00  0.00     0.172 HD
BRANCH  20  23
HETATM   23  O4  UNL     1       3.138   7.489  28.113  1.00  0.00    -0.297 OA
BRANCH  23  24
HETATM   24  C9  UNL     1       2.318   6.565  27.467  1.00  0.00     0.153 C
HETATM   25  C10 UNL     1       1.251   7.196  26.602  1.00  0.00     0.119 C
HETATM   26  S1  UNL     1       0.191   8.131  27.786  1.00  0.00    -0.095 SA
HETATM   27  S2  UNL     1       0.525   6.763  29.429  1.00  0.00    -0.095 SA
HETATM   28  C11 UNL     1       1.636   5.652  28.461  1.00  0.00     0.119 C
ENDBRANCH  23  24
ENDBRANCH  20  23
ENDBRANCH   3  19
TORSDOF 4
ENDMDL