MODEL 3
REMARK VINA RESULT: -7.934867962      3.580      8.614
REMARK  6 active torsions:
REMARK  status: ('A' for Active; 'I' for Inactive)
REMARK    1  A    between atoms: C2_2  and  C4_4
REMARK       I    between atoms: C4_4  and  N1_6
REMARK    2  A    between atoms: N1_6  and  C5_8
REMARK    3  A    between atoms: C5_8  and  C6_9
REMARK    4  A    between atoms: C9_17  and  N4_18
REMARK    5  A    between atoms: C12_21  and  C13_22
REMARK    6  A    between atoms: C16_27  and  C17_28
ROOT
HETATM    1  N4  UNL     1      11.167   7.899   1.974  1.00  0.00    -0.366 N
HETATM    2  C10 UNL     1      10.765   9.144   1.347  1.00  0.00     0.125 C
HETATM    3  C11 UNL     1       9.284   9.245   1.405  1.00  0.00     0.030 C
HETATM    4  C12 UNL     1       8.487   8.016   1.223  1.00  0.00     0.040 C
HETATM    5  C21 UNL     1       9.178   6.705   1.343  1.00  0.00     0.030 C
HETATM    6  C22 UNL     1      10.653   6.725   1.263  1.00  0.00     0.125 C
ENDROOT
BRANCH   1   7
HETATM    7  C9  UNL     1      11.965   7.778   3.127  1.00  0.00     0.128 A
HETATM    8  C6  UNL     1      13.331   7.812   3.032  1.00  0.00     0.072 A
HETATM    9  N2  UNL     1      14.101   7.704   4.160  1.00  0.00    -0.345 N
HETATM   10  C7  UNL     1      13.512   7.564   5.356  1.00  0.00     0.119 A
ATOM     11  H2  UNL     1      15.118   7.729   4.090  1.00  0.00     0.167 HD
HETATM   12 CL1  UNL     1      14.528   7.426   6.783  1.00  0.00    -0.063 Cl
HETATM   13  C8  UNL     1      12.139   7.527   5.479  1.00  0.00     0.132 A
HETATM   14  N3  UNL     1      11.402   7.634   4.364  1.00  0.00    -0.348 N
ATOM     15  H3  UNL     1      10.385   7.606   4.442  1.00  0.00     0.167 HD
BRANCH   8  16
HETATM   16  C5  UNL     1      13.987   7.949   1.718  1.00  0.00     0.183 C
BRANCH  16  17
HETATM   17  N1  UNL     1      14.057   6.625   1.105  1.00  0.00    -0.351 N
HETATM   18  C4  UNL     1      14.005   6.439  -0.294  1.00  0.00     0.246 C
HETATM   19  O1  UNL     1      13.896   7.416  -1.071  1.00  0.00    -0.268 OA
ATOM     20  H1  UNL     1      14.147   5.808   1.708  1.00  0.00     0.163 HD
BRANCH  18  21
HETATM   21  C2  UNL     1      14.081   5.084  -0.821  1.00  0.00    -0.004 C
HETATM   22  C1  UNL     1      15.232   4.607  -1.210  1.00  0.00     0.024 C
HETATM   23  C3  UNL     1      12.841   4.234  -0.918  1.00  0.00     0.053 C
ENDBRANCH  18  21
ENDBRANCH  16  17
ENDBRANCH   8  16
ENDBRANCH   1   7
BRANCH   4  24
HETATM   24  C13 UNL     1       7.631   8.056  -0.018  1.00  0.00     0.029 A
HETATM   25  C14 UNL     1       8.024   7.463  -1.195  1.00  0.00     0.113 A
HETATM   26  N5  UNL     1       7.250   7.497  -2.308  1.00  0.00    -0.371 N
HETATM   27  C15 UNL     1       6.064   8.126  -2.271  1.00  0.00     0.113 A
ATOM     28  H5  UNL     1       7.565   7.048  -3.167  1.00  0.00     0.164 HD
HETATM   29  C16 UNL     1       5.629   8.734  -1.110  1.00  0.00     0.032 A
HETATM   30  N6  UNL     1       6.437   8.670  -0.038  1.00  0.00    -0.360 N
ATOM     31  H6  UNL     1       6.121   9.119   0.822  1.00  0.00     0.165 HD
BRANCH  29  32
HETATM   32  C17 UNL     1       4.305   9.422  -1.100  1.00  0.00    -0.007 C
HETATM   33  C18 UNL     1       3.231   8.510  -0.558  1.00  0.00     0.021 C
HETATM   34  C19 UNL     1       4.335  10.648  -0.218  1.00  0.00     0.021 C
HETATM   35  C20 UNL     1       3.874   9.793  -2.520  1.00  0.00     0.021 C
ENDBRANCH  29  32
ENDBRANCH   4  24
TORSDOF 6
ENDMDL