MODEL 3
REMARK VINA RESULT: -7.444387768      1.812      2.898
REMARK  7 active torsions:
REMARK  status: ('A' for Active; 'I' for Inactive)
REMARK       I    between atoms: C1_2  and  N1_3
REMARK    1  A    between atoms: C1_2  and  C16_26
REMARK    2  A    between atoms: N1_3  and  C2_5
REMARK    3  A    between atoms: C4_8  and  O2_9
REMARK    4  A    between atoms: N2_11  and  C5_12
REMARK    5  A    between atoms: C5_12  and  C6_13
REMARK    6  A    between atoms: C6_13  and  N3_14
REMARK    7  A    between atoms: C9_17  and  C10_18
ROOT
HETATM    1  C2  UNL     1      11.739   8.262   6.077  1.00  0.00     0.155 A
HETATM    2  S1  UNL     1      11.740   7.386   7.530  1.00  0.00    -0.061 SA
HETATM    3  C3  UNL     1      13.300   6.718   7.446  1.00  0.00     0.109 A
HETATM    4  C4  UNL     1      13.758   7.221   6.260  1.00  0.00     0.150 A
HETATM    5  N2  UNL     1      12.972   7.997   5.572  1.00  0.00    -0.306 N
ENDROOT
BRANCH   5   6
HETATM    6  C5  UNL     1      13.370   8.609   4.264  1.00  0.00     0.163 C
BRANCH   6   7
HETATM    7  C6  UNL     1      13.207   7.594   3.184  1.00  0.00     0.292 C
BRANCH   7   8
HETATM    8  N3  UNL     1      13.334   8.047   1.850  1.00  0.00     0.090 N
HETATM    9  C7  UNL     1      12.053   8.365   1.267  1.00  0.00     0.273 C
HETATM   10  C8  UNL     1      11.742   7.345   0.221  1.00  0.00     0.041 C
HETATM   11  C9  UNL     1      12.711   6.217   0.598  1.00  0.00     0.048 C
HETATM   12  C15 UNL     1      13.921   7.020   1.016  1.00  0.00     0.281 C
BRANCH  11  13
HETATM   13  C10 UNL     1      12.951   5.325  -0.550  1.00  0.00    -0.050 A
HETATM   14  C11 UNL     1      11.860   5.006  -1.336  1.00  0.00     0.024 A
HETATM   15  C12 UNL     1      12.024   4.184  -2.415  1.00  0.00     0.088 A
HETATM   16  N4  UNL     1      13.222   3.683  -2.722  1.00  0.00    -0.375 N
HETATM   17  C13 UNL     1      14.307   3.983  -1.963  1.00  0.00     0.088 A
ATOM     18  H4  UNL     1      13.324   3.069  -3.532  1.00  0.00     0.164 HD
HETATM   19  C14 UNL     1      14.178   4.804  -0.876  1.00  0.00     0.024 A
ENDBRANCH  11  13
ENDBRANCH   7   8
ENDBRANCH   6   7
ENDBRANCH   5   6
BRANCH   1  20
HETATM   20  N1  UNL     1      10.839   9.012   5.481  1.00  0.00    -0.303 N
HETATM   21  C1  UNL     1       9.916   8.416   4.611  1.00  0.00     0.259 C
HETATM   22  O1  UNL     1       9.736   8.977   3.478  1.00  0.00    -0.267 OA
ATOM     23  H1  UNL     1      10.813  10.018   5.649  1.00  0.00     0.171 HD
BRANCH  21  24
HETATM   24  C16 UNL     1       9.202   7.217   4.996  1.00  0.00     0.054 A
HETATM   25  C17 UNL     1       9.531   5.936   4.668  1.00  0.00     0.019 A
HETATM   26  C18 UNL     1       8.814   4.835   5.085  1.00  0.00     0.001 A
HETATM   27  C19 UNL     1       7.705   5.049   5.876  1.00  0.00     0.002 A
HETATM   28  C20 UNL     1       7.333   6.352   6.233  1.00  0.00     0.025 A
HETATM   29  C21 UNL     1       8.076   7.428   5.797  1.00  0.00     0.049 A
HETATM   30 CL1  UNL     1       7.586   9.056   6.255  1.00  0.00    -0.083 Cl
ENDBRANCH  21  24
ENDBRANCH   1  20
BRANCH   4  31
HETATM   31  O2  UNL     1      15.083   6.862   5.840  1.00  0.00    -0.346 OA
ATOM     32  H2  UNL     1      15.809   7.393   6.147  1.00  0.00     0.219 HD
ENDBRANCH   4  31
TORSDOF 7
ENDMDL