MODEL 3
REMARK VINA RESULT: -8.056787985      3.352      5.437
REMARK  5 active torsions:
REMARK  status: ('A' for Active; 'I' for Inactive)
REMARK    1  A    between atoms: N1_4  and  C4_5
REMARK    2  A    between atoms: N3_14  and  C11_15
REMARK    3  A    between atoms: C11_15  and  C12_16
REMARK    4  A    between atoms: C13_17  and  C14_18
REMARK    5  A    between atoms: C23_30  and  O1_31
ROOT
HETATM    1  C12 UNL     1      11.167   7.684   2.734  1.00  0.00     0.025 A
HETATM    2  C13 UNL     1      11.634   8.293   3.907  1.00  0.00     0.004 A
HETATM    3  C20 UNL     1      10.552   8.929   4.446  1.00  0.00     0.105 A
HETATM    4  N4  UNL     1       9.465   8.758   3.698  1.00  0.00    -0.347 N
HETATM    5  C21 UNL     1       9.834   7.991   2.641  1.00  0.00     0.084 A
HETATM    6  S1  UNL     1       8.492   7.590   1.507  1.00  0.00    -0.109 SA
HETATM    7  C22 UNL     1       7.372   8.999   1.391  1.00  0.00     0.114 C
HETATM    8  C23 UNL     1       7.727   9.953   2.523  1.00  0.00     0.146 C
HETATM    9  C24 UNL     1       8.080   9.182   3.765  1.00  0.00     0.161 C
ENDROOT
BRANCH   1  10
HETATM   10  C11 UNL     1      11.970   6.839   1.875  1.00  0.00     0.101 C
BRANCH  10  11
HETATM   11  N3  UNL     1      12.487   7.267   0.665  1.00  0.00    -0.382 N
HETATM   12  C2  UNL     1      13.824   6.923   0.307  1.00  0.00     0.097 C
HETATM   13  C1  UNL     1      14.415   7.670  -0.837  1.00  0.00     0.034 C
HETATM   14  C3  UNL     1      13.757   5.444  -0.145  1.00  0.00     0.149 C
HETATM   15  N1  UNL     1      12.618   5.192  -0.997  1.00  0.00    -0.364 N
HETATM   16  C9  UNL     1      11.330   5.829  -0.799  1.00  0.00     0.144 C
HETATM   17  C10 UNL     1      11.581   7.280  -0.458  1.00  0.00     0.142 C
BRANCH  15  18
HETATM   18  C4  UNL     1      12.743   4.269  -2.073  1.00  0.00     0.102 A
HETATM   19  C5  UNL     1      13.886   3.516  -2.297  1.00  0.00     0.048 A
HETATM   20  C6  UNL     1      13.912   2.661  -3.374  1.00  0.00     0.005 A
HETATM   21  C7  UNL     1      12.818   2.568  -4.200  1.00  0.00     0.017 A
HETATM   22  C8  UNL     1      11.680   3.326  -3.965  1.00  0.00     0.089 A
HETATM   23  N2  UNL     1      11.685   4.145  -2.915  1.00  0.00    -0.352 N
ATOM     24  H2  UNL     1      10.853   4.707  -2.734  1.00  0.00     0.166 HD
ENDBRANCH  15  18
ENDBRANCH  10  11
ENDBRANCH   1  10
BRANCH   2  25
HETATM   25  C14 UNL     1      12.974   8.316   4.498  1.00  0.00    -0.024 A
HETATM   26  C15 UNL     1      13.252   7.495   5.587  1.00  0.00     0.015 A
HETATM   27  C16 UNL     1      14.487   7.509   6.173  1.00  0.00     0.043 A
HETATM   28  C17 UNL     1      15.505   8.328   5.718  1.00  0.00     0.116 A
HETATM   29  F1  UNL     1      16.701   8.304   6.329  1.00  0.00    -0.206 F
HETATM   30  C18 UNL     1      15.198   9.128   4.638  1.00  0.00     0.043 A
HETATM   31  C19 UNL     1      13.966   9.133   4.032  1.00  0.00     0.015 A
ENDBRANCH   2  25
BRANCH   8  32
HETATM   32  O1  UNL     1       6.607  10.736   2.792  1.00  0.00    -0.393 OA
ATOM     33  H1  UNL     1       6.826  11.325   3.504  1.00  0.00     0.210 HD
ENDBRANCH   8  32
TORSDOF 5
ENDMDL