MODEL 3
REMARK VINA RESULT: -9.812885591      0.857      1.134
REMARK  5 active torsions:
REMARK  status: ('A' for Active; 'I' for Inactive)
REMARK    1  A    between atoms: C4_5  and  C5_6
REMARK    2  A    between atoms: C9_10  and  N1_11
REMARK    3  A    between atoms: N2_14  and  C12_15
REMARK    4  A    between atoms: C14_25  and  C15_26
REMARK    5  A    between atoms: C15_26  and  C16_27
ROOT
HETATM    1  N1  UNL     1      12.003   8.574   3.405  1.00  0.00    -0.359 N
HETATM    2  C10 UNL     1      12.738   9.799   3.307  1.00  0.00     0.145 C
HETATM    3  C11 UNL     1      13.515  10.125   4.556  1.00  0.00     0.161 C
HETATM    4  N2  UNL     1      14.010   8.874   5.078  1.00  0.00    -0.212 N
HETATM    5  C13 UNL     1      13.036   7.904   5.530  1.00  0.00     0.167 C
HETATM    6  C14 UNL     1      11.854   7.798   4.631  1.00  0.00     0.108 C
ENDROOT
BRANCH   1   7
HETATM    7  C9  UNL     1      11.369   8.069   2.232  1.00  0.00     0.104 A
HETATM    8  C8  UNL     1      10.101   8.487   1.890  1.00  0.00     0.048 A
HETATM    9  C7  UNL     1       9.480   8.014   0.767  1.00  0.00     0.006 A
HETATM   10  C6  UNL     1      10.166   7.099  -0.023  1.00  0.00     0.030 A
HETATM   11  C5  UNL     1      11.431   6.673   0.304  1.00  0.00     0.043 A
HETATM   12  N7  UNL     1      11.971   7.184   1.423  1.00  0.00    -0.342 N
ATOM     13  H7  UNL     1      12.909   6.876   1.678  1.00  0.00     0.167 HD
BRANCH  11  14
HETATM   14  C4  UNL     1      12.168   5.708  -0.521  1.00  0.00    -0.009 A
HETATM   15  C3  UNL     1      11.517   5.011  -1.526  1.00  0.00     0.015 A
HETATM   16  C2  UNL     1      12.175   4.107  -2.308  1.00  0.00     0.024 A
HETATM   17  C1  UNL     1      13.525   3.836  -2.141  1.00  0.00     0.034 A
HETATM   18 CL1  UNL     1      14.386   2.681  -3.130  1.00  0.00    -0.084 Cl
HETATM   19  C23 UNL     1      14.167   4.517  -1.156  1.00  0.00     0.024 A
HETATM   20  C22 UNL     1      13.501   5.444  -0.353  1.00  0.00     0.015 A
ENDBRANCH  11  14
ENDBRANCH   1   7
BRANCH   6  21
HETATM   21  C15 UNL     1      10.535   8.150   5.199  1.00  0.00     0.065 C
BRANCH  21  22
HETATM   22  C16 UNL     1       9.596   7.044   5.457  1.00  0.00    -0.056 A
HETATM   23  C17 UNL     1       8.783   7.006   6.582  1.00  0.00     0.007 A
HETATM   24  C18 UNL     1       7.923   5.959   6.820  1.00  0.00     0.001 A
HETATM   25  C19 UNL     1       7.832   4.902   5.952  1.00  0.00     0.000 A
HETATM   26  C20 UNL     1       8.633   4.913   4.819  1.00  0.00     0.001 A
HETATM   27  C21 UNL     1       9.489   5.974   4.600  1.00  0.00     0.007 A
ENDBRANCH  21  22
ENDBRANCH   6  21
BRANCH   4  28
HETATM   28  C12 UNL     1      15.379   8.607   5.149  1.00  0.00     0.712 A
HETATM   29  N3  UNL     1      16.333   9.172   4.402  1.00  0.00    -0.115 N
HETATM   30  N4  UNL     1      17.492   8.680   4.745  1.00  0.00    -0.213 N
ATOM     31  H3  UNL     1      16.179   9.876   3.679  1.00  0.00     0.207 HD
HETATM   32  N5  UNL     1      17.332   7.805   5.699  1.00  0.00    -0.213 N
ATOM     33  H4  UNL     1      18.387   8.941   4.331  1.00  0.00     0.210 HD
HETATM   34  N6  UNL     1      16.041   7.745   5.962  1.00  0.00    -0.115 N
ATOM     35  H5  UNL     1      18.069   7.267   6.156  1.00  0.00     0.210 HD
ATOM     36  H6  UNL     1      15.609   7.146   6.665  1.00  0.00     0.207 HD
ENDBRANCH   4  28
TORSDOF 5
ENDMDL