MODEL 4
REMARK VINA RESULT: -8.413520068      4.189      7.552
REMARK  6 active torsions:
REMARK  status: ('A' for Active; 'I' for Inactive)
REMARK    1  A    between atoms: C1_2  and  C2_3
REMARK       I    between atoms: C1_2  and  N1_6
REMARK    2  A    between atoms: C2_3  and  O2_4
REMARK    3  A    between atoms: C5_9  and  C6_10
REMARK    4  A    between atoms: C7_13  and  C8_14
REMARK    5  A    between atoms: N4_19  and  C11_20
REMARK    6  A    between atoms: C14_23  and  C15_24
ROOT
HETATM    1  C6  UNL     1      10.927   7.377   2.471  1.00  0.00     0.106 A
HETATM    2  N2  UNL     1      10.295   7.933   3.545  1.00  0.00    -0.333 N
ATOM      3  H2  UNL     1       9.288   8.062   3.646  1.00  0.00     0.168 HD
HETATM    4  C7  UNL     1      11.222   8.281   4.443  1.00  0.00     0.101 A
HETATM    5  N3  UNL     1      12.391   7.934   3.906  1.00  0.00    -0.283 N
ATOM      6  H3  UNL     1      13.295   8.073   4.358  1.00  0.00     0.188 HD
HETATM    7  N4  UNL     1      12.228   7.380   2.701  1.00  0.00    -0.255 N
ENDROOT
BRANCH   7   8
HETATM    8  C11 UNL     1      13.241   6.886   1.825  1.00  0.00     0.207 C
HETATM    9  C12 UNL     1      13.883   7.901   0.956  1.00  0.00     0.055 C
HETATM   10  C13 UNL     1      14.516   6.983  -0.105  1.00  0.00     0.061 C
HETATM   11  C14 UNL     1      13.547   5.829  -0.102  1.00  0.00     0.017 C
HETATM   12  N5  UNL     1      12.862   5.811   0.983  1.00  0.00    -0.370 N
ATOM     13  H5  UNL     1      12.146   5.120   1.208  1.00  0.00     0.161 HD
BRANCH  11  14
HETATM   14  C15 UNL     1      13.461   4.887  -1.234  1.00  0.00    -0.014 A
HETATM   15  C16 UNL     1      12.274   4.650  -1.892  1.00  0.00     0.015 A
HETATM   16  C17 UNL     1      12.158   3.779  -2.952  1.00  0.00     0.024 A
HETATM   17  C18 UNL     1      13.287   3.106  -3.382  1.00  0.00     0.034 A
HETATM   18 CL1  UNL     1      13.166   1.980  -4.744  1.00  0.00    -0.084 Cl
HETATM   19  C19 UNL     1      14.496   3.314  -2.753  1.00  0.00     0.024 A
HETATM   20  C20 UNL     1      14.558   4.197  -1.696  1.00  0.00     0.015 A
ENDBRANCH  11  14
ENDBRANCH   7   8
BRANCH   1  21
HETATM   21  C5  UNL     1      10.142   6.896   1.314  1.00  0.00     0.058 C
HETATM   22  C4  UNL     1       8.665   7.086   1.579  1.00  0.00     0.032 C
HETATM   23  C3  UNL     1       7.983   7.960   0.574  1.00  0.00     0.126 C
HETATM   24  N1  UNL     1       8.267   7.543  -0.794  1.00  0.00    -0.350 N
HETATM   25  C1  UNL     1       7.315   7.574  -1.823  1.00  0.00     0.243 C
HETATM   26  C22 UNL     1       9.618   7.082  -1.046  1.00  0.00     0.126 C
HETATM   27  O1  UNL     1       7.641   7.196  -2.977  1.00  0.00    -0.271 OA
HETATM   28  C21 UNL     1      10.469   7.723   0.061  1.00  0.00     0.032 C
BRANCH  25  29
HETATM   29  C2  UNL     1       5.914   8.037  -1.626  1.00  0.00     0.267 C
BRANCH  29  30
HETATM   30  O2  UNL     1       4.999   7.101  -2.087  1.00  0.00    -0.392 OA
ATOM     31  H2  UNL     1       4.720   7.295  -2.974  1.00  0.00     0.210 HD
ENDBRANCH  29  30
ENDBRANCH  25  29
ENDBRANCH   1  21
BRANCH   4  32
HETATM   32  C8  UNL     1      11.002   8.927   5.780  1.00  0.00     0.055 A
HETATM   33  C9  UNL     1       9.651   8.817   6.373  1.00  0.00     0.013 A
HETATM   34  C10 UNL     1      10.778   8.077   6.975  1.00  0.00     0.013 A
ENDBRANCH   4  32
TORSDOF 6
ENDMDL