MODEL 2
REMARK VINA RESULT: -8.254511040      2.102      3.141
REMARK  5 active torsions:
REMARK  status: ('A' for Active; 'I' for Inactive)
REMARK       I    between atoms: C1_2  and  N1_3
REMARK    1  A    between atoms: C1_2  and  C11_18
REMARK    2  A    between atoms: N2_8  and  C5_9
REMARK    3  A    between atoms: C14_21  and  C15_22
REMARK    4  A    between atoms: C15_22  and  S1_23
REMARK    5  A    between atoms: S1_23  and  C16_24
ROOT
HETATM    1  C11 UNL     1      11.947   6.082  -0.981  1.00  0.00     0.101 A
HETATM    2  C12 UNL     1      13.275   6.025  -0.713  1.00  0.00     0.036 A
HETATM    3  C13 UNL     1      14.055   5.000  -1.240  1.00  0.00     0.012 A
HETATM    4  C14 UNL     1      13.463   4.047  -2.034  1.00  0.00    -0.033 A
HETATM    5  C20 UNL     1      12.088   4.139  -2.287  1.00  0.00     0.096 A
HETATM    6  N6  UNL     1      11.401   5.150  -1.749  1.00  0.00    -0.361 N
ATOM      7  H6  UNL     1      10.401   5.209  -1.940  1.00  0.00     0.165 HD
ENDROOT
BRANCH   1   8
HETATM    8  C1  UNL     1      11.107   7.155  -0.432  1.00  0.00     0.273 C
HETATM    9  O1  UNL     1      11.388   8.365  -0.638  1.00  0.00    -0.266 OA
HETATM   10  N1  UNL     1       9.946   6.879   0.351  1.00  0.00    -0.307 N
HETATM   11  C2  UNL     1      10.031   6.859   1.643  1.00  0.00     0.124 A
ATOM     12  H1  UNL     1       9.052   6.698  -0.105  1.00  0.00     0.170 HD
HETATM   13  C3  UNL     1       8.959   6.603   2.462  1.00  0.00     0.069 A
HETATM   14  N3  UNL     1      11.103   7.069   2.423  1.00  0.00    -0.279 N
HETATM   15  C4  UNL     1       9.474   6.676   3.749  1.00  0.00     0.120 A
HETATM   16  N2  UNL     1      10.786   6.962   3.696  1.00  0.00    -0.266 N
ATOM     17  H3  UNL     1      12.038   7.281   2.076  1.00  0.00     0.189 HD
BRANCH  16  18
HETATM   18  C5  UNL     1      11.683   7.123   4.814  1.00  0.00     0.056 A
HETATM   19  C6  UNL     1      12.874   7.787   4.684  1.00  0.00     0.033 A
HETATM   20  C7  UNL     1      13.721   7.926   5.789  1.00  0.00     0.026 A
HETATM   21  C8  UNL     1      13.368   7.400   7.014  1.00  0.00     0.034 A
HETATM   22 CL1  UNL     1      14.411   7.561   8.412  1.00  0.00    -0.084 Cl
HETATM   23  C9  UNL     1      12.170   6.726   7.164  1.00  0.00     0.026 A
HETATM   24  C10 UNL     1      11.363   6.609   6.056  1.00  0.00     0.033 A
ENDBRANCH  16  18
ENDBRANCH   1   8
BRANCH   4  25
HETATM   25  C15 UNL     1      14.160   2.926  -2.680  1.00  0.00     0.122 C
BRANCH  25  26
HETATM   26  S1  UNL     1      13.185   2.263  -4.025  1.00  0.00    -0.089 SA
BRANCH  26  27
HETATM   27  C16 UNL     1      13.260   3.206  -5.531  1.00  0.00     0.144 A
HETATM   28  N4  UNL     1      12.084   3.571  -6.127  1.00  0.00    -0.347 N
HETATM   29  C17 UNL     1      12.127   4.269  -7.256  1.00  0.00     0.091 A
ATOM     30  H4  UNL     1      11.190   3.310  -5.713  1.00  0.00     0.167 HD
HETATM   31  C18 UNL     1      13.317   4.651  -7.864  1.00  0.00     0.034 A
HETATM   32  C19 UNL     1      14.482   4.281  -7.259  1.00  0.00     0.091 A
HETATM   33  N5  UNL     1      14.391   3.578  -6.125  1.00  0.00    -0.347 N
ATOM     34  H5  UNL     1      15.265   3.303  -5.676  1.00  0.00     0.167 HD
ENDBRANCH  26  27
ENDBRANCH  25  26
ENDBRANCH   4  25
TORSDOF 5
ENDMDL