MODEL 4
REMARK VINA RESULT: -7.440551195      2.765      4.439
REMARK  6 active torsions:
REMARK  status: ('A' for Active; 'I' for Inactive)
REMARK    1  A    between atoms: N1_1  and  C1_5
REMARK    2  A    between atoms: C1_5  and  C2_6
REMARK    3  A    between atoms: N2_10  and  C6_11
REMARK    4  A    between atoms: C6_11  and  C7_12
REMARK    5  A    between atoms: N4_21  and  C13_22
REMARK    6  A    between atoms: C13_22  and  C14_23
ROOT
HETATM    1  C2  UNL     1      13.605   8.789   5.358  1.00  0.00     0.015 C
HETATM    2  C3  UNL     1      13.295  10.001   4.553  1.00  0.00     0.044 C
HETATM    3  C4  UNL     1      12.227   9.823   3.507  1.00  0.00     0.252 C
HETATM    4  C5  UNL     1      10.871  10.016   4.065  1.00  0.00     0.308 C
HETATM    5  N2  UNL     1      10.245   8.874   4.603  1.00  0.00     0.097 N
HETATM    6  C10 UNL     1      10.925   7.648   4.523  1.00  0.00     0.308 C
HETATM    7  C11 UNL     1      12.165   7.536   3.737  1.00  0.00     0.252 C
HETATM    8  C12 UNL     1      13.389   7.482   4.672  1.00  0.00     0.044 C
HETATM    9  N4  UNL     1      12.418   8.583   2.760  1.00  0.00     0.105 N
ENDROOT
BRANCH   9  10
HETATM   10  C13 UNL     1      11.424   8.511   1.740  1.00  0.00     0.314 C
BRANCH  10  11
HETATM   11  C14 UNL     1      11.658   7.413   0.800  1.00  0.00    -0.008 A
HETATM   12  C15 UNL     1      12.879   6.916   0.487  1.00  0.00     0.020 A
HETATM   13  C16 UNL     1      13.016   5.899  -0.448  1.00  0.00    -0.028 A
HETATM   14  C17 UNL     1      11.927   5.354  -1.095  1.00  0.00    -0.046 A
HETATM   15  C22 UNL     1      14.356   5.343  -0.800  1.00  0.00     0.206 C
HETATM   16  C18 UNL     1      10.694   5.855  -0.780  1.00  0.00     0.032 A
HETATM   17  C20 UNL     1      12.035   4.268  -2.099  1.00  0.00     0.065 C
HETATM   18  C19 UNL     1      10.552   6.858   0.141  1.00  0.00     0.042 A
HETATM   19 CL1  UNL     1       8.970   7.506   0.550  1.00  0.00    -0.084 Cl
HETATM   20  C21 UNL     1      13.504   3.979  -2.354  1.00  0.00     0.172 C
HETATM   21  O1  UNL     1      14.174   4.004  -1.124  1.00  0.00    -0.386 OA
ENDBRANCH  10  11
ENDBRANCH   9  10
BRANCH   1  22
HETATM   22  C1  UNL     1      15.099   8.849   5.712  1.00  0.00     0.234 C
BRANCH  22  23
HETATM   23  N1  UNL     1      15.565   7.488   5.919  1.00  0.00    -0.079 N
ATOM     24  H13 UNL     1      15.032   6.993   6.634  1.00  0.00     0.274 HD
ATOM     25  H12 UNL     1      15.348   6.872   5.136  1.00  0.00     0.274 HD
ATOM     26  H11 UNL     1      16.563   7.526   6.126  1.00  0.00     0.274 HD
ENDBRANCH  22  23
ENDBRANCH   1  22
BRANCH   5  27
HETATM   27  C6  UNL     1       9.869   9.125   5.975  1.00  0.00     0.320 C
BRANCH  27  28
HETATM   28  C7  UNL     1       8.891   8.114   6.494  1.00  0.00     0.027 A
HETATM   29  C8  UNL     1       9.011   7.293   7.588  1.00  0.00     0.104 A
HETATM   30  N3  UNL     1       8.028   6.486   7.846  1.00  0.00    -0.368 N
HETATM   31  C9  UNL     1       6.963   6.478   7.061  1.00  0.00     0.138 A
ATOM     32  H3  UNL     1       8.077   5.861   8.650  1.00  0.00     0.165 HD
HETATM   33  S1  UNL     1       7.355   7.665   5.899  1.00  0.00    -0.086 SA
ENDBRANCH  27  28
ENDBRANCH   5  27
TORSDOF 6
ENDMDL