MODEL 1
REMARK VINA RESULT: -8.511653180      0.000      0.000
REMARK  5 active torsions:
REMARK  status: ('A' for Active; 'I' for Inactive)
REMARK    1  A    between atoms: C3_4  and  N2_5
REMARK       I    between atoms: N2_5  and  C4_7
REMARK    2  A    between atoms: C4_7  and  C5_9
REMARK    3  A    between atoms: C5_9  and  N3_10
REMARK    4  A    between atoms: N4_13  and  C8_14
REMARK    5  A    between atoms: C8_14  and  C9_15
ROOT
HETATM    1  N1  UNL     1       9.628   5.833   5.974  1.00  0.00    -0.191 NA
HETATM    2  C1  UNL     1      10.657   6.375   5.823  1.00  0.00     0.103 C
HETATM    3  C2  UNL     1      11.941   7.060   5.617  1.00  0.00     0.085 A
HETATM    4  C3  UNL     1      12.187   7.659   4.411  1.00  0.00     0.098 A
HETATM    5  S1  UNL     1      13.745   8.312   4.611  1.00  0.00    -0.075 SA
HETATM    6  C17 UNL     1      14.047   7.811   6.213  1.00  0.00    -0.007 A
HETATM    7  C18 UNL     1      12.899   7.138   6.545  1.00  0.00    -0.021 A
HETATM    8  C19 UNL     1      12.732   6.510   7.917  1.00  0.00     0.041 C
HETATM    9  C20 UNL     1      12.887   7.527   9.008  1.00  0.00     0.005 C
HETATM   10  C21 UNL     1      14.350   7.822   9.294  1.00  0.00     0.001 C
HETATM   11  C22 UNL     1      14.919   8.775   8.294  1.00  0.00     0.005 C
HETATM   12  C23 UNL     1      15.303   8.077   7.011  1.00  0.00     0.047 C
ENDROOT
BRANCH   4  13
HETATM   13  N2  UNL     1      11.366   7.737   3.234  1.00  0.00    -0.319 N
HETATM   14  C4  UNL     1      11.446   8.888   2.410  1.00  0.00     0.251 C
HETATM   15  O1  UNL     1      12.216   9.832   2.700  1.00  0.00    -0.271 OA
ATOM     16  H2  UNL     1      10.733   6.974   2.994  1.00  0.00     0.169 HD
BRANCH  14  17
HETATM   17  C5  UNL     1      10.612   8.971   1.198  1.00  0.00     0.375 C
BRANCH  17  18
HETATM   18  N3  UNL     1      11.013   8.127   0.122  1.00  0.00     0.100 N
HETATM   19  C6  UNL     1       9.993   7.228  -0.369  1.00  0.00     0.303 C
HETATM   20  C7  UNL     1      10.490   6.520  -1.568  1.00  0.00     0.303 C
HETATM   21  N4  UNL     1      11.839   6.069  -1.610  1.00  0.00     0.096 N
HETATM   22  C15 UNL     1      12.771   6.712  -0.749  1.00  0.00     0.303 C
HETATM   23  C16 UNL     1      12.129   7.283   0.483  1.00  0.00     0.303 C
BRANCH  21  24
HETATM   24  C8  UNL     1      11.827   4.644  -1.507  1.00  0.00     0.314 C
BRANCH  24  25
HETATM   25  C9  UNL     1      12.430   3.877  -2.589  1.00  0.00     0.009 A
HETATM   26  C10 UNL     1      11.818   3.508  -3.749  1.00  0.00     0.012 A
HETATM   27  C11 UNL     1      12.461   2.741  -4.685  1.00  0.00     0.001 A
HETATM   28  C12 UNL     1      13.758   2.333  -4.448  1.00  0.00     0.003 A
HETATM   29  C13 UNL     1      14.428   2.676  -3.294  1.00  0.00     0.043 A
HETATM   30  C14 UNL     1      13.744   3.443  -2.390  1.00  0.00     0.124 A
HETATM   31  F1  UNL     1      14.415   3.780  -1.245  1.00  0.00    -0.205 F
ENDBRANCH  24  25
ENDBRANCH  21  24
ENDBRANCH  17  18
ENDBRANCH  14  17
ENDBRANCH   4  13
TORSDOF 5
ENDMDL