MODEL 2
REMARK VINA RESULT: -8.040350349      2.590      4.316
REMARK  6 active torsions:
REMARK  status: ('A' for Active; 'I' for Inactive)
REMARK    1  A    between atoms: C2_2  and  C3_4
REMARK    2  A    between atoms: C3_4  and  C4_5
REMARK    3  A    between atoms: C4_5  and  C5_6
REMARK    4  A    between atoms: C5_6  and  C6_7
REMARK    5  A    between atoms: N1_28  and  C23_29
REMARK    6  A    between atoms: C23_29  and  O5_30
ROOT
HETATM    1  C5  UNL     1      10.846   7.473   2.281  1.00  0.00     0.208 C
HETATM    2  O2  UNL     1      10.494   8.844   2.062  1.00  0.00    -0.196 OA
HETATM    3  O3  UNL     1      11.512   9.556   2.484  1.00  0.00    -0.194 OA
HETATM    4  C16 UNL     1      11.985   8.936   3.627  1.00  0.00     0.236 C
HETATM    5  O4  UNL     1      11.759   7.628   3.323  1.00  0.00    -0.309 OA
HETATM    6  C17 UNL     1      11.386   9.586   4.792  1.00  0.00     0.237 C
HETATM    7  F1  UNL     1      10.083   9.420   5.095  1.00  0.00    -0.243 F
HETATM    8  C18 UNL     1      12.138   9.407   6.100  1.00  0.00     0.078 C
HETATM    9  C19 UNL     1      13.576   9.769   6.013  1.00  0.00     0.229 C
HETATM   10  C20 UNL     1      13.828  10.364   4.640  1.00  0.00     0.048 C
HETATM   11  C21 UNL     1      13.492   9.176   3.790  1.00  0.00     0.084 C
HETATM   12  C22 UNL     1      14.123   8.057   4.593  1.00  0.00     0.286 C
HETATM   13  N1  UNL     1      14.316   8.523   5.929  1.00  0.00     0.116 N
ENDROOT
BRANCH   1  14
HETATM   14  C4  UNL     1       9.698   6.737   2.768  1.00  0.00     0.080 C
BRANCH  14  15
HETATM   15  C3  UNL     1       8.951   6.824   3.999  1.00  0.00     0.083 C
BRANCH  15  16
HETATM   16  C2  UNL     1       9.348   5.712   4.972  1.00  0.00     0.123 C
HETATM   17  C1  UNL     1       8.611   4.446   5.053  1.00  0.00     0.091 C
HETATM   18  O1  UNL     1      10.308   5.926   5.678  1.00  0.00    -0.298 OA
ENDBRANCH  15  16
ENDBRANCH  14  15
ENDBRANCH   1  14
BRANCH   1  19
HETATM   19  C6  UNL     1      11.416   7.077   0.962  1.00  0.00     0.020 C
HETATM   20  C7  UNL     1      10.524   6.118   0.254  1.00  0.00     0.019 C
HETATM   21  C8  UNL     1      11.150   5.475  -0.968  1.00  0.00    -0.013 C
HETATM   22  C9  UNL     1      12.478   4.884  -0.622  1.00  0.00     0.009 C
HETATM   23  C13 UNL     1      11.273   6.597  -1.995  1.00  0.00     0.009 C
HETATM   24  C10 UNL     1      13.368   6.006  -0.150  1.00  0.00    -0.013 C
HETATM   25  C11 UNL     1      13.498   7.106  -1.187  1.00  0.00     0.009 C
HETATM   26  C15 UNL     1      12.862   6.653   1.104  1.00  0.00     0.019 C
HETATM   27  C12 UNL     1      12.108   7.658  -1.374  1.00  0.00    -0.013 C
HETATM   28  C14 UNL     1      11.542   8.198  -0.053  1.00  0.00     0.019 C
ENDBRANCH   1  19
BRANCH  13  29
HETATM   29  C23 UNL     1      15.697   8.685   6.314  1.00  0.00     0.438 C
BRANCH  29  30
HETATM   30  O5  UNL     1      16.393   7.584   5.772  1.00  0.00    -0.373 OA
ATOM     31  H5  UNL     1      17.315   7.813   5.792  1.00  0.00     0.211 HD
ENDBRANCH  29  30
ENDBRANCH  13  29
TORSDOF 6
ENDMDL