MODEL 4
REMARK VINA RESULT: -7.158983299      0.936      1.927
REMARK  5 active torsions:
REMARK  status: ('A' for Active; 'I' for Inactive)
REMARK    1  A    between atoms: C3_4  and  S2_5
REMARK    2  A    between atoms: S2_5  and  N1_8
REMARK       I    between atoms: N1_8  and  C4_10
REMARK    3  A    between atoms: C4_10  and  C5_12
REMARK    4  A    between atoms: C5_12  and  C6_13
REMARK    5  A    between atoms: C16_23  and  N2_24
ROOT
HETATM    1  N1  UNL     1      11.352   7.167   1.016  1.00  0.00    -0.250 N
ATOM      2  H1  UNL     1      12.061   6.633   1.517  1.00  0.00     0.181 HD
HETATM    3  C4  UNL     1      10.625   8.180   1.690  1.00  0.00     0.231 C
HETATM    4  O3  UNL     1       9.764   8.810   1.030  1.00  0.00    -0.273 OA
ENDROOT
BRANCH   1   5
HETATM    5  S2  UNL     1      11.047   6.836  -0.626  1.00  0.00     0.274 S
HETATM    6  O1  UNL     1       9.661   6.276  -0.826  1.00  0.00    -0.200 OA
HETATM    7  O2  UNL     1      11.210   8.058  -1.486  1.00  0.00    -0.200 OA
BRANCH   5   8
HETATM    8  C3  UNL     1      12.213   5.650  -1.239  1.00  0.00     0.155 A
HETATM    9  S1  UNL     1      11.923   4.321  -2.259  1.00  0.00    -0.077 SA
HETATM   10  C2  UNL     1      13.504   3.708  -2.373  1.00  0.00     0.004 A
HETATM   11  C1  UNL     1      14.001   2.506  -3.139  1.00  0.00     0.058 C
HETATM   12  C17 UNL     1      14.232   4.570  -1.600  1.00  0.00     0.082 A
HETATM   13  C16 UNL     1      13.562   5.582  -1.009  1.00  0.00     0.155 A
HETATM   14 CL1  UNL     1      15.997   4.346  -1.397  1.00  0.00    -0.081 Cl
BRANCH  13  15
HETATM   15  N2  UNL     1      14.177   6.585  -0.156  1.00  0.00    -0.112 N
HETATM   16  O4  UNL     1      14.616   7.619  -0.654  1.00  0.00    -0.532 OA
HETATM   17  O5  UNL     1      14.250   6.355   1.171  1.00  0.00    -0.532 OA
ENDBRANCH  13  15
ENDBRANCH   5   8
ENDBRANCH   1   5
BRANCH   3  18
HETATM   18  C5  UNL     1      10.935   8.415   3.100  1.00  0.00     0.113 C
BRANCH  18  19
HETATM   19  C6  UNL     1      10.061   7.768   4.104  1.00  0.00    -0.031 C
HETATM   20  C7  UNL     1       9.066   6.807   3.523  1.00  0.00     0.014 C
HETATM   21  C8  UNL     1       8.357   6.043   4.628  1.00  0.00    -0.013 C
HETATM   22  C9  UNL     1       7.604   6.987   5.532  1.00  0.00     0.009 C
HETATM   23  C13 UNL     1       9.319   5.251   5.471  1.00  0.00     0.009 C
HETATM   24  C10 UNL     1       8.583   7.991   6.068  1.00  0.00    -0.013 C
HETATM   25  C11 UNL     1       9.573   7.268   6.948  1.00  0.00     0.009 C
HETATM   26  C15 UNL     1       9.312   8.742   4.975  1.00  0.00     0.014 C
HETATM   27  C12 UNL     1      10.273   6.245   6.098  1.00  0.00    -0.013 C
HETATM   28  C14 UNL     1      10.998   6.943   5.000  1.00  0.00     0.014 C
ENDBRANCH  18  19
ENDBRANCH   3  18
TORSDOF 5
ENDMDL