MODEL 4
REMARK VINA RESULT: -7.714558624      1.722      2.128
REMARK  6 active torsions:
REMARK  status: ('A' for Active; 'I' for Inactive)
REMARK    1  A    between atoms: N3_7  and  C3_8
REMARK    2  A    between atoms: C3_8  and  C4_9
REMARK    3  A    between atoms: C7_12  and  C8_13
REMARK    4  A    between atoms: C8_13  and  O2_14
REMARK    5  A    between atoms: C8_13  and  C9_16
REMARK    6  A    between atoms: C17_27  and  C18_28
ROOT
HETATM    1  C1  UNL     1      -9.895  11.364  -4.646  1.00  0.00     0.163 C
HETATM    2  N1  UNL     1      -8.945  11.498  -3.561  1.00  0.00    -0.287 N
HETATM    3  C2  UNL     1      -8.044  10.410  -3.356  1.00  0.00     0.343 A
HETATM    4  O1  UNL     1      -8.081   9.393  -4.111  1.00  0.00    -0.245 OA
HETATM    5  N2  UNL     1      -7.118  10.520  -2.285  1.00  0.00    -0.234 N
ATOM      6  H2  UNL     1      -6.466   9.753  -2.123  1.00  0.00     0.193 HD
HETATM    7  N3  UNL     1      -7.062  11.645  -1.434  1.00  0.00    -0.228 N
HETATM    8  N4  UNL     1      -7.975  12.652  -1.711  1.00  0.00    -0.268 N
ATOM      9  H4  UNL     1      -7.966  13.483  -1.119  1.00  0.00     0.190 HD
HETATM   10  C17 UNL     1      -8.851  12.601  -2.687  1.00  0.00     0.137 A
ENDROOT
BRANCH   7  11
HETATM   11  C3  UNL     1      -6.114  11.674  -0.359  1.00  0.00     0.174 C
BRANCH  11  12
HETATM   12  C4  UNL     1      -6.666  11.588   1.016  1.00  0.00     0.007 C
HETATM   13  C5  UNL     1      -5.708  11.573   2.139  1.00  0.00     0.007 C
HETATM   14  C6  UNL     1      -5.294  10.270   2.665  1.00  0.00     0.008 C
HETATM   15  C7  UNL     1      -6.230   9.113   2.558  1.00  0.00     0.019 C
HETATM   16  C15 UNL     1      -6.902   9.168   1.202  1.00  0.00     0.008 C
HETATM   17  C16 UNL     1      -7.664  10.454   1.053  1.00  0.00     0.007 C
BRANCH  15  18
HETATM   18  C8  UNL     1      -7.193   9.039   3.702  1.00  0.00     0.157 C
BRANCH  18  19
HETATM   19  O2  UNL     1      -6.394   8.687   4.835  1.00  0.00    -0.390 OA
ATOM     20  H2  UNL     1      -5.872   9.461   5.017  1.00  0.00     0.210 HD
ENDBRANCH  18  19
BRANCH  18  21
HETATM   21  C9  UNL     1      -8.191   7.959   3.624  1.00  0.00    -0.008 A
HETATM   22  C10 UNL     1      -7.966   6.624   3.739  1.00  0.00     0.011 A
HETATM   23  C11 UNL     1      -8.971   5.672   3.668  1.00  0.00     0.001 A
HETATM   24  C12 UNL     1     -10.276   6.063   3.475  1.00  0.00     0.002 A
HETATM   25  C13 UNL     1     -10.532   7.424   3.356  1.00  0.00     0.024 A
HETATM   26  C14 UNL     1      -9.517   8.355   3.429  1.00  0.00     0.042 A
HETATM   27 CL1  UNL     1      -9.928  10.041   3.271  1.00  0.00    -0.084 Cl
ENDBRANCH  18  21
ENDBRANCH  15  18
ENDBRANCH  11  12
ENDBRANCH   7  11
BRANCH  10  28
HETATM   28  C18 UNL     1      -9.752  13.725  -2.840  1.00  0.00     0.012 A
HETATM   29  C19 UNL     1     -11.000  13.751  -2.263  1.00  0.00     0.032 A
HETATM   30  C20 UNL     1     -11.840  14.859  -2.424  1.00  0.00     0.088 A
HETATM   31  N5  UNL     1     -11.426  15.909  -3.150  1.00  0.00    -0.375 N
HETATM   32  C21 UNL     1     -10.218  15.942  -3.737  1.00  0.00     0.088 A
ATOM     33  H5  UNL     1     -12.049  16.709  -3.259  1.00  0.00     0.164 HD
HETATM   34  C22 UNL     1      -9.405  14.854  -3.573  1.00  0.00     0.032 A
ENDBRANCH  10  28
TORSDOF 6
ENDMDL