MODEL 3
REMARK VINA RESULT: -7.091624074      1.181      1.313
REMARK  6 active torsions:
REMARK  status: ('A' for Active; 'I' for Inactive)
REMARK    1  A    between atoms: C2_2  and  N1_3
REMARK       I    between atoms: N1_3  and  C3_5
REMARK    2  A    between atoms: C3_5  and  C4_7
REMARK    3  A    between atoms: C5_10  and  C6_11
REMARK    4  A    between atoms: N3_15  and  C10_16
REMARK    5  A    between atoms: C10_16  and  C11_17
REMARK    6  A    between atoms: C11_17  and  O2_20
ROOT
HETATM    1  C4  UNL     1      -7.676   8.891   1.812  1.00  0.00     0.120 A
HETATM    2  N2  UNL     1      -7.543   9.135   0.466  1.00  0.00    -0.353 N
ATOM      3  H2  UNL     1      -8.335   9.017  -0.166  1.00  0.00     0.166 HD
HETATM    4  C5  UNL     1      -6.362   9.527   0.007  1.00  0.00     0.019 A
HETATM    5  C17 UNL     1      -5.267   9.700   0.818  1.00  0.00     0.056 A
HETATM    6  C18 UNL     1      -5.368   9.460   2.198  1.00  0.00     0.054 A
HETATM    7  N4  UNL     1      -4.407   9.587   3.080  1.00  0.00    -0.353 N
ATOM      8  H4  UNL     1      -3.480   9.887   2.778  1.00  0.00     0.166 HD
HETATM    9  C19 UNL     1      -4.623   9.335   4.336  1.00  0.00     0.048 A
HETATM   10  C20 UNL     1      -3.647   9.427   5.465  1.00  0.00     0.076 C
HETATM   11  S1  UNL     1      -6.272   8.887   4.325  1.00  0.00    -0.073 SA
HETATM   12  C21 UNL     1      -6.594   9.056   2.653  1.00  0.00     0.065 A
ENDROOT
BRANCH   4  13
HETATM   13  C6  UNL     1      -6.252   9.774  -1.481  1.00  0.00     0.077 C
HETATM   14  C7  UNL     1      -4.816   9.608  -1.925  1.00  0.00     0.012 C
HETATM   15  C8  UNL     1      -4.364   8.181  -1.623  1.00  0.00     0.012 C
HETATM   16  C9  UNL     1      -4.815   9.741  -3.424  1.00  0.00     0.127 C
HETATM   17  N3  UNL     1      -5.490  10.890  -3.918  1.00  0.00    -0.383 N
HETATM   18  C14 UNL     1      -6.091  11.748  -3.027  1.00  0.00     0.114 C
HETATM   19  C15 UNL     1      -5.051  12.705  -2.419  1.00  0.00     0.035 C
HETATM   20  C16 UNL     1      -6.835  11.086  -1.880  1.00  0.00     0.202 C
HETATM   21  F1  UNL     1      -6.823  11.936  -0.797  1.00  0.00    -0.246 F
BRANCH  17  22
HETATM   22  C10 UNL     1      -5.379  11.038  -5.285  1.00  0.00     0.095 C
BRANCH  22  23
HETATM   23  C11 UNL     1      -6.547  10.875  -6.188  1.00  0.00     0.082 C
HETATM   24  C12 UNL     1      -7.253  12.150  -6.571  1.00  0.00     0.051 C
HETATM   25  C13 UNL     1      -7.524   9.801  -5.784  1.00  0.00     0.051 C
BRANCH  23  26
HETATM   26  O2  UNL     1      -5.982  10.414  -7.431  1.00  0.00    -0.385 OA
ATOM     27  H2  UNL     1      -6.713  10.408  -8.038  1.00  0.00     0.211 HD
ENDBRANCH  23  26
ENDBRANCH  22  23
ENDBRANCH  17  22
ENDBRANCH   4  13
BRANCH   1  28
HETATM   28  C3  UNL     1      -8.965   8.465   2.331  1.00  0.00     0.269 C
HETATM   29  N1  UNL     1      -9.560   7.207   2.279  1.00  0.00    -0.356 N
ATOM     30  H1  UNL     1      -9.075   6.434   1.824  1.00  0.00     0.162 HD
HETATM   31  O1  UNL     1      -9.648   9.376   2.919  1.00  0.00    -0.266 OA
BRANCH  29  32
HETATM   32  C2  UNL     1     -10.891   6.989   2.878  1.00  0.00     0.118 C
HETATM   33  C1  UNL     1     -10.799   5.998   4.031  1.00  0.00     0.026 C
ENDBRANCH  29  32
ENDBRANCH   1  28
TORSDOF 6
ENDMDL