MODEL 1
REMARK VINA RESULT: -8.240641032      0.000      0.000
REMARK  7 active torsions:
REMARK  status: ('A' for Active; 'I' for Inactive)
REMARK    1  A    between atoms: N1_2  and  C1_4
REMARK    2  A    between atoms: C1_4  and  C2_5
REMARK    3  A    between atoms: C1_4  and  N6_28
REMARK    4  A    between atoms: C2_5  and  N4_16
REMARK    5  A    between atoms: N2_6  and  N3_8
REMARK    6  A    between atoms: N3_8  and  C3_10
REMARK    7  A    between atoms: N4_16  and  C9_17
ROOT
HETATM    1  C2  UNL     1      -5.273   9.728   3.158  1.00  0.00     0.232 C
HETATM    2  N2  UNL     1      -4.189   9.538   3.935  1.00  0.00    -0.274 N
ATOM      3  H2  UNL     1      -3.289   9.933   3.659  1.00  0.00     0.189 HD
ENDROOT
BRANCH   1   4
HETATM    4  C1  UNL     1      -4.952  10.552   1.923  1.00  0.00     0.472 C
BRANCH   4   5
HETATM    5  N1  UNL     1      -4.051   9.749   1.125  1.00  0.00    -0.111 N
HETATM    6  O1  UNL     1      -4.095   8.519   1.214  1.00  0.00    -0.534 OA
HETATM    7  O2  UNL     1      -3.169  10.350   0.288  1.00  0.00    -0.534 OA
ENDBRANCH   4   5
BRANCH   4   8
HETATM    8  N6  UNL     1      -6.182  10.641   1.179  1.00  0.00     0.126 N
HETATM    9  C16 UNL     1      -6.161   9.923  -0.074  1.00  0.00     0.276 C
HETATM   10  C17 UNL     1      -7.623   9.532  -0.339  1.00  0.00     0.030 C
HETATM   11  C18 UNL     1      -8.413  10.792  -0.457  1.00  0.00     0.003 C
HETATM   12  C19 UNL     1      -7.682  12.049  -0.144  1.00  0.00     0.030 C
HETATM   13  C20 UNL     1      -6.739  11.943   1.036  1.00  0.00     0.276 C
ENDBRANCH   4   8
ENDBRANCH   1   4
BRANCH   1  14
HETATM   14  N4  UNL     1      -6.403   9.229   3.502  1.00  0.00    -0.361 NA
BRANCH  14  15
HETATM   15  C9  UNL     1      -7.359   8.473   3.665  1.00  0.00     0.225 A
HETATM   16  N5  UNL     1      -7.494   7.533   4.639  1.00  0.00    -0.324 N
HETATM   17  C10 UNL     1      -8.569   6.808   4.677  1.00  0.00     0.052 A
ATOM     18  H5  UNL     1      -6.756   7.400   5.332  1.00  0.00     0.169 HD
HETATM   19  C11 UNL     1      -8.840   5.795   5.633  1.00  0.00     0.034 A
HETATM   20  C15 UNL     1      -9.531   7.016   3.731  1.00  0.00     0.039 A
HETATM   21  C12 UNL     1      -9.999   5.099   5.576  1.00  0.00     0.044 A
HETATM   22  C13 UNL     1     -10.977   5.294   4.636  1.00  0.00     0.117 A
HETATM   23  F1  UNL     1     -12.103   4.556   4.650  1.00  0.00    -0.206 F
HETATM   24  C14 UNL     1     -10.724   6.274   3.706  1.00  0.00     0.063 A
HETATM   25  S1  UNL     1      -8.852   8.268   2.801  1.00  0.00    -0.037 SA
ENDBRANCH  14  15
ENDBRANCH   1  14
BRANCH   2  26
HETATM   26  N3  UNL     1      -4.292   8.808   5.104  1.00  0.00    -0.299 N
ATOM     27  H3  UNL     1      -4.436   7.799   5.072  1.00  0.00     0.187 HD
BRANCH  26  28
HETATM   28  C3  UNL     1      -4.194   9.483   6.351  1.00  0.00     0.048 A
HETATM   29  C4  UNL     1      -5.262   9.470   7.217  1.00  0.00     0.031 A
HETATM   30  C5  UNL     1      -5.142  10.157   8.403  1.00  0.00     0.002 A
HETATM   31  C6  UNL     1      -4.010  10.853   8.760  1.00  0.00     0.000 A
HETATM   32  C7  UNL     1      -2.940  10.854   7.870  1.00  0.00     0.002 A
HETATM   33  C8  UNL     1      -3.024  10.176   6.673  1.00  0.00     0.031 A
ENDBRANCH  26  28
ENDBRANCH   2  26
TORSDOF 7
ENDMDL