MODEL 3
REMARK VINA RESULT: -7.985007894      2.027      2.255
REMARK  5 active torsions:
REMARK  status: ('A' for Active; 'I' for Inactive)
REMARK    1  A    between atoms: C1_2  and  C2_3
REMARK       I    between atoms: C1_2  and  N4_14
REMARK    2  A    between atoms: C2_3  and  C3_4
REMARK    3  A    between atoms: C3_4  and  C4_5
REMARK    4  A    between atoms: C8_17  and  C9_19
REMARK    5  A    between atoms: C13_25  and  C14_26
ROOT
HETATM    1  O1  UNL     1     -11.049   8.477   1.874  1.00  0.00    -0.273 OA
HETATM    2  C1  UNL     1      -9.971   8.219   2.419  1.00  0.00     0.220 C
HETATM    3  N4  UNL     1      -8.837   9.069   2.161  1.00  0.00    -0.352 N
HETATM    4  C6  UNL     1      -8.896  10.131   1.206  1.00  0.00     0.129 C
HETATM    5  C7  UNL     1      -7.759   9.890   0.243  1.00  0.00     0.070 C
HETATM    6  C8  UNL     1      -6.414   9.783   0.860  1.00  0.00     0.148 C
HETATM    7  F1  UNL     1      -5.589   9.141  -0.066  1.00  0.00    -0.236 F
HETATM    8  C18 UNL     1      -6.357   8.946   2.099  1.00  0.00     0.070 C
HETATM    9  C19 UNL     1      -7.596   8.882   2.895  1.00  0.00     0.129 C
ENDROOT
BRANCH   6  10
HETATM   10  C9  UNL     1      -5.812  11.136   1.063  1.00  0.00     0.050 A
HETATM   11  C10 UNL     1      -6.569  12.288   1.068  1.00  0.00     0.031 A
HETATM   12  C11 UNL     1      -6.047  13.544   1.262  1.00  0.00     0.034 A
HETATM   13  C12 UNL     1      -4.665  13.697   1.471  1.00  0.00     0.067 A
HETATM   14  N5  UNL     1      -4.026  14.817   1.686  1.00  0.00    -0.351 N
HETATM   15  C17 UNL     1      -3.937  12.542   1.462  1.00  0.00     0.103 A
HETATM   16  C13 UNL     1      -2.726  14.799   1.880  1.00  0.00     0.057 A
ATOM     17  H5  UNL     1      -4.534  15.701   1.702  1.00  0.00     0.166 HD
HETATM   18  S2  UNL     1      -2.362  13.134   1.762  1.00  0.00    -0.056 SA
HETATM   19  N6  UNL     1      -4.500  11.306   1.265  1.00  0.00    -0.349 N
ATOM     20  H6  UNL     1      -3.895  10.486   1.272  1.00  0.00     0.166 HD
BRANCH  16  21
HETATM   21  C14 UNL     1      -1.814  15.970   2.164  1.00  0.00     0.043 A
HETATM   22  C15 UNL     1      -1.465  16.054   3.638  1.00  0.00     0.012 A
HETATM   23  C16 UNL     1      -0.437  15.717   2.579  1.00  0.00     0.012 A
ENDBRANCH  16  21
ENDBRANCH   6  10
BRANCH   2  24
HETATM   24  C2  UNL     1      -9.768   7.081   3.326  1.00  0.00     0.110 C
BRANCH  24  25
HETATM   25  C3  UNL     1     -10.895   6.079   3.386  1.00  0.00     0.087 C
BRANCH  25  26
HETATM   26  C4  UNL     1     -10.714   5.361   4.674  1.00  0.00     0.098 A
HETATM   27  N1  UNL     1      -9.667   5.661   5.508  1.00  0.00    -0.321 N
HETATM   28  C5  UNL     1      -9.748   4.918   6.606  1.00  0.00     0.192 A
ATOM     29  H1  UNL     1      -8.939   6.349   5.315  1.00  0.00     0.169 HD
HETATM   30  S1  UNL     1      -8.744   4.923   7.886  1.00  0.00    -0.039 SA
HETATM   31  N2  UNL     1     -10.843   4.161   6.453  1.00  0.00    -0.275 N
HETATM   32  N3  UNL     1     -11.431   4.433   5.268  1.00  0.00    -0.287 N
ATOM     33  H2  UNL     1     -11.183   3.480   7.133  1.00  0.00     0.189 HD
ATOM     34  H3  UNL     1     -12.277   3.997   4.900  1.00  0.00     0.188 HD
ENDBRANCH  25  26
ENDBRANCH  24  25
ENDBRANCH   2  24
TORSDOF 5
ENDMDL