MODEL 2
REMARK VINA RESULT: -7.437966073      3.828      6.447
REMARK  7 active torsions:
REMARK  status: ('A' for Active; 'I' for Inactive)
REMARK    1  A    between atoms: C2_2  and  O1_3
REMARK    2  A    between atoms: O1_3  and  C3_4
REMARK    3  A    between atoms: C3_4  and  C4_6
REMARK    4  A    between atoms: N1_8  and  C6_9
REMARK    5  A    between atoms: N2_15  and  C12_16
REMARK    6  A    between atoms: C12_16  and  C13_17
REMARK       I    between atoms: C13_17  and  N3_19
REMARK    7  A    between atoms: N3_19  and  C14_21
ROOT
HETATM    1  C4  UNL     1      -5.270   9.177   5.841  1.00  0.00     0.101 A
HETATM    2  C5  UNL     1      -6.448   8.775   5.230  1.00  0.00     0.132 A
HETATM    3  N1  UNL     1      -6.223   8.782   3.920  1.00  0.00    -0.293 N
HETATM    4  N2  UNL     1      -5.007   9.151   3.613  1.00  0.00    -0.265 N
HETATM    5  C18 UNL     1      -4.392   9.404   4.807  1.00  0.00     0.134 A
HETATM    6  N5  UNL     1      -3.185   9.790   4.915  1.00  0.00    -0.383 N
ATOM      7  H51 UNL     1      -2.534   9.958   4.148  1.00  0.00     0.157 HD
ATOM      8  H52 UNL     1      -2.727   9.979   5.806  1.00  0.00     0.157 HD
ENDROOT
BRANCH   4   9
HETATM    9  C12 UNL     1      -4.337   9.286   2.341  1.00  0.00     0.254 C
BRANCH   9  10
HETATM   10  C13 UNL     1      -4.835  10.450   1.585  1.00  0.00     0.243 C
HETATM   11  O3  UNL     1      -5.390  11.416   2.169  1.00  0.00    -0.271 OA
HETATM   12  N3  UNL     1      -4.693  10.500   0.187  1.00  0.00    -0.306 N
ATOM     13  H3  UNL     1      -3.764  10.513  -0.234  1.00  0.00     0.171 HD
BRANCH  12  14
HETATM   14  C14 UNL     1      -5.763  10.528  -0.577  1.00  0.00     0.153 A
HETATM   15  N4  UNL     1      -6.919  11.144  -0.347  1.00  0.00    -0.338 N
HETATM   16  C15 UNL     1      -7.868  11.050  -1.244  1.00  0.00     0.036 A
ATOM     17  H4  UNL     1      -7.063  11.678   0.510  1.00  0.00     0.168 HD
HETATM   18  C16 UNL     1      -9.226  11.709  -1.086  1.00  0.00     0.070 C
HETATM   19  C17 UNL     1      -7.607  10.319  -2.370  1.00  0.00     0.100 A
HETATM   20 CL1  UNL     1      -8.677  10.014  -3.745  1.00  0.00    -0.074 Cl
HETATM   21  S1  UNL     1      -6.005   9.794  -2.095  1.00  0.00    -0.040 SA
ENDBRANCH  12  14
ENDBRANCH   9  10
ENDBRANCH   4   9
BRANCH   3  22
HETATM   22  C6  UNL     1      -7.273   8.384   2.967  1.00  0.00     0.107 C
HETATM   23  C7  UNL     1      -8.213   9.538   2.848  1.00  0.00     0.027 C
HETATM   24  C8  UNL     1      -9.595   9.240   3.348  1.00  0.00     0.002 C
HETATM   25  C9  UNL     1     -10.152   7.970   2.761  1.00  0.00     0.000 C
HETATM   26  C10 UNL     1      -9.219   6.800   2.933  1.00  0.00     0.002 C
HETATM   27  C11 UNL     1      -7.924   7.166   3.589  1.00  0.00     0.027 C
ENDBRANCH   3  22
BRANCH   1  28
HETATM   28  C3  UNL     1      -5.067   9.313   7.281  1.00  0.00     0.298 C
HETATM   29  O2  UNL     1      -5.866   8.724   8.061  1.00  0.00    -0.259 OA
BRANCH  28  30
HETATM   30  O1  UNL     1      -4.055  10.048   7.839  1.00  0.00    -0.318 OA
BRANCH  30  31
HETATM   31  C2  UNL     1      -4.206  11.110   8.753  1.00  0.00     0.174 C
HETATM   32  C1  UNL     1      -3.049  12.074   8.590  1.00  0.00     0.034 C
ENDBRANCH  30  31
ENDBRANCH  28  30
ENDBRANCH   1  28
TORSDOF 7
ENDMDL