MODEL 5
REMARK VINA RESULT: -6.766451392      1.399      1.469
REMARK  7 active torsions:
REMARK  status: ('A' for Active; 'I' for Inactive)
REMARK    1  A    between atoms: C2_2  and  O1_3
REMARK    2  A    between atoms: C2_2  and  C14_25
REMARK    3  A    between atoms: O1_3  and  C3_4
REMARK       I    between atoms: C3_4  and  N1_6
REMARK    4  A    between atoms: N1_6  and  C4_8
REMARK    5  A    between atoms: C7_11  and  C8_12
REMARK    6  A    between atoms: C8_12  and  N2_13
REMARK    7  A    between atoms: C10_15  and  C11_16
ROOT
HETATM    1  C4  UNL     1      -7.533  10.187   0.500  1.00  0.00     0.179 C
HETATM    2  C5  UNL     1      -8.518  11.288   0.158  1.00  0.00     0.035 C
HETATM    3  C6  UNL     1      -8.448  11.662  -1.316  1.00  0.00     0.014 C
HETATM    4  C7  UNL     1      -7.212  12.399  -1.678  1.00  0.00     0.043 C
HETATM    5  C12 UNL     1      -6.543  13.064  -0.462  1.00  0.00     0.132 C
HETATM    6  N3  UNL     1      -5.764  12.079   0.254  1.00  0.00    -0.359 N
ATOM      7  H3  UNL     1      -4.842  12.372   0.577  1.00  0.00     0.162 HD
HETATM    8  C13 UNL     1      -6.151  10.746   0.557  1.00  0.00     0.240 C
HETATM    9  O3  UNL     1      -5.271   9.917   0.913  1.00  0.00    -0.271 OA
ENDROOT
BRANCH   1  10
HETATM   10  N1  UNL     1      -7.925   9.641   1.771  1.00  0.00    -0.324 N
HETATM   11  C3  UNL     1      -8.928   8.675   1.951  1.00  0.00     0.361 C
HETATM   12  O2  UNL     1      -9.549   8.233   0.961  1.00  0.00    -0.238 OA
ATOM     13  H1  UNL     1      -7.439   9.980   2.602  1.00  0.00     0.165 HD
BRANCH  11  14
HETATM   14  O1  UNL     1      -9.255   8.193   3.207  1.00  0.00    -0.299 OA
BRANCH  14  15
HETATM   15  C2  UNL     1      -9.140   6.813   3.452  1.00  0.00     0.133 C
HETATM   16  C1  UNL     1      -7.668   6.540   3.723  1.00  0.00     0.040 C
BRANCH  15  17
HETATM   17  C14 UNL     1      -9.995   6.391   4.615  1.00  0.00     0.015 C
HETATM   18  C15 UNL     1      -9.107   5.646   5.615  1.00  0.00     0.007 C
HETATM   19  C16 UNL     1      -9.956   5.167   6.772  1.00  0.00     0.000 C
HETATM   20  C17 UNL     1     -11.231   4.495   6.338  1.00  0.00     0.000 C
HETATM   21  C18 UNL     1     -11.152   4.193   4.875  1.00  0.00     0.000 C
HETATM   22  C19 UNL     1     -11.124   5.536   4.140  1.00  0.00     0.007 C
ENDBRANCH  15  17
ENDBRANCH  14  15
ENDBRANCH  11  14
ENDBRANCH   1  10
BRANCH   4  23
HETATM   23  C8  UNL     1      -7.458  13.401  -2.748  1.00  0.00     0.078 C
BRANCH  23  24
HETATM   24  N2  UNL     1      -8.706  13.515  -3.333  1.00  0.00    -0.325 N
HETATM   25  C9  UNL     1      -8.887  13.231  -4.705  1.00  0.00     0.155 C
HETATM   26  C10 UNL     1     -10.361  13.003  -4.973  1.00  0.00     0.107 C
HETATM   27  S1  UNL     1     -11.191  14.546  -4.397  1.00  0.00    -0.066 SA
HETATM   28  S2  UNL     1      -9.611  14.994  -2.970  1.00  0.00     0.022 SA
BRANCH  26  29
HETATM   29  C11 UNL     1     -10.893  11.797  -4.270  1.00  0.00     0.239 C
HETATM   30  F1  UNL     1      -9.994  10.768  -4.195  1.00  0.00    -0.254 F
ENDBRANCH  26  29
ENDBRANCH  23  24
ENDBRANCH   4  23
TORSDOF 7
ENDMDL