MODEL 3
REMARK VINA RESULT: -8.180691396      0.957      1.661
REMARK  6 active torsions:
REMARK  status: ('A' for Active; 'I' for Inactive)
REMARK    1  A    between atoms: C4_5  and  C5_6
REMARK    2  A    between atoms: C7_10  and  N2_11
REMARK    3  A    between atoms: N2_11  and  C8_13
REMARK    4  A    between atoms: C8_13  and  C9_14
REMARK    5  A    between atoms: N3_17  and  C12_18
REMARK    6  A    between atoms: C12_18  and  C13_19
ROOT
HETATM    1  C5  UNL     1      -7.695   7.964   3.571  1.00  0.00     0.117 A
HETATM    2  N1  UNL     1      -7.553   8.704   2.467  1.00  0.00    -0.336 N
ATOM      3  H1  UNL     1      -8.215   8.785   1.695  1.00  0.00     0.168 HD
HETATM    4  C6  UNL     1      -6.351   9.328   2.579  1.00  0.00     0.122 A
HETATM    5  C7  UNL     1      -5.652  10.208   1.776  1.00  0.00     0.133 A
HETATM    6  N5  UNL     1      -4.447  10.662   2.174  1.00  0.00    -0.337 N
ATOM      7  H5  UNL     1      -3.946  11.312   1.567  1.00  0.00     0.168 HD
HETATM    8  C18 UNL     1      -3.880  10.299   3.328  1.00  0.00     0.183 A
HETATM    9  N6  UNL     1      -4.542   9.447   4.119  1.00  0.00    -0.337 N
ATOM     10  H6  UNL     1      -4.126   9.158   5.004  1.00  0.00     0.168 HD
HETATM   11  C19 UNL     1      -5.749   8.966   3.765  1.00  0.00     0.139 A
HETATM   12  N7  UNL     1      -6.623   8.109   4.361  1.00  0.00    -0.326 N
ATOM     13  H7  UNL     1      -6.484   7.652   5.263  1.00  0.00     0.169 HD
ENDROOT
BRANCH   5  14
HETATM   14  N2  UNL     1      -6.107  10.609   0.665  1.00  0.00    -0.374 N
ATOM     15  H2  UNL     1      -6.496  11.551   0.640  1.00  0.00     0.161 HD
BRANCH  14  16
HETATM   16  C8  UNL     1      -6.130   9.870  -0.559  1.00  0.00     0.126 C
BRANCH  16  17
HETATM   17  C9  UNL     1      -7.530   9.859  -1.184  1.00  0.00     0.007 C
HETATM   18  C10 UNL     1      -8.383  10.854  -0.486  1.00  0.00     0.036 C
HETATM   19  C11 UNL     1      -9.306  11.641  -1.345  1.00  0.00     0.273 C
HETATM   20  N3  UNL     1      -8.842  11.962  -2.653  1.00  0.00     0.094 N
HETATM   21  C16 UNL     1      -7.533  11.487  -2.979  1.00  0.00     0.273 C
HETATM   22  C17 UNL     1      -7.450  10.028  -2.671  1.00  0.00     0.036 C
BRANCH  20  23
HETATM   23  C12 UNL     1      -9.737  11.637  -3.717  1.00  0.00     0.337 C
BRANCH  23  24
HETATM   24  C13 UNL     1     -11.078  12.242  -3.418  1.00  0.00     0.079 A
HETATM   25  N4  UNL     1     -12.234  11.637  -3.186  1.00  0.00    -0.362 N
HETATM   26  C14 UNL     1     -13.291  12.337  -2.945  1.00  0.00     0.096 A
ATOM     27  H4  UNL     1     -12.288  10.618  -3.199  1.00  0.00     0.165 HD
HETATM   28  C15 UNL     1     -13.171  13.703  -2.938  1.00  0.00     0.068 A
HETATM   29  S1  UNL     1     -11.500  13.891  -3.289  1.00  0.00    -0.086 SA
ENDBRANCH  23  24
ENDBRANCH  20  23
ENDBRANCH  16  17
ENDBRANCH  14  16
ENDBRANCH   5  14
BRANCH   1  30
HETATM   30  C4  UNL     1      -8.863   7.118   3.865  1.00  0.00     0.008 A
HETATM   31  C3  UNL     1      -8.831   6.230   4.917  1.00  0.00     0.018 A
HETATM   32  C2  UNL     1      -9.888   5.415   5.241  1.00  0.00     0.043 A
HETATM   33  C1  UNL     1     -11.027   5.498   4.473  1.00  0.00     0.116 A
HETATM   34  F1  UNL     1     -12.102   4.720   4.744  1.00  0.00    -0.206 F
HETATM   35  C21 UNL     1     -11.068   6.391   3.411  1.00  0.00     0.043 A
HETATM   36  C20 UNL     1     -10.004   7.193   3.107  1.00  0.00     0.018 A
ENDBRANCH   1  30
TORSDOF 6
ENDMDL