MODEL 2
REMARK VINA RESULT: -7.809052703      1.167      1.494
REMARK  6 active torsions:
REMARK  status: ('A' for Active; 'I' for Inactive)
REMARK    1  A    between atoms: C2_3  and  C3_4
REMARK    2  A    between atoms: C3_4  and  N2_5
REMARK    3  A    between atoms: C4_6  and  N3_7
REMARK    4  A    between atoms: C5_10  and  C6_11
REMARK    5  A    between atoms: C15_23  and  C16_24
REMARK    6  A    between atoms: C16_24  and  N5_25
ROOT
HETATM    1  N1  UNL     1      -3.323  10.541  -1.802  1.00  0.00    -0.197 NA
HETATM    2  C1  UNL     1      -3.590  10.019  -0.802  1.00  0.00     0.061 C
HETATM    3  C2  UNL     1      -3.896   9.371   0.458  1.00  0.00     0.155 C
ENDROOT
BRANCH   3   4
HETATM    4  C3  UNL     1      -4.324  10.350   1.553  1.00  0.00     0.052 C
HETATM    5  C22 UNL     1      -5.381  11.230   0.865  1.00  0.00     0.032 C
HETATM    6  C23 UNL     1      -5.102  12.627   1.388  1.00  0.00     0.002 C
HETATM    7  C24 UNL     1      -3.596  12.678   1.535  1.00  0.00     0.002 C
HETATM    8  C25 UNL     1      -3.132  11.261   1.702  1.00  0.00     0.032 C
BRANCH   4   9
HETATM    9  N2  UNL     1      -4.897   9.772   2.709  1.00  0.00    -0.305 N
HETATM   10  C4  UNL     1      -6.152   9.207   2.583  1.00  0.00     0.131 A
HETATM   11  C5  UNL     1      -6.717   8.645   3.693  1.00  0.00     0.087 A
HETATM   12  N4  UNL     1      -6.071   8.635   4.899  1.00  0.00    -0.349 N
HETATM   13  C12 UNL     1      -4.864   9.179   5.024  1.00  0.00     0.077 A
ATOM     14  H4  UNL     1      -6.519   8.207   5.710  1.00  0.00     0.166 HD
HETATM   15  C13 UNL     1      -4.261   9.157   6.260  1.00  0.00     0.035 A
HETATM   16  C21 UNL     1      -4.270   9.760   3.897  1.00  0.00     0.137 A
HETATM   17  C14 UNL     1      -3.014   9.725   6.426  1.00  0.00     0.029 A
HETATM   18  C15 UNL     1      -2.445  10.293   5.306  1.00  0.00     0.039 A
HETATM   19  N6  UNL     1      -3.068  10.287   4.146  1.00  0.00    -0.342 N
ATOM     20  H6  UNL     1      -2.586  10.727   3.363  1.00  0.00     0.167 HD
BRANCH  10  21
HETATM   21  N3  UNL     1      -6.720   9.230   1.446  1.00  0.00    -0.383 N
ATOM     22  H32 UNL     1      -6.218   9.103   0.567  1.00  0.00     0.157 HD
ATOM     23  H31 UNL     1      -7.727   9.386   1.406  1.00  0.00     0.157 HD
ENDBRANCH  10  21
BRANCH  11  24
HETATM   24  C6  UNL     1      -8.042   8.023   3.603  1.00  0.00    -0.005 A
HETATM   25  C7  UNL     1      -8.128   6.655   3.774  1.00  0.00     0.017 A
HETATM   26  C8  UNL     1      -9.351   6.039   3.742  1.00  0.00     0.043 A
HETATM   27  C9  UNL     1     -10.478   6.835   3.533  1.00  0.00     0.116 A
HETATM   28  F1  UNL     1     -11.696   6.276   3.493  1.00  0.00    -0.206 F
HETATM   29  C10 UNL     1     -10.376   8.195   3.365  1.00  0.00     0.043 A
HETATM   30  C11 UNL     1      -9.139   8.804   3.399  1.00  0.00     0.017 A
ENDBRANCH  11  24
BRANCH  18  31
HETATM   31  C16 UNL     1      -1.097  10.907   5.472  1.00  0.00     0.329 C
BRANCH  31  32
HETATM   32  N5  UNL     1      -0.876  11.262   6.867  1.00  0.00     0.094 N
HETATM   33  C17 UNL     1      -0.895  12.710   6.902  1.00  0.00     0.273 C
HETATM   34  C18 UNL     1       0.233  13.145   7.798  1.00  0.00     0.032 C
HETATM   35  C19 UNL     1       1.200  11.998   7.803  1.00  0.00     0.032 C
HETATM   36  C20 UNL     1       0.415  10.817   7.334  1.00  0.00     0.273 C
ENDBRANCH  31  32
ENDBRANCH  18  31
ENDBRANCH   4   9
ENDBRANCH   3   4
TORSDOF 6
ENDMDL