MODEL 1
REMARK VINA RESULT: -6.135461723      0.000      0.000
REMARK  6 active torsions:
REMARK  status: ('A' for Active; 'I' for Inactive)
REMARK    1  A    between atoms: C2_2  and  N1_3
REMARK    2  A    between atoms: N1_3  and  C3_4
REMARK    3  A    between atoms: N1_3  and  C5_7
REMARK    4  A    between atoms: C3_4  and  C4_5
REMARK    5  A    between atoms: C8_11  and  N2_12
REMARK       I    between atoms: N2_12  and  C9_14
REMARK       I    between atoms: C9_14  and  N3_16
REMARK    6  A    between atoms: N3_16  and  C11_18
ROOT
HETATM    1  C5  UNL     1      -5.043  10.196  -0.380  1.00  0.00     0.073 A
HETATM    2  C6  UNL     1      -4.389   9.288   0.470  1.00  0.00     0.173 A
HETATM    3  O1  UNL     1      -5.265   8.836   1.320  1.00  0.00    -0.317 OA
HETATM    4  C7  UNL     1      -6.458   9.353   1.130  1.00  0.00     0.122 A
HETATM    5  C8  UNL     1      -7.674   9.129   1.830  1.00  0.00     0.094 A
HETATM    6  C16 UNL     1      -8.850   9.714   1.552  1.00  0.00     0.070 A
HETATM    7 CL1  UNL     1     -10.286   9.325   2.542  1.00  0.00    -0.081 Cl
HETATM    8  C17 UNL     1      -9.130  10.640   0.550  1.00  0.00     0.076 A
HETATM    9  S2  UNL     1      -7.762  11.020  -0.392  1.00  0.00    -0.095 SA
HETATM   10  C18 UNL     1      -6.344  10.207   0.070  1.00  0.00     0.069 A
ENDROOT
BRANCH   5  11
HETATM   11  N2  UNL     1      -7.557   8.291   2.767  1.00  0.00    -0.305 N
HETATM   12  C9  UNL     1      -8.215   7.892   3.883  1.00  0.00     0.323 C
HETATM   13  O2  UNL     1      -8.074   8.503   4.984  1.00  0.00    -0.247 OA
HETATM   14  N3  UNL     1      -9.091   6.751   3.838  1.00  0.00    -0.334 N
HETATM   15  C10 UNL     1      -9.243   6.113   2.520  1.00  0.00     0.155 C
ATOM     16  H2  UNL     1      -6.703   7.746   2.648  1.00  0.00     0.171 HD
BRANCH  14  17
HETATM   17  C11 UNL     1      -9.766   6.220   4.992  1.00  0.00     0.091 C
HETATM   18  C12 UNL     1      -8.897   5.443   5.912  1.00  0.00     0.053 C
HETATM   19  C13 UNL     1      -9.634   5.324   7.248  1.00  0.00     0.234 C
HETATM   20  N4  UNL     1     -11.052   5.344   7.050  1.00  0.00    -0.075 N
HETATM   21  C14 UNL     1     -11.430   4.632   5.841  1.00  0.00     0.234 C
ATOM     22  H42 UNL     1     -11.548   4.985   7.865  1.00  0.00     0.277 HD
ATOM     23  H41 UNL     1     -11.415   6.297   7.050  1.00  0.00     0.277 HD
HETATM   24  C15 UNL     1     -10.949   5.344   4.584  1.00  0.00     0.053 C
ENDBRANCH  14  17
ENDBRANCH   5  11
BRANCH   1  25
HETATM   25  N1  UNL     1      -4.451  10.900  -1.467  1.00  0.00    -0.378 N
BRANCH  25  26
HETATM   26  C2  UNL     1      -3.405  11.874  -1.131  1.00  0.00     0.118 C
HETATM   27  C1  UNL     1      -3.895  13.020  -0.311  1.00  0.00     0.026 C
ENDBRANCH  25  26
BRANCH  25  28
HETATM   28  C3  UNL     1      -4.800  10.659  -2.821  1.00  0.00     0.134 C
BRANCH  28  29
HETATM   29  C4  UNL     1      -4.925   9.210  -3.221  1.00  0.00     0.106 C
HETATM   30  S1  UNL     1      -6.518   9.108  -4.140  1.00  0.00    -0.096 SA
ENDBRANCH  28  29
ENDBRANCH  25  28
ENDBRANCH   1  25
TORSDOF 6
ENDMDL