MODEL 5
REMARK VINA RESULT: -8.060721972      1.043      1.343
REMARK  6 active torsions:
REMARK  status: ('A' for Active; 'I' for Inactive)
REMARK    1  A    between atoms: C2_2  and  C18_29
REMARK    2  A    between atoms: N1_3  and  N2_5
REMARK    3  A    between atoms: N2_5  and  C3_7
REMARK    4  A    between atoms: C3_7  and  C4_8
REMARK    5  A    between atoms: C3_7  and  C7_16
REMARK    6  A    between atoms: C15_24  and  O1_25
ROOT
HETATM    1  C3  UNL     1      -7.853   9.671  -1.113  1.00  0.00     0.156 C
ENDROOT
BRANCH   1   2
HETATM    2  N2  UNL     1      -8.921   9.626  -0.135  1.00  0.00    -0.325 N
ATOM      3  H2  UNL     1      -9.609  10.379  -0.115  1.00  0.00     0.181 HD
BRANCH   2   4
HETATM    4  N1  UNL     1      -9.033   8.591   0.769  1.00  0.00    -0.308 N
HETATM    5  C2  UNL     1      -9.503   8.801   1.955  1.00  0.00     0.033 C
HETATM    6  C1  UNL     1      -9.912  10.170   2.302  1.00  0.00     0.070 C
ATOM      7  H1  UNL     1      -8.742   7.652   0.499  1.00  0.00     0.186 HD
BRANCH   5   8
HETATM    8  C18 UNL     1      -9.618   7.705   2.907  1.00  0.00     0.009 A
HETATM    9  C19 UNL     1      -8.470   7.357   3.624  1.00  0.00     0.015 A
HETATM   10  C20 UNL     1      -8.444   6.338   4.554  1.00  0.00     0.001 A
HETATM   11  C21 UNL     1      -9.568   5.616   4.814  1.00  0.00     0.002 A
HETATM   12  C22 UNL     1     -10.715   5.929   4.128  1.00  0.00     0.025 A
HETATM   13  C23 UNL     1     -10.731   6.969   3.183  1.00  0.00     0.046 A
HETATM   14 CL1  UNL     1     -12.227   7.285   2.371  1.00  0.00    -0.083 Cl
ENDBRANCH   5   8
ENDBRANCH   2   4
ENDBRANCH   1   2
BRANCH   1  15
HETATM   15  C4  UNL     1      -8.410  10.475  -2.250  1.00  0.00     0.068 A
HETATM   16  C5  UNL     1      -7.991  10.635  -3.530  1.00  0.00     0.139 A
HETATM   17  N3  UNL     1      -8.854  11.464  -4.129  1.00  0.00    -0.291 N
HETATM   18  C6  UNL     1      -8.863  11.959  -5.492  1.00  0.00     0.178 C
HETATM   19  N4  UNL     1      -9.802  11.824  -3.250  1.00  0.00    -0.241 N
HETATM   20  N5  UNL     1      -9.534  11.225  -2.110  1.00  0.00    -0.287 N
ATOM     21  H4  UNL     1     -10.588  12.448  -3.433  1.00  0.00     0.208 HD
ATOM     22  H5  UNL     1     -10.083  11.309  -1.254  1.00  0.00     0.188 HD
ENDBRANCH   1  15
BRANCH   1  23
HETATM   23  C7  UNL     1      -6.634  10.359  -0.594  1.00  0.00     0.020 C
HETATM   24  C8  UNL     1      -7.007  11.493   0.335  1.00  0.00     0.012 C
HETATM   25  C9  UNL     1      -5.829  12.233   0.880  1.00  0.00    -0.011 C
HETATM   26  C10 UNL     1      -4.619  12.234   0.018  1.00  0.00     0.009 C
HETATM   27  C17 UNL     1      -5.574  11.767   2.295  1.00  0.00     0.042 C
HETATM   28  C11 UNL     1      -3.733  11.045   0.166  1.00  0.00    -0.011 C
HETATM   29  C12 UNL     1      -4.225   9.818  -0.521  1.00  0.00     0.010 C
HETATM   30  C16 UNL     1      -3.499  10.698   1.620  1.00  0.00     0.042 C
HETATM   31  C13 UNL     1      -5.606   9.462   0.003  1.00  0.00    -0.005 C
HETATM   32  C14 UNL     1      -5.646   9.390   1.509  1.00  0.00     0.043 C
HETATM   33  C15 UNL     1      -4.870  10.440   2.218  1.00  0.00     0.059 C
BRANCH  33  34
HETATM   34  O1  UNL     1      -4.628   9.972   3.530  1.00  0.00    -0.390 OA
ATOM     35  H1  UNL     1      -4.317   9.076   3.460  1.00  0.00     0.210 HD
ENDBRANCH  33  34
ENDBRANCH   1  23
TORSDOF 6
ENDMDL