MODEL 1
REMARK VINA RESULT: -7.503916173      0.000      0.000
REMARK  6 active torsions:
REMARK  status: ('A' for Active; 'I' for Inactive)
REMARK    1  A    between atoms: S1_2  and  C2_3
REMARK    2  A    between atoms: C3_6  and  S2_7
REMARK    3  A    between atoms: S2_7  and  C4_8
REMARK    4  A    between atoms: C4_8  and  C5_9
REMARK       I    between atoms: C5_9  and  N2_11
REMARK    5  A    between atoms: N3_13  and  C6_15
REMARK    6  A    between atoms: C9_18  and  C10_19
ROOT
HETATM    1  C2  UNL     1      13.546 -10.990 -20.469  1.00  0.00     0.091 A
HETATM    2  N1  UNL     1      13.002 -12.173 -20.199  1.00  0.00    -0.344 N
ATOM      3  H1  UNL     1      13.386 -13.009 -20.639  1.00  0.00     0.167 HD
HETATM    4  C3  UNL     1      11.956 -12.297 -19.357  1.00  0.00     0.078 A
HETATM    5  C9  UNL     1      11.400 -11.157 -18.741  1.00  0.00    -0.009 A
HETATM    6  C14 UNL     1      11.928  -9.917 -18.990  1.00  0.00    -0.029 A
HETATM    7  C15 UNL     1      11.424  -8.707 -18.368  1.00  0.00     0.050 C
HETATM    8  C16 UNL     1      13.016  -9.868 -19.870  1.00  0.00     0.084 A
HETATM    9  C17 UNL     1      13.603  -8.563 -20.125  1.00  0.00     0.103 C
HETATM   10  N4  UNL     1      14.073  -7.503 -20.353  1.00  0.00    -0.191 NA
ENDROOT
BRANCH   1  11
HETATM   11  S1  UNL     1      14.975 -10.794 -21.522  1.00  0.00    -0.115 SA
HETATM   12  C1  UNL     1      16.336 -11.862 -20.966  1.00  0.00     0.097 C
ENDBRANCH   1  11
BRANCH   5  13
HETATM   13  C10 UNL     1      10.266 -11.405 -17.897  1.00  0.00    -0.021 C
HETATM   14  C11 UNL     1       9.341 -10.327 -17.466  1.00  0.00     0.019 C
HETATM   15  C12 UNL     1      10.611 -12.161 -16.591  1.00  0.00     0.019 C
HETATM   16  C13 UNL     1       9.316 -12.324 -18.724  1.00  0.00     0.019 C
ENDBRANCH   5  13
BRANCH   4  17
HETATM   17  S2  UNL     1      11.421 -13.934 -18.968  1.00  0.00    -0.102 SA
BRANCH  17  18
HETATM   18  C4  UNL     1      12.502 -14.686 -17.756  1.00  0.00     0.185 C
BRANCH  18  19
HETATM   19  C5  UNL     1      13.950 -14.715 -18.178  1.00  0.00     0.245 C
HETATM   20  O1  UNL     1      14.202 -14.901 -19.425  1.00  0.00    -0.271 OA
HETATM   21  N2  UNL     1      14.935 -14.546 -17.220  1.00  0.00    -0.273 N
HETATM   22  N3  UNL     1      15.210 -15.236 -16.280  1.00  0.00    -0.330 N
ATOM     23  H2  UNL     1      15.512 -13.712 -17.331  1.00  0.00     0.189 HD
ATOM     24  H3  UNL     1      15.992 -14.862 -15.743  1.00  0.00     0.180 HD
BRANCH  22  25
HETATM   25  C6  UNL     1      14.728 -16.412 -15.746  1.00  0.00     0.091 C
HETATM   26  C7  UNL     1      15.122 -17.713 -16.470  1.00  0.00     0.033 C
HETATM   27  C8  UNL     1      15.224 -16.596 -14.305  1.00  0.00     0.033 C
ENDBRANCH  22  25
ENDBRANCH  18  19
ENDBRANCH  17  18
ENDBRANCH   4  17
TORSDOF 6
ENDMDL