MODEL 5
REMARK VINA RESULT: -7.021171393      5.149      7.389
REMARK  5 active torsions:
REMARK  status: ('A' for Active; 'I' for Inactive)
REMARK    1  A    between atoms: C2_2  and  N1_4
REMARK    2  A    between atoms: N1_4  and  C4_5
REMARK    3  A    between atoms: N1_4  and  C17_24
REMARK    4  A    between atoms: C4_5  and  C5_6
REMARK    5  A    between atoms: C14_17  and  O3_18
ROOT
HETATM    1  C5  UNL     1       9.014 -12.721 -18.253  1.00  0.00    -0.046 C
HETATM    2  C6  UNL     1       9.668 -12.805 -19.401  1.00  0.00    -0.013 C
HETATM    3  C7  UNL     1      10.988 -13.431 -19.564  1.00  0.00     0.102 C
HETATM    4  C8  UNL     1      11.847 -13.465 -18.337  1.00  0.00     0.233 C
HETATM    5  C9  UNL     1      11.168 -12.762 -17.200  1.00  0.00     0.079 C
HETATM    6  C10 UNL     1       9.720 -13.276 -17.073  1.00  0.00     0.045 C
HETATM    7  O1  UNL     1      13.038 -12.737 -18.579  1.00  0.00    -0.194 OA
HETATM    8  O2  UNL     1      14.006 -13.104 -17.808  1.00  0.00    -0.195 OA
HETATM    9  C11 UNL     1      14.357 -14.415 -18.088  1.00  0.00     0.230 C
HETATM   10  C12 UNL     1      15.257 -14.868 -16.962  1.00  0.00     0.077 C
HETATM   11  C13 UNL     1      16.696 -14.709 -17.392  1.00  0.00     0.037 C
HETATM   12  C14 UNL     1      16.868 -13.350 -18.068  1.00  0.00     0.118 C
HETATM   13  C15 UNL     1      16.161 -13.331 -19.402  1.00  0.00     0.037 C
HETATM   14  C16 UNL     1      15.144 -14.428 -19.393  1.00  0.00     0.077 C
HETATM   15  O4  UNL     1      13.264 -15.225 -18.288  1.00  0.00    -0.195 OA
HETATM   16  O5  UNL     1      12.124 -14.757 -17.905  1.00  0.00    -0.194 OA
ENDROOT
BRANCH   1  17
HETATM   17  C4  UNL     1       7.711 -12.089 -18.171  1.00  0.00     0.093 C
BRANCH  17  18
HETATM   18  N1  UNL     1       6.929 -12.283 -17.017  1.00  0.00    -0.382 N
BRANCH  18  19
HETATM   19  C2  UNL     1       6.847 -11.181 -16.175  1.00  0.00     0.076 C
HETATM   20  C1  UNL     1       5.351 -10.934 -15.904  1.00  0.00     0.032 C
HETATM   21  C3  UNL     1       7.401  -9.880 -16.619  1.00  0.00     0.032 C
ENDBRANCH  18  19
BRANCH  18  22
HETATM   22  C17 UNL     1       6.073 -13.377 -16.918  1.00  0.00     0.076 C
HETATM   23  C18 UNL     1       5.676 -13.990 -18.274  1.00  0.00     0.032 C
HETATM   24  C19 UNL     1       6.544 -14.503 -16.027  1.00  0.00     0.032 C
ENDBRANCH  18  22
ENDBRANCH  17  18
ENDBRANCH   1  17
BRANCH  12  25
HETATM   25  O3  UNL     1      18.220 -13.078 -18.285  1.00  0.00    -0.396 OA
ATOM     26  H3  UNL     1      18.753 -13.830 -18.056  1.00  0.00     0.210 HD
ENDBRANCH  12  25
TORSDOF 5
ENDMDL