MODEL 4
REMARK VINA RESULT: -7.088518551      1.940      5.212
REMARK  4 active torsions:
REMARK  status: ('A' for Active; 'I' for Inactive)
REMARK    1  A    between atoms: C2_2  and  C3_3
REMARK    2  A    between atoms: C3_3  and  S1_4
REMARK    3  A    between atoms: S1_4  and  C4_5
REMARK    4  A    between atoms: N2_8  and  C6_9
ROOT
HETATM    1  C4  UNL     1      12.916 -13.717 -18.963  1.00  0.00     0.072 A
HETATM    2  C5  UNL     1      11.663 -13.681 -18.389  1.00  0.00     0.139 A
HETATM    3  N1  UNL     1      10.894 -14.763 -17.901  1.00  0.00    -0.081 NA
HETATM    4  N2  UNL     1      11.282 -12.371 -18.372  1.00  0.00    -0.314 N
HETATM    5  C12 UNL     1      12.247 -11.622 -18.908  1.00  0.00     0.139 A
HETATM    6  N3  UNL     1      12.407 -10.313 -19.145  1.00  0.00    -0.325 N
ATOM      7  H3  UNL     1      11.642  -9.699 -18.867  1.00  0.00     0.169 HD
HETATM    8  C13 UNL     1      13.444  -9.747 -19.695  1.00  0.00     0.128 A
HETATM    9  C14 UNL     1      14.557 -10.626 -20.098  1.00  0.00     0.060 A
HETATM   10  N4  UNL     1      14.405 -11.907 -19.871  1.00  0.00    -0.352 N
ATOM     11  H4  UNL     1      15.158 -12.540 -20.140  1.00  0.00     0.166 HD
HETATM   12  C15 UNL     1      13.315 -12.422 -19.304  1.00  0.00     0.098 A
HETATM   13  C16 UNL     1      15.623  -9.703 -20.648  1.00  0.00     0.059 C
HETATM   14  C17 UNL     1      15.197  -8.962 -21.893  1.00  0.00     0.032 C
HETATM   15  C18 UNL     1      14.145  -7.814 -21.312  1.00  0.00     0.125 C
HETATM   16  N5  UNL     1      14.040  -8.619 -20.190  1.00  0.00    -0.365 N
HETATM   17  C19 UNL     1      15.334  -8.517 -19.585  1.00  0.00     0.135 C
ENDROOT
BRANCH   4  18
HETATM   18  C6  UNL     1      10.031 -11.911 -17.853  1.00  0.00     0.093 C
HETATM   19  C7  UNL     1      10.051 -10.445 -17.484  1.00  0.00     0.026 C
HETATM   20  C8  UNL     1       8.666  -9.971 -17.163  1.00  0.00     0.002 C
HETATM   21  C9  UNL     1       7.746 -11.112 -16.800  1.00  0.00     0.000 C
HETATM   22  C10 UNL     1       7.607 -12.107 -17.918  1.00  0.00     0.002 C
HETATM   23  C11 UNL     1       8.870 -12.123 -18.787  1.00  0.00     0.026 C
ENDBRANCH   4  18
BRANCH   1  24
HETATM   24  S1  UNL     1      13.922 -15.151 -19.251  1.00  0.00    -0.124 SA
BRANCH  24  25
HETATM   25  C3  UNL     1      14.439 -15.937 -17.714  1.00  0.00     0.079 C
BRANCH  25  26
HETATM   26  C2  UNL     1      15.841 -15.566 -17.314  1.00  0.00     0.006 C
HETATM   27  C1  UNL     1      16.451 -14.695 -18.396  1.00  0.00     0.006 C
ENDBRANCH  25  26
ENDBRANCH  24  25
ENDBRANCH   1  24
TORSDOF 4
ENDMDL