MODEL 4
REMARK VINA RESULT: -7.597103535      0.912      1.843
REMARK  4 active torsions:
REMARK  status: ('A' for Active; 'I' for Inactive)
REMARK    1  A    between atoms: C8_9  and  N2_10
REMARK    2  A    between atoms: N2_10  and  C9_12
REMARK    3  A    between atoms: C12_17  and  C13_18
REMARK    4  A    between atoms: N5_22  and  C15_23
ROOT
HETATM    1  C9  UNL     1      12.987 -16.317 -16.864  1.00  0.00     0.121 A
HETATM    2  C10 UNL     1      13.673 -17.350 -16.329  1.00  0.00     0.136 A
HETATM    3  N3  UNL     1      15.037 -17.359 -16.375  1.00  0.00    -0.370 N
ATOM      4  H3  UNL     1      15.536 -18.149 -15.967  1.00  0.00     0.164 HD
HETATM    5  C11 UNL     1      15.743 -16.372 -16.935  1.00  0.00     0.118 A
HETATM    6  C12 UNL     1      15.066 -15.312 -17.483  1.00  0.00     0.062 A
HETATM    7  N6  UNL     1      13.731 -15.322 -17.429  1.00  0.00    -0.340 N
ATOM      8  H6  UNL     1      13.233 -14.531 -17.838  1.00  0.00     0.167 HD
ENDROOT
BRANCH   1   9
HETATM    9  N2  UNL     1      11.605 -16.228 -16.890  1.00  0.00    -0.348 N
ATOM     10  H2  UNL     1      11.153 -17.139 -16.812  1.00  0.00     0.167 HD
BRANCH   9  11
HETATM   11  C8  UNL     1      10.680 -15.175 -16.998  1.00  0.00    -0.001 C
HETATM   12  C2  UNL     1      10.598 -14.156 -15.926  1.00  0.00     0.065 C
HETATM   13  C1  UNL     1      11.498 -12.991 -15.955  1.00  0.00     0.022 C
HETATM   14  C3  UNL     1       9.168 -13.617 -15.963  1.00  0.00     0.068 C
HETATM   15  N1  UNL     1       8.520 -13.811 -17.194  1.00  0.00    -0.392 N
HETATM   16  C4  UNL     1       7.265 -14.466 -17.175  1.00  0.00     0.149 C
HETATM   17  C5  UNL     1       9.235 -13.806 -18.397  1.00  0.00     0.084 C
HETATM   18  C6  UNL     1       9.403 -12.374 -18.889  1.00  0.00     0.032 C
HETATM   19  C7  UNL     1      10.589 -14.498 -18.363  1.00  0.00     0.078 C
ENDBRANCH   9  11
ENDBRANCH   1   9
BRANCH   6  20
HETATM   20  C13 UNL     1      15.802 -14.200 -18.112  1.00  0.00     0.026 A
HETATM   21  C14 UNL     1      17.031 -13.761 -17.743  1.00  0.00     0.122 A
HETATM   22  N4  UNL     1      17.342 -12.746 -18.557  1.00  0.00    -0.309 N
HETATM   23  N5  UNL     1      16.337 -12.542 -19.422  1.00  0.00    -0.298 N
ATOM     24  H4  UNL     1      18.209 -12.209 -18.525  1.00  0.00     0.186 HD
HETATM   25  C20 UNL     1      15.351 -13.448 -19.162  1.00  0.00     0.125 A
BRANCH  23  26
HETATM   26  C15 UNL     1      16.376 -11.513 -20.427  1.00  0.00     0.107 C
HETATM   27  C16 UNL     1      16.356 -10.146 -19.758  1.00  0.00     0.027 C
HETATM   28  C17 UNL     1      15.740  -9.267 -20.808  1.00  0.00     0.002 C
HETATM   29  C18 UNL     1      14.644 -10.115 -21.374  1.00  0.00     0.002 C
HETATM   30  C19 UNL     1      15.155 -11.529 -21.299  1.00  0.00     0.027 C
ENDBRANCH  23  26
ENDBRANCH   6  20
TORSDOF 4
ENDMDL