MODEL 4
REMARK VINA RESULT: -6.957740437      1.563      2.018
REMARK  5 active torsions:
REMARK  status: ('A' for Active; 'I' for Inactive)
REMARK    1  A    between atoms: C2_2  and  C4_4
REMARK    2  A    between atoms: C4_4  and  C5_5
REMARK    3  A    between atoms: C6_6  and  C7_7
REMARK    4  A    between atoms: C8_8  and  C9_9
REMARK    5  A    between atoms: C20_23  and  O4_24
ROOT
HETATM    1  C9  UNL     1      10.996 -12.593 -18.007  1.00  0.00     0.072 C
HETATM    2  C10 UNL     1       9.709 -11.918 -17.991  1.00  0.00     0.099 C
HETATM    3  C11 UNL     1       8.432 -12.745 -17.871  1.00  0.00     0.194 C
HETATM    4  O1  UNL     1       7.414 -12.097 -17.827  1.00  0.00    -0.292 OA
HETATM    5  C12 UNL     1       8.432 -14.176 -17.813  1.00  0.00     0.285 C
HETATM    6  C13 UNL     1       8.698 -14.725 -19.177  1.00  0.00     0.094 C
HETATM    7  O2  UNL     1       7.468 -14.990 -17.277  1.00  0.00    -0.187 OA
HETATM    8  O3  UNL     1       8.146 -16.130 -16.957  1.00  0.00    -0.195 OA
HETATM    9  C14 UNL     1       8.996 -15.971 -15.853  1.00  0.00     0.226 C
HETATM   10  C15 UNL     1       8.608 -16.779 -14.671  1.00  0.00     0.085 C
HETATM   11  C16 UNL     1      10.501 -16.093 -16.186  1.00  0.00     0.078 C
HETATM   12  C17 UNL     1      11.342 -15.002 -15.549  1.00  0.00     0.042 C
HETATM   13  C18 UNL     1      12.250 -14.186 -16.405  1.00  0.00    -0.054 C
HETATM   14  C19 UNL     1      12.844 -14.909 -17.565  1.00  0.00     0.046 C
HETATM   15  C20 UNL     1      11.827 -12.770 -16.763  1.00  0.00     0.053 C
HETATM   16  O5  UNL     1       8.894 -14.567 -15.610  1.00  0.00    -0.195 OA
HETATM   17  O6  UNL     1       9.325 -14.296 -16.833  1.00  0.00    -0.187 OA
ENDROOT
BRANCH   1  18
HETATM   18  C8  UNL     1      11.851 -11.896 -19.047  1.00  0.00    -0.015 C
HETATM   19  C7  UNL     1      12.241 -12.426 -20.155  1.00  0.00    -0.004 C
BRANCH  19  20
HETATM   20  C6  UNL     1      13.078 -11.647 -21.092  1.00  0.00    -0.004 C
HETATM   21  C5  UNL     1      14.104 -10.933 -20.688  1.00  0.00    -0.026 C
BRANCH  21  22
HETATM   22  C4  UNL     1      14.909 -10.172 -21.665  1.00  0.00     0.031 C
BRANCH  22  23
HETATM   23  C2  UNL     1      15.481  -8.912 -21.017  1.00  0.00    -0.019 C
HETATM   24  C1  UNL     1      15.957  -9.287 -19.629  1.00  0.00     0.010 C
HETATM   25  C3  UNL     1      14.372  -7.892 -20.889  1.00  0.00     0.010 C
ENDBRANCH  22  23
ENDBRANCH  21  22
ENDBRANCH  19  20
ENDBRANCH   1  18
BRANCH  15  26
HETATM   26  O4  UNL     1      11.441 -12.013 -15.675  1.00  0.00    -0.364 OA
ATOM     27  H4  UNL     1      12.126 -11.491 -15.275  1.00  0.00     0.217 HD
ENDBRANCH  15  26
TORSDOF 5
ENDMDL