MODEL 3
REMARK VINA RESULT: -8.114568726      0.250      1.464
REMARK  4 active torsions:
REMARK  status: ('A' for Active; 'I' for Inactive)
REMARK    1  A    between atoms: C4_7  and  C5_8
REMARK    2  A    between atoms: C15_18  and  S1_19
REMARK    3  A    between atoms: S1_19  and  C16_20
REMARK    4  A    between atoms: N6_27  and  C17_28
ROOT
HETATM    1  N1  UNL     1      16.856 -11.926 -21.299  1.00  0.00    -0.190 NA
HETATM    2  C1  UNL     1      15.808 -11.697 -20.859  1.00  0.00     0.119 C
HETATM    3  C2  UNL     1      14.501 -11.387 -20.316  1.00  0.00     0.131 A
HETATM    4  N2  UNL     1      13.946 -10.168 -20.249  1.00  0.00    -0.356 N
ATOM      5  H2  UNL     1      14.376  -9.302 -20.574  1.00  0.00     0.166 HD
HETATM    6  C3  UNL     1      12.735 -10.274 -19.686  1.00  0.00     0.098 A
HETATM    7  C4  UNL     1      12.470 -11.618 -19.364  1.00  0.00    -0.014 A
HETATM    8  C15 UNL     1      13.587 -12.295 -19.766  1.00  0.00     0.054 A
ENDROOT
BRANCH   8   9
HETATM    9  S1  UNL     1      13.865 -14.036 -19.640  1.00  0.00    -0.048 SA
BRANCH   9  10
HETATM   10  C16 UNL     1      15.038 -14.414 -18.324  1.00  0.00     0.183 A
HETATM   11  N3  UNL     1      16.212 -13.847 -18.085  1.00  0.00    -0.263 N
HETATM   12  N4  UNL     1      16.753 -14.417 -17.027  1.00  0.00    -0.226 N
ATOM     13  H3  UNL     1      16.629 -13.093 -18.631  1.00  0.00     0.190 HD
HETATM   14  N5  UNL     1      15.899 -15.337 -16.622  1.00  0.00    -0.224 N
ATOM     15  H4  UNL     1      17.655 -14.191 -16.605  1.00  0.00     0.210 HD
HETATM   16  N6  UNL     1      14.836 -15.352 -17.406  1.00  0.00    -0.249 N
ATOM     17  H5  UNL     1      16.040 -15.949 -15.819  1.00  0.00     0.210 HD
BRANCH  16  18
HETATM   18  C17 UNL     1      13.684 -16.250 -17.251  1.00  0.00     0.112 A
HETATM   19  C18 UNL     1      12.916 -16.214 -15.978  1.00  0.00     0.029 A
HETATM   20  C19 UNL     1      13.809 -17.385 -16.315  1.00  0.00     0.029 A
ENDBRANCH  16  18
ENDBRANCH   9  10
ENDBRANCH   8   9
BRANCH   7  21
HETATM   21  C5  UNL     1      11.238 -12.105 -18.753  1.00  0.00    -0.009 C
HETATM   22  C6  UNL     1      10.588 -13.078 -19.747  1.00  0.00     0.019 C
HETATM   23  C7  UNL     1       9.297 -13.638 -19.258  1.00  0.00    -0.013 C
HETATM   24  C8  UNL     1       8.376 -12.475 -18.998  1.00  0.00     0.009 C
HETATM   25  C12 UNL     1       9.572 -14.479 -18.048  1.00  0.00     0.009 C
HETATM   26  C9  UNL     1       8.957 -11.683 -17.882  1.00  0.00    -0.013 C
HETATM   27  C10 UNL     1       9.236 -12.530 -16.648  1.00  0.00     0.009 C
HETATM   28  C14 UNL     1      10.292 -11.060 -18.265  1.00  0.00     0.019 C
HETATM   29  C11 UNL     1      10.257 -13.584 -17.030  1.00  0.00    -0.013 C
HETATM   30  C13 UNL     1      11.534 -12.992 -17.526  1.00  0.00     0.019 C
ENDBRANCH   7  21
TORSDOF 4
ENDMDL