MODEL 4
REMARK VINA RESULT: -6.852063682      2.032      5.798
REMARK  6 active torsions:
REMARK  status: ('A' for Active; 'I' for Inactive)
REMARK    1  A    between atoms: C2_2  and  O1_3
REMARK    2  A    between atoms: O1_3  and  C3_4
REMARK    3  A    between atoms: C3_4  and  C4_6
REMARK    4  A    between atoms: C4_6  and  S1_7
REMARK    5  A    between atoms: S1_7  and  C5_8
REMARK    6  A    between atoms: C19_25  and  O3_26
ROOT
HETATM    1  C5  UNL     1      14.284 -13.759 -18.191  1.00  0.00     0.091 A
HETATM    2  N1  UNL     1      14.189 -14.320 -16.973  1.00  0.00    -0.359 N
ATOM      3  H1  UNL     1      15.012 -14.767 -16.567  1.00  0.00     0.166 HD
HETATM    4  C6  UNL     1      13.042 -14.308 -16.276  1.00  0.00     0.099 A
HETATM    5  C7  UNL     1      11.876 -13.713 -16.773  1.00  0.00    -0.006 A
HETATM    6  C8  UNL     1      11.921 -13.128 -18.013  1.00  0.00    -0.016 A
HETATM    7  C9  UNL     1      13.146 -13.166 -18.701  1.00  0.00     0.085 A
HETATM    8  C10 UNL     1      13.281 -12.540 -19.979  1.00  0.00     0.103 C
HETATM    9  N2  UNL     1      13.421 -12.024 -21.014  1.00  0.00    -0.191 NA
HETATM   10  C11 UNL     1      10.735 -12.486 -18.625  1.00  0.00    -0.011 C
HETATM   11  C12 UNL     1      10.933 -10.989 -18.786  1.00  0.00     0.021 C
HETATM   12  C13 UNL     1      10.446 -13.139 -19.957  1.00  0.00     0.014 C
HETATM   13  C14 UNL     1       9.029 -13.663 -20.081  1.00  0.00     0.001 C
HETATM   14  C15 UNL     1       7.976 -12.711 -19.629  1.00  0.00     0.000 C
HETATM   15  C16 UNL     1       8.285 -12.096 -18.275  1.00  0.00     0.006 C
HETATM   16  C17 UNL     1       9.533 -12.772 -17.763  1.00  0.00     0.001 C
HETATM   17  C18 UNL     1       9.827 -12.515 -16.325  1.00  0.00     0.042 C
HETATM   18  C19 UNL     1      10.678 -13.730 -15.895  1.00  0.00     0.153 C
ENDROOT
BRANCH   1  19
HETATM   19  S1  UNL     1      15.809 -13.774 -19.121  1.00  0.00    -0.101 SA
BRANCH  19  20
HETATM   20  C4  UNL     1      16.847 -12.354 -18.790  1.00  0.00     0.191 C
BRANCH  20  21
HETATM   21  C3  UNL     1      16.782 -11.429 -19.949  1.00  0.00     0.268 C
HETATM   22  O2  UNL     1      16.807 -11.940 -21.112  1.00  0.00    -0.264 OA
BRANCH  21  23
HETATM   23  O1  UNL     1      16.695 -10.061 -19.869  1.00  0.00    -0.321 OA
BRANCH  23  24
HETATM   24  C2  UNL     1      15.526  -9.295 -19.898  1.00  0.00     0.174 C
HETATM   25  C1  UNL     1      15.169  -8.774 -21.257  1.00  0.00     0.034 C
ENDBRANCH  23  24
ENDBRANCH  21  23
ENDBRANCH  20  21
ENDBRANCH  19  20
ENDBRANCH   1  19
BRANCH  18  26
HETATM   26  O3  UNL     1      11.010 -13.510 -14.559  1.00  0.00    -0.391 OA
ATOM     27  H3  UNL     1      10.238 -13.381 -14.019  1.00  0.00     0.210 HD
ENDBRANCH  18  26
TORSDOF 6
ENDMDL