MODEL 1
REMARK VINA RESULT: -8.948240047      0.000      0.000
REMARK  4 active torsions:
REMARK  status: ('A' for Active; 'I' for Inactive)
REMARK    1  A    between atoms: S1_3  and  C2_4
REMARK    2  A    between atoms: C4_6  and  C5_7
REMARK    3  A    between atoms: C6_10  and  C7_11
REMARK    4  A    between atoms: N5_24  and  C14_25
ROOT
HETATM    1  N1  UNL     1      14.484  -7.214 -20.686  1.00  0.00    -0.184 NA
HETATM    2  C1  UNL     1      14.631  -8.313 -21.013  1.00  0.00     0.140 C
HETATM    3  S1  UNL     1      14.830  -9.990 -21.509  1.00  0.00     0.003 SA
ENDROOT
BRANCH   3   4
HETATM    4  C2  UNL     1      13.885 -11.150 -20.531  1.00  0.00     0.060 C
HETATM    5  C3  UNL     1      12.949 -10.412 -19.538  1.00  0.00     0.078 C
HETATM    6  C4  UNL     1      11.826 -11.407 -19.283  1.00  0.00     0.071 C
HETATM    7  C12 UNL     1      12.479 -12.617 -18.637  1.00  0.00     0.033 C
HETATM    8  C13 UNL     1      13.355 -13.243 -19.712  1.00  0.00     0.124 C
HETATM    9  N5  UNL     1      14.431 -12.294 -20.053  1.00  0.00    -0.373 N
BRANCH   6  10
HETATM   10  C5  UNL     1      10.750 -10.861 -18.459  1.00  0.00     0.152 A
HETATM   11  N2  UNL     1       9.747 -11.573 -17.925  1.00  0.00    -0.326 N
HETATM   12  C6  UNL     1       8.941 -10.746 -17.226  1.00  0.00     0.108 A
ATOM     13  H2  UNL     1       9.615 -12.579 -18.030  1.00  0.00     0.169 HD
HETATM   14  N4  UNL     1       9.503  -9.517 -17.364  1.00  0.00    -0.247 N
HETATM   15  O1  UNL     1      10.576  -9.635 -18.104  1.00  0.00    -0.222 OA
ATOM     16  H4  UNL     1       9.150  -8.650 -16.960  1.00  0.00     0.196 HD
BRANCH  12  17
HETATM   17  C7  UNL     1       7.707 -11.069 -16.465  1.00  0.00     0.058 C
HETATM   18  C8  UNL     1       7.035 -12.295 -16.992  1.00  0.00     0.040 C
HETATM   19  C9  UNL     1       5.672 -12.480 -16.364  1.00  0.00     0.233 C
HETATM   20  N3  UNL     1       4.861 -11.288 -16.425  1.00  0.00    -0.075 N
HETATM   21  C10 UNL     1       5.536 -10.248 -15.678  1.00  0.00     0.233 C
ATOM     22  H32 UNL     1       4.642 -11.008 -17.381  1.00  0.00     0.277 HD
ATOM     23  H31 UNL     1       3.904 -11.445 -16.105  1.00  0.00     0.277 HD
HETATM   24  C11 UNL     1       6.773  -9.871 -16.488  1.00  0.00     0.040 C
ENDBRANCH  12  17
ENDBRANCH   6  10
BRANCH   9  25
HETATM   25  C14 UNL     1      15.656 -12.762 -19.797  1.00  0.00     0.084 C
HETATM   26  C15 UNL     1      16.528 -11.758 -19.066  1.00  0.00     0.025 C
HETATM   27  C16 UNL     1      17.761 -12.619 -18.733  1.00  0.00     0.002 C
HETATM   28  C17 UNL     1      17.067 -13.825 -18.134  1.00  0.00     0.002 C
HETATM   29  C18 UNL     1      15.923 -14.042 -19.105  1.00  0.00     0.025 C
ENDBRANCH   9  25
ENDBRANCH   3   4
TORSDOF 4
ENDMDL