MODEL 3
REMARK VINA RESULT: -8.215320203      1.087      1.560
REMARK  4 active torsions:
REMARK  status: ('A' for Active; 'I' for Inactive)
REMARK    1  A    between atoms: C3_6  and  C4_7
REMARK    2  A    between atoms: C7_10  and  C8_11
REMARK    3  A    between atoms: C8_11  and  C9_13
REMARK    4  A    between atoms: N2_16  and  C12_17
ROOT
HETATM    1  C9  UNL     1      14.102 -13.696 -18.761  1.00  0.00     0.067 A
HETATM    2  C10 UNL     1      15.442 -13.588 -18.680  1.00  0.00     0.008 A
HETATM    3  C11 UNL     1      15.905 -14.377 -17.628  1.00  0.00     0.051 A
HETATM    4  N2  UNL     1      14.839 -14.952 -17.054  1.00  0.00    -0.308 N
HETATM    5  C18 UNL     1      13.767 -14.570 -17.674  1.00  0.00     0.138 A
HETATM    6  N3  UNL     1      12.401 -14.793 -17.359  1.00  0.00    -0.081 NA
HETATM    7  C19 UNL     1      17.375 -14.261 -17.650  1.00  0.00     0.226 C
HETATM    8  O3  UNL     1      17.634 -13.022 -18.188  1.00  0.00    -0.381 OA
HETATM    9  C20 UNL     1      16.679 -12.774 -19.167  1.00  0.00     0.210 C
ENDROOT
BRANCH   1  10
HETATM   10  C8  UNL     1      13.000 -13.197 -19.563  1.00  0.00     0.201 C
HETATM   11  O2  UNL     1      12.496 -13.924 -20.442  1.00  0.00    -0.286 OA
BRANCH  10  12
HETATM   12  C7  UNL     1      12.451 -11.819 -19.391  1.00  0.00     0.071 A
HETATM   13  C2  UNL     1      11.274 -11.445 -18.809  1.00  0.00     0.045 A
HETATM   14  C1  UNL     1      10.178 -12.205 -18.153  1.00  0.00     0.071 C
HETATM   15  N1  UNL     1      11.238 -10.049 -18.815  1.00  0.00    -0.265 N
HETATM   16  O1  UNL     1      12.290  -9.617 -19.344  1.00  0.00    -0.241 OA
ATOM     17  H1  UNL     1      10.480  -9.474 -18.448  1.00  0.00     0.194 HD
HETATM   18  C3  UNL     1      13.072 -10.660 -19.714  1.00  0.00     0.096 A
BRANCH  18  19
HETATM   19  C4  UNL     1      14.400 -10.459 -20.336  1.00  0.00     0.038 C
HETATM   20  C5  UNL     1      14.364 -10.853 -21.766  1.00  0.00     0.016 C
HETATM   21  C6  UNL     1      14.562  -8.857 -20.461  1.00  0.00     0.016 C
ENDBRANCH  18  19
ENDBRANCH  10  12
ENDBRANCH   1  10
BRANCH   4  22
HETATM   22  C12 UNL     1      14.979 -16.025 -16.069  1.00  0.00    -0.004 C
HETATM   23  C13 UNL     1      14.878 -17.414 -16.566  1.00  0.00     0.053 C
HETATM   24  C14 UNL     1      13.569 -18.072 -16.347  1.00  0.00     0.006 C
HETATM   25  C15 UNL     1      12.613 -17.183 -15.524  1.00  0.00     0.001 C
HETATM   26  C16 UNL     1      13.439 -16.794 -14.308  1.00  0.00     0.006 C
HETATM   27  C17 UNL     1      14.308 -15.659 -14.816  1.00  0.00     0.053 C
ENDBRANCH   4  22
TORSDOF 4
ENDMDL