MODEL 1
REMARK VINA RESULT: -7.596110373      0.000      0.000
REMARK  6 active torsions:
REMARK  status: ('A' for Active; 'I' for Inactive)
REMARK    1  A    between atoms: C2_2  and  C4_4
REMARK    2  A    between atoms: C5_6  and  N1_7
REMARK    3  A    between atoms: N1_7  and  N2_9
REMARK       I    between atoms: N2_9  and  C7_11
REMARK    4  A    between atoms: C7_11  and  C8_13
REMARK    5  A    between atoms: N3_18  and  C12_19
REMARK    6  A    between atoms: C18_25  and  O3_26
ROOT
HETATM    1  C4  UNL     1      14.409 -11.212 -20.296  1.00  0.00     0.041 A
HETATM    2  S1  UNL     1      12.765 -11.327 -19.870  1.00  0.00    -0.052 SA
HETATM    3  C5  UNL     1      12.842 -12.790 -19.011  1.00  0.00     0.168 A
HETATM    4  N3  UNL     1      14.134 -13.140 -19.083  1.00  0.00    -0.301 N
HETATM    5  C18 UNL     1      14.943 -12.332 -19.743  1.00  0.00     0.158 A
ENDROOT
BRANCH   3   6
HETATM    6  N1  UNL     1      11.882 -13.441 -18.413  1.00  0.00    -0.275 N
ATOM      7  H1  UNL     1      11.749 -14.444 -18.536  1.00  0.00     0.189 HD
BRANCH   6   8
HETATM    8  N2  UNL     1      11.029 -12.660 -17.574  1.00  0.00    -0.259 N
HETATM    9  C6  UNL     1      11.568 -12.226 -16.306  1.00  0.00     0.181 C
HETATM   10  C7  UNL     1       9.745 -12.345 -17.983  1.00  0.00     0.273 C
HETATM   11  O1  UNL     1       9.404 -12.805 -19.146  1.00  0.00    -0.266 OA
BRANCH  10  12
HETATM   12  C8  UNL     1       8.741 -11.579 -17.298  1.00  0.00     0.058 A
HETATM   13  C9  UNL     1       8.722 -10.162 -17.204  1.00  0.00     0.043 A
HETATM   14  C10 UNL     1       7.615  -9.812 -16.479  1.00  0.00     0.142 A
HETATM   15  O2  UNL     1       6.979 -10.883 -16.135  1.00  0.00    -0.334 OA
HETATM   16  C11 UNL     1       7.616 -11.946 -16.603  1.00  0.00     0.158 A
ENDBRANCH  10  12
ENDBRANCH   6   8
ENDBRANCH   3   6
BRANCH   4  17
HETATM   17  C12 UNL     1      14.665 -14.384 -18.448  1.00  0.00     0.094 C
HETATM   18  C13 UNL     1      15.090 -14.187 -17.050  1.00  0.00     0.026 C
HETATM   19  C14 UNL     1      16.058 -15.348 -16.739  1.00  0.00     0.002 C
HETATM   20  C15 UNL     1      15.274 -16.615 -16.980  1.00  0.00     0.000 C
HETATM   21  C16 UNL     1      13.835 -16.416 -17.303  1.00  0.00     0.002 C
HETATM   22  C17 UNL     1      13.618 -15.489 -18.484  1.00  0.00     0.026 C
ENDBRANCH   4  17
BRANCH   1  23
HETATM   23  C2  UNL     1      15.111 -10.129 -21.096  1.00  0.00     0.022 C
HETATM   24  C1  UNL     1      14.508  -8.785 -20.773  1.00  0.00     0.015 C
HETATM   25  C3  UNL     1      14.966 -10.509 -22.544  1.00  0.00     0.015 C
ENDBRANCH   1  23
BRANCH   5  26
HETATM   26  O3  UNL     1      16.348 -12.588 -19.897  1.00  0.00    -0.345 OA
ATOM     27  H3  UNL     1      16.759 -13.257 -19.362  1.00  0.00     0.219 HD
ENDBRANCH   5  26
TORSDOF 6
ENDMDL