MODEL 2
REMARK VINA RESULT: -5.591542544      7.076      8.080
REMARK  4 active torsions:
REMARK  status: ('A' for Active; 'I' for Inactive)
REMARK    1  A    between atoms: C4_4  and  C5_5
REMARK    2  A    between atoms: C5_5  and  N1_6
REMARK    3  A    between atoms: N1_6  and  C6_9
REMARK    4  A    between atoms: C6_9  and  C7_10
ROOT
HETATM    1  C1  UNL     1     -43.003 -62.959  56.065  1.00  0.00     0.037 C
HETATM    2  C2  UNL     1     -42.330 -62.521  57.105  1.00  0.00    -0.001 C
HETATM    3  C3  UNL     1     -43.068 -62.110  58.352  1.00  0.00     0.090 C
HETATM    4  C4  UNL     1     -42.010 -61.772  59.361  1.00  0.00     0.219 C
HETATM    5  N2  UNL     1     -41.083 -60.794  58.784  1.00  0.00    -0.049 N
ATOM      6  H21 UNL     1     -40.609 -60.223  59.484  1.00  0.00     0.280 HD
ATOM      7  H22 UNL     1     -41.553 -60.031  58.296  1.00  0.00     0.280 HD
HETATM    8  C8  UNL     1     -40.177 -61.536  57.943  1.00  0.00     0.280 C
HETATM    9  C9  UNL     1     -39.245 -60.643  57.170  1.00  0.00     0.063 C
HETATM   10  N3  UNL     1     -40.917 -62.422  57.075  1.00  0.00    -0.367 N
ATOM     11  H3  UNL     1     -40.401 -63.001  56.413  1.00  0.00     0.161 HD
ENDROOT
BRANCH   4  12
HETATM   12  C5  UNL     1     -42.521 -61.302  60.691  1.00  0.00     0.265 C
BRANCH  12  13
HETATM   13  N1  UNL     1     -43.798 -60.653  60.639  1.00  0.00    -0.072 N
ATOM     14  H12 UNL     1     -43.746 -59.634  60.668  1.00  0.00     0.277 HD
ATOM     15  H11 UNL     1     -44.260 -60.720  59.731  1.00  0.00     0.277 HD
BRANCH  13  16
HETATM   16  C6  UNL     1     -44.572 -61.242  61.744  1.00  0.00     0.247 C
BRANCH  16  17
HETATM   17  C7  UNL     1     -45.237 -62.530  61.356  1.00  0.00     0.142 C
HETATM   18 CL1  UNL     1     -44.862 -63.880  62.416  1.00  0.00    -0.129 Cl
ENDBRANCH  16  17
ENDBRANCH  13  16
ENDBRANCH  12  13
ENDBRANCH   4  12
TORSDOF 4
ENDMDL