MODEL 2
REMARK VINA RESULT: -6.219119280      2.826      5.968
REMARK  3 active torsions:
REMARK  status: ('A' for Active; 'I' for Inactive)
REMARK    1  A    between atoms: C4_5  and  N1_6
REMARK    2  A    between atoms: N1_6  and  C5_8
REMARK    3  A    between atoms: C5_8  and  C6_9
ROOT
HETATM    1  C6  UNL     1     -43.885 -61.952  60.452  1.00  0.00     0.206 C
HETATM    2  C7  UNL     1     -44.423 -62.914  61.453  1.00  0.00     0.062 C
HETATM    3  C8  UNL     1     -45.912 -62.776  61.557  1.00  0.00     0.236 C
HETATM    4  N2  UNL     1     -46.334 -61.418  61.570  1.00  0.00    -0.051 N
ATOM      5  H21 UNL     1     -47.059 -61.278  62.274  1.00  0.00     0.279 HD
ATOM      6  H22 UNL     1     -46.866 -61.203  60.726  1.00  0.00     0.279 HD
HETATM    7  C9  UNL     1     -45.279 -60.470  61.748  1.00  0.00     0.463 C
HETATM    8  N3  UNL     1     -44.187 -60.608  60.814  1.00  0.00    -0.045 N
ATOM      9  H31 UNL     1     -44.358 -60.046  59.980  1.00  0.00     0.279 HD
ATOM     10  H32 UNL     1     -43.353 -60.141  61.171  1.00  0.00     0.279 HD
ENDROOT
BRANCH   1  11
HETATM   11  C5  UNL     1     -42.395 -62.212  60.186  1.00  0.00     0.147 C
BRANCH  11  12
HETATM   12  N1  UNL     1     -41.837 -61.055  59.633  1.00  0.00    -0.415 N
ATOM     13  H1  UNL     1     -41.783 -60.206  60.195  1.00  0.00     0.153 HD
BRANCH  12  14
HETATM   14  C4  UNL     1     -41.346 -61.047  58.305  1.00  0.00     0.079 C
HETATM   15  C3  UNL     1     -41.580 -62.336  57.554  1.00  0.00     0.027 C
HETATM   16  C2  UNL     1     -40.602 -62.183  56.403  1.00  0.00     0.039 C
HETATM   17  C1  UNL     1     -39.338 -61.790  57.151  1.00  0.00     0.172 C
HETATM   18  F1  UNL     1     -38.403 -61.287  56.307  1.00  0.00    -0.249 F
HETATM   19  C10 UNL     1     -39.887 -60.748  58.134  1.00  0.00     0.062 C
ENDBRANCH  12  14
ENDBRANCH  11  12
ENDBRANCH   1  11
TORSDOF 3
ENDMDL