MODEL 2
REMARK VINA RESULT: -5.714990713      2.119      2.674
REMARK  4 active torsions:
REMARK  status: ('A' for Active; 'I' for Inactive)
REMARK    1  A    between atoms: C3_3  and  O1_4
REMARK    2  A    between atoms: O1_4  and  C4_5
REMARK    3  A    between atoms: C4_5  and  C5_6
REMARK    4  A    between atoms: C5_6  and  C6_7
ROOT
HETATM    1  O1  UNL     1     -45.257 -63.854  62.288  1.00  0.00    -0.385 OA
ENDROOT
BRANCH   1   2
HETATM    2  C3  UNL     1     -44.493 -62.973  61.577  1.00  0.00     0.124 C
HETATM    3  C2  UNL     1     -45.230 -61.671  61.412  1.00  0.00     0.059 C
HETATM    4  C1  UNL     1     -44.286 -60.488  61.350  1.00  0.00     0.235 C
HETATM    5  N4  UNL     1     -43.165 -60.887  60.522  1.00  0.00    -0.075 N
HETATM    6  C8  UNL     1     -42.354 -61.882  61.145  1.00  0.00     0.235 C
ATOM      7  H42 UNL     1     -43.480 -61.193  59.601  1.00  0.00     0.277 HD
ATOM      8  H41 UNL     1     -42.608 -60.079  60.244  1.00  0.00     0.277 HD
HETATM    9  C7  UNL     1     -43.109 -62.751  62.130  1.00  0.00     0.059 C
ENDBRANCH   1   2
BRANCH   1  10
HETATM   10  C4  UNL     1     -45.206 -63.833  63.621  1.00  0.00     0.175 C
BRANCH  10  11
HETATM   11  C5  UNL     1     -46.577 -63.791  64.237  1.00  0.00     0.105 C
BRANCH  11  12
HETATM   12  C6  UNL     1     -47.676 -63.902  63.247  1.00  0.00     0.114 A
HETATM   13  N1  UNL     1     -48.356 -63.022  62.465  1.00  0.00    -0.273 N
HETATM   14  N2  UNL     1     -49.072 -64.045  61.991  1.00  0.00    -0.240 N
ATOM     15  H1  UNL     1     -48.330 -62.014  62.308  1.00  0.00     0.190 HD
HETATM   16  N3  UNL     1     -48.411 -64.888  62.751  1.00  0.00    -0.273 N
ATOM     17  H2  UNL     1     -49.828 -64.134  61.313  1.00  0.00     0.208 HD
ATOM     18  H3  UNL     1     -48.449 -65.895  62.900  1.00  0.00     0.190 HD
ENDBRANCH  11  12
ENDBRANCH  10  11
ENDBRANCH   1  10
TORSDOF 4
ENDMDL