MODEL 1
REMARK VINA RESULT: -6.087962825      0.000      0.000
REMARK  3 active torsions:
REMARK  status: ('A' for Active; 'I' for Inactive)
REMARK    1  A    between atoms: C1_4  and  C2_6
REMARK    2  A    between atoms: N3_7  and  N4_9
REMARK    3  A    between atoms: N4_9  and  C3_11
ROOT
HETATM    1  N4  UNL     1     -39.028 -58.526  62.109  1.00  0.00    -0.332 N
ATOM      2  H4  UNL     1     -39.247 -58.027  62.971  1.00  0.00     0.180 HD
ENDROOT
BRANCH   1   3
HETATM    3  N3  UNL     1     -37.693 -58.655  61.720  1.00  0.00    -0.313 N
HETATM    4  C2  UNL     1     -36.756 -58.949  62.545  1.00  0.00     0.151 C
ATOM      5  H3  UNL     1     -37.454 -58.509  60.740  1.00  0.00     0.185 HD
BRANCH   4   6
HETATM    6  C1  UNL     1     -35.380 -59.072  62.089  1.00  0.00     0.126 C
HETATM    7  N1  UNL     1     -34.695 -58.005  61.882  1.00  0.00    -0.387 N
ATOM      8  H12 UNL     1     -33.730 -58.091  61.562  1.00  0.00     0.157 HD
ATOM      9  H11 UNL     1     -35.121 -57.092  62.040  1.00  0.00     0.157 HD
HETATM   10  N2  UNL     1     -34.791 -60.336  61.870  1.00  0.00    -0.082 NA
ENDBRANCH   4   6
ENDBRANCH   1   3
BRANCH   1  11
HETATM   11  C3  UNL     1     -40.115 -59.083  61.321  1.00  0.00     0.099 C
HETATM   12  C4  UNL     1     -39.860 -59.025  59.858  1.00  0.00     0.028 C
HETATM   13  C5  UNL     1     -39.879 -60.315  59.141  1.00  0.00     0.022 C
HETATM   14  C6  UNL     1     -40.981 -61.245  59.494  1.00  0.00     0.082 C
HETATM   15 CL1  UNL     1     -42.208 -61.380  58.191  1.00  0.00    -0.125 Cl
HETATM   16  C7  UNL     1     -41.624 -60.895  60.808  1.00  0.00     0.022 C
HETATM   17  C8  UNL     1     -40.471 -60.484  61.735  1.00  0.00     0.028 C
ENDBRANCH   1  11
TORSDOF 3
ENDMDL