MODEL 3
REMARK VINA RESULT: -5.013291255      4.052      4.832
REMARK  6 active torsions:
REMARK  status: ('A' for Active; 'I' for Inactive)
REMARK    1  A    between atoms: C1_4  and  N2_5
REMARK    2  A    between atoms: N3_7  and  N4_9
REMARK    3  A    between atoms: N4_9  and  C2_11
REMARK    4  A    between atoms: C2_11  and  N5_13
REMARK    5  A    between atoms: N5_13  and  C3_15
REMARK    6  A    between atoms: C3_15  and  C4_16
ROOT
HETATM    1  N4  UNL     1     -47.845 -61.909  62.403  1.00  0.00    -0.262 N
ATOM      2  H4  UNL     1     -48.642 -61.774  61.781  1.00  0.00     0.191 HD
ENDROOT
BRANCH   1   3
HETATM    3  N3  UNL     1     -48.056 -62.380  63.691  1.00  0.00    -0.240 N
HETATM    4  N2  UNL     1     -48.242 -63.540  64.075  1.00  0.00    -0.282 N
ATOM      5  H2  UNL     1     -48.385 -63.735  65.066  1.00  0.00     0.189 HD
ATOM      6  H3  UNL     1     -48.058 -61.670  64.423  1.00  0.00     0.208 HD
BRANCH   4   7
HETATM    7  C1  UNL     1     -48.257 -64.606  63.125  1.00  0.00     0.192 C
HETATM    8  N1  UNL     1     -49.430 -65.079  62.858  1.00  0.00    -0.394 N
ATOM      9  H12 UNL     1     -50.270 -64.709  63.300  1.00  0.00     0.156 HD
ATOM     10  H11 UNL     1     -49.440 -65.840  62.179  1.00  0.00     0.156 HD
ENDBRANCH   4   7
ENDBRANCH   1   3
BRANCH   1  11
HETATM   11  C2  UNL     1     -46.533 -61.611  61.936  1.00  0.00     0.187 C
HETATM   12  S1  UNL     1     -45.888 -60.154  62.249  1.00  0.00    -0.040 SA
BRANCH  11  13
HETATM   13  N5  UNL     1     -45.819 -62.568  61.189  1.00  0.00    -0.365 N
ATOM     14  H5  UNL     1     -46.280 -62.999  60.387  1.00  0.00     0.161 HD
BRANCH  13  15
HETATM   15  C3  UNL     1     -44.477 -62.967  61.501  1.00  0.00     0.137 C
BRANCH  15  16
HETATM   16  C4  UNL     1     -44.506 -64.027  62.558  1.00  0.00     0.134 C
HETATM   17 CL1  UNL     1     -42.988 -64.962  62.604  1.00  0.00    -0.129 Cl
ENDBRANCH  15  16
ENDBRANCH  13  15
ENDBRANCH  11  13
ENDBRANCH   1  11
TORSDOF 6
ENDMDL