MODEL 5
REMARK VINA RESULT: -4.802293884      2.615      4.412
REMARK  5 active torsions:
REMARK  status: ('A' for Active; 'I' for Inactive)
REMARK    1  A    between atoms: C2_2  and  N1_3
REMARK    2  A    between atoms: C2_2  and  C3_8
REMARK    3  A    between atoms: C3_8  and  N2_9
REMARK    4  A    between atoms: C6_12  and  C7_13
REMARK    5  A    between atoms: C7_13  and  N3_14
ROOT
HETATM    1  N2  UNL     1     -45.246 -62.427  61.840  1.00  0.00     0.092 N
HETATM    2  C4  UNL     1     -44.319 -63.517  62.194  1.00  0.00     0.273 C
HETATM    3  C5  UNL     1     -43.054 -63.270  61.421  1.00  0.00     0.038 C
HETATM    4  C6  UNL     1     -43.574 -62.493  60.231  1.00  0.00     0.041 C
HETATM    5  C8  UNL     1     -44.575 -61.566  60.943  1.00  0.00     0.279 C
ENDROOT
BRANCH   1   6
HETATM    6  C3  UNL     1     -45.727 -61.887  63.051  1.00  0.00     0.327 C
BRANCH   6   7
HETATM    7  C2  UNL     1     -47.141 -61.546  63.183  1.00  0.00     0.221 C
HETATM    8  C1  UNL     1     -47.742 -61.536  64.536  1.00  0.00     0.066 C
HETATM    9 CL1  UNL     1     -47.493 -59.952  62.434  1.00  0.00    -0.087 Cl
BRANCH   7  10
HETATM   10  N1  UNL     1     -47.911 -62.518  62.383  1.00  0.00    -0.055 N
ATOM     11  H13 UNL     1     -48.775 -62.816  62.835  1.00  0.00     0.276 HD
ATOM     12  H12 UNL     1     -48.336 -62.107  61.551  1.00  0.00     0.276 HD
ATOM     13  H11 UNL     1     -47.280 -63.290  62.174  1.00  0.00     0.276 HD
ENDBRANCH   7  10
ENDBRANCH   6   7
ENDBRANCH   1   6
BRANCH   4  14
HETATM   14  C7  UNL     1     -42.491 -61.697  59.564  1.00  0.00     0.236 C
BRANCH  14  15
HETATM   15  N3  UNL     1     -43.109 -60.965  58.466  1.00  0.00    -0.079 N
ATOM     16  H33 UNL     1     -42.471 -60.801  57.687  1.00  0.00     0.274 HD
ATOM     17  H32 UNL     1     -43.800 -61.517  57.957  1.00  0.00     0.274 HD
ATOM     18  H31 UNL     1     -43.493 -60.104  58.856  1.00  0.00     0.274 HD
ENDBRANCH  14  15
ENDBRANCH   4  14
TORSDOF 5
ENDMDL