MODEL 3
REMARK VINA RESULT: -5.120388081      2.368      4.218
REMARK  5 active torsions:
REMARK  status: ('A' for Active; 'I' for Inactive)
REMARK    1  A    between atoms: N1_2  and  C2_5
REMARK    2  A    between atoms: C2_5  and  C3_6
REMARK    3  A    between atoms: C3_6  and  C4_7
REMARK    4  A    between atoms: C4_7  and  N2_8
REMARK    5  A    between atoms: C8_16  and  N3_17
ROOT
HETATM    1  C3  UNL     1     -45.536 -61.565  62.011  1.00  0.00     0.009 C
HETATM    2  C5  UNL     1     -46.239 -62.875  62.013  1.00  0.00     0.014 C
HETATM    3  C6  UNL     1     -45.794 -63.801  63.098  1.00  0.00     0.023 C
HETATM    4  C7  UNL     1     -46.271 -63.223  64.430  1.00  0.00     0.112 C
HETATM    5 CL1  UNL     1     -48.034 -63.446  64.550  1.00  0.00    -0.123 Cl
HETATM    6  C8  UNL     1     -45.850 -61.800  64.510  1.00  0.00     0.202 C
HETATM    7  C9  UNL     1     -45.016 -61.297  63.393  1.00  0.00     0.047 C
ENDROOT
BRANCH   1   8
HETATM    8  C2  UNL     1     -44.443 -61.475  60.961  1.00  0.00     0.242 C
BRANCH   8   9
HETATM    9  N1  UNL     1     -43.511 -60.422  61.170  1.00  0.00    -0.078 N
HETATM   10  C1  UNL     1     -42.173 -61.014  61.054  1.00  0.00     0.267 C
ATOM     11  H12 UNL     1     -43.656 -59.926  62.049  1.00  0.00     0.276 HD
ATOM     12  H11 UNL     1     -43.654 -59.627  60.548  1.00  0.00     0.276 HD
ENDBRANCH   8   9
ENDBRANCH   1   8
BRANCH   1  13
HETATM   13  C4  UNL     1     -46.480 -60.415  61.616  1.00  0.00     0.240 C
BRANCH  13  14
HETATM   14  N2  UNL     1     -47.853 -60.716  61.770  1.00  0.00    -0.079 N
ATOM     15  H23 UNL     1     -48.185 -60.417  62.687  1.00  0.00     0.274 HD
ATOM     16  H22 UNL     1     -48.421 -60.113  61.175  1.00  0.00     0.274 HD
ATOM     17  H21 UNL     1     -48.085 -61.697  61.610  1.00  0.00     0.274 HD
ENDBRANCH  13  14
ENDBRANCH   1  13
BRANCH   6  18
HETATM   18  N3  UNL     1     -45.046 -61.659  65.735  1.00  0.00    -0.074 N
ATOM     19  H33 UNL     1     -45.242 -62.381  66.428  1.00  0.00     0.274 HD
ATOM     20  H32 UNL     1     -44.060 -61.878  65.594  1.00  0.00     0.274 HD
ATOM     21  H31 UNL     1     -45.202 -60.713  66.085  1.00  0.00     0.274 HD
ENDBRANCH   6  18
TORSDOF 5
ENDMDL