MODEL 1
REMARK VINA RESULT: -4.791056621      0.000      0.000
REMARK  3 active torsions:
REMARK  status: ('A' for Active; 'I' for Inactive)
REMARK    1  A    between atoms: C2_2  and  C4_5
REMARK    2  A    between atoms: C4_5  and  N1_6
REMARK    3  A    between atoms: N1_6  and  C5_9
ROOT
HETATM    1  N1  UNL     1     -45.570 -64.075  62.520  1.00  0.00    -0.059 N
ATOM      2  H11 UNL     1     -45.554 -65.035  62.867  1.00  0.00     0.278 HD
ATOM      3  H12 UNL     1     -45.201 -64.260  61.587  1.00  0.00     0.278 HD
ENDROOT
BRANCH   1   4
HETATM    4  C4  UNL     1     -44.722 -63.189  63.290  1.00  0.00     0.258 C
BRANCH   4   5
HETATM    5  C2  UNL     1     -43.314 -63.344  62.756  1.00  0.00     0.053 C
HETATM    6  C1  UNL     1     -43.245 -62.858  61.309  1.00  0.00     0.034 C
HETATM    7  C3  UNL     1     -42.928 -64.811  62.814  1.00  0.00     0.034 C
HETATM    8 CL1  UNL     1     -42.237 -62.349  63.731  1.00  0.00    -0.118 Cl
ENDBRANCH   4   5
ENDBRANCH   1   4
BRANCH   1   9
HETATM    9  C5  UNL     1     -46.922 -63.507  62.492  1.00  0.00     0.274 C
HETATM   10  C6  UNL     1     -47.643 -64.121  63.666  1.00  0.00     0.277 C
HETATM   11  N2  UNL     1     -48.459 -63.162  64.286  1.00  0.00    -0.064 N
HETATM   12  C7  UNL     1     -47.810 -61.930  64.525  1.00  0.00     0.308 C
ATOM     13  H22 UNL     1     -49.316 -63.020  63.751  1.00  0.00     0.278 HD
ATOM     14  H21 UNL     1     -48.856 -63.533  65.149  1.00  0.00     0.278 HD
HETATM   15  S1  UNL     1     -46.776 -61.783  63.036  1.00  0.00    -0.107 SA
ENDBRANCH   1   9
TORSDOF 3
ENDMDL