MODEL 3
REMARK VINA RESULT: -5.958680471      0.053      2.031
REMARK  1 active torsions:
REMARK  status: ('A' for Active; 'I' for Inactive)
REMARK    1  A    between atoms: C2_5  and  C3_6
ROOT
HETATM    1  F1  UNL     1      14.918  52.777  20.157  1.00  0.00    -0.181 F
HETATM    2  C1  UNL     1      14.391  53.059  18.949  1.00  0.00     0.246 A
HETATM    3  N1  UNL     1      13.657  52.253  18.170  1.00  0.00    -0.311 N
ATOM      4  H1  UNL     1      13.396  51.294  18.400  1.00  0.00     0.170 HD
HETATM    5  C2  UNL     1      13.314  52.898  17.033  1.00  0.00     0.195 A
HETATM    6  N2  UNL     1      13.872  54.132  17.153  1.00  0.00    -0.311 N
ATOM      7  H2  UNL     1      13.795  54.867  16.450  1.00  0.00     0.170 HD
HETATM    8  C4  UNL     1      14.530  54.260  18.301  1.00  0.00     0.246 A
HETATM    9  F5  UNL     1      15.218  55.348  18.770  1.00  0.00    -0.181 F
ENDROOT
BRANCH   5  10
HETATM   10  C3  UNL     1      12.499  52.386  15.895  1.00  0.00     0.449 C
HETATM   11  F2  UNL     1      12.121  51.094  16.190  1.00  0.00    -0.163 F
HETATM   12  F3  UNL     1      13.262  52.382  14.747  1.00  0.00    -0.163 F
HETATM   13  F4  UNL     1      11.361  53.131  15.705  1.00  0.00    -0.163 F
ENDBRANCH   5  10
TORSDOF 1
ENDMDL