MODEL 3
REMARK VINA RESULT: -5.150272875      2.026      2.703
REMARK  2 active torsions:
REMARK  status: ('A' for Active; 'I' for Inactive)
REMARK    1  A    between atoms: N1_1  and  N2_4
REMARK    2  A    between atoms: N2_4  and  C1_6
ROOT
HETATM    1  C1  UNL     1      13.975  52.659  18.218  1.00  0.00     0.174 C
HETATM    2  N3  UNL     1      13.768  51.407  18.048  1.00  0.00    -0.338 N
ATOM      3  H3  UNL     1      13.949  50.694  18.755  1.00  0.00     0.164 HD
HETATM    4  C2  UNL     1      13.243  51.127  16.721  1.00  0.00     0.350 C
HETATM    5  F1  UNL     1      11.868  51.138  16.737  1.00  0.00    -0.220 F
HETATM    6  C3  UNL     1      13.780  52.322  15.948  1.00  0.00     0.362 C
HETATM    7  F2  UNL     1      15.128  52.136  15.762  1.00  0.00    -0.194 F
HETATM    8  F3  UNL     1      13.089  52.573  14.805  1.00  0.00    -0.194 F
HETATM    9  C4  UNL     1      13.604  53.408  16.990  1.00  0.00     0.370 C
HETATM   10  F4  UNL     1      12.272  53.831  17.034  1.00  0.00    -0.190 F
HETATM   11  F5  UNL     1      14.459  54.456  16.731  1.00  0.00    -0.190 F
ENDROOT
BRANCH   1  12
HETATM   12  N2  UNL     1      14.487  53.204  19.428  1.00  0.00    -0.291 N
ATOM     13  H2  UNL     1      14.870  54.150  19.441  1.00  0.00     0.188 HD
BRANCH  12  14
HETATM   14  N1  UNL     1      14.463  52.439  20.600  1.00  0.00    -0.344 N
ATOM     15  H12 UNL     1      15.327  52.311  21.127  1.00  0.00     0.176 HD
ATOM     16  H11 UNL     1      13.588  52.021  20.913  1.00  0.00     0.176 HD
ENDBRANCH  12  14
ENDBRANCH   1  12
TORSDOF 2
ENDMDL