MODEL 5
REMARK VINA RESULT: -5.159426499      2.344      3.154
REMARK  1 active torsions:
REMARK  status: ('A' for Active; 'I' for Inactive)
REMARK    1  A    between atoms: C2_5  and  C3_6
ROOT
HETATM    1  N1  UNL     1      13.928  52.320  20.153  1.00  0.00    -0.081 NA
HETATM    2  C1  UNL     1      14.333  52.521  18.775  1.00  0.00     0.164 A
HETATM    3  N2  UNL     1      15.095  51.854  18.014  1.00  0.00    -0.359 N
ATOM      4  H2  UNL     1      15.631  50.998  18.157  1.00  0.00     0.161 HD
HETATM    5  C2  UNL     1      14.944  52.701  16.907  1.00  0.00     0.271 A
HETATM    6  C4  UNL     1      14.049  53.520  17.736  1.00  0.00     0.326 A
HETATM    7  F4  UNL     1      12.724  53.581  17.359  1.00  0.00    -0.195 F
HETATM    8  F5  UNL     1      14.552  54.785  17.995  1.00  0.00    -0.195 F
ENDROOT
BRANCH   5   9
HETATM    9  C3  UNL     1      14.327  51.970  15.737  1.00  0.00     0.413 C
HETATM   10  F1  UNL     1      13.833  52.864  14.796  1.00  0.00    -0.169 F
HETATM   11  F2  UNL     1      13.401  51.056  16.134  1.00  0.00    -0.169 F
HETATM   12  F3  UNL     1      15.355  51.281  15.115  1.00  0.00    -0.169 F
ENDBRANCH   5   9
TORSDOF 1
ENDMDL