MODEL 2
REMARK VINA RESULT: -5.554281369      0.058      1.174
REMARK  3 active torsions:
REMARK  status: ('A' for Active; 'I' for Inactive)
REMARK    1  A    between atoms: N1_1  and  N2_4
REMARK    2  A    between atoms: N2_4  and  C1_5
REMARK    3  A    between atoms: C3_8  and  C4_10
ROOT
HETATM    1  C1  UNL     1      14.332  52.362  16.507  1.00  0.00     0.188 A
HETATM    2  C2  UNL     1      14.204  53.385  17.650  1.00  0.00     0.245 A
HETATM    3  F1  UNL     1      13.656  54.620  17.322  1.00  0.00    -0.244 F
HETATM    4  C3  UNL     1      13.394  52.154  17.612  1.00  0.00     0.253 A
HETATM    5  F2  UNL     1      13.678  51.201  18.599  1.00  0.00    -0.228 F
ENDROOT
BRANCH   4   6
HETATM    6  C4  UNL     1      11.907  52.278  17.350  1.00  0.00     0.428 C
HETATM    7  F3  UNL     1      11.451  51.380  16.428  1.00  0.00    -0.167 F
HETATM    8  F4  UNL     1      11.258  52.025  18.545  1.00  0.00    -0.167 F
HETATM    9  F5  UNL     1      11.590  53.548  16.881  1.00  0.00    -0.167 F
ENDBRANCH   4   6
BRANCH   1  10
HETATM   10  N2  UNL     1      15.619  51.744  16.438  1.00  0.00    -0.137 NA
BRANCH  10  11
HETATM   11  N1  UNL     1      15.855  51.306  15.131  1.00  0.00    -0.348 N
ATOM     12  H12 UNL     1      15.164  50.841  14.544  1.00  0.00     0.172 HD
ATOM     13  H11 UNL     1      16.816  51.526  14.868  1.00  0.00     0.172 HD
ENDBRANCH  10  11
ENDBRANCH   1  10
TORSDOF 3
ENDMDL