MODEL 3
REMARK VINA RESULT: -5.457460959      0.065      1.163
REMARK  2 active torsions:
REMARK  status: ('A' for Active; 'I' for Inactive)
REMARK    1  A    between atoms: N1_1  and  C1_5
REMARK    2  A    between atoms: C1_5  and  C2_6
ROOT
HETATM    1  C1  UNL     1      13.526  52.367  17.325  1.00  0.00     0.504 C
HETATM    2  N2  UNL     1      12.979  53.607  16.881  1.00  0.00     0.087 N
ATOM      3  H21 UNL     1      13.406  54.117  16.107  1.00  0.00     0.294 HD
ATOM      4  H22 UNL     1      13.055  54.445  17.457  1.00  0.00     0.294 HD
HETATM    5  C3  UNL     1      11.707  52.943  16.712  1.00  0.00     0.542 C
HETATM    6  F4  UNL     1      11.361  52.710  15.392  1.00  0.00    -0.149 F
HETATM    7  F5  UNL     1      10.656  53.548  17.399  1.00  0.00    -0.149 F
HETATM    8  O1  UNL     1      12.250  51.841  17.367  1.00  0.00    -0.233 OA
ENDROOT
BRANCH   1   9
HETATM    9  N1  UNL     1      14.359  51.778  16.286  1.00  0.00    -0.012 N
ATOM     10  H13 UNL     1      15.181  52.352  16.099  1.00  0.00     0.280 HD
ATOM     11  H12 UNL     1      14.826  50.935  16.617  1.00  0.00     0.280 HD
ATOM     12  H11 UNL     1      13.828  51.600  15.433  1.00  0.00     0.280 HD
ENDBRANCH   1   9
BRANCH   1  13
HETATM   13  C2  UNL     1      14.217  52.364  18.658  1.00  0.00     0.476 C
HETATM   14  F1  UNL     1      14.495  53.599  19.142  1.00  0.00    -0.164 F
HETATM   15  F2  UNL     1      15.401  51.658  18.560  1.00  0.00    -0.164 F
HETATM   16  F3  UNL     1      13.434  51.687  19.585  1.00  0.00    -0.164 F
ENDBRANCH   1  13
TORSDOF 2
ENDMDL