MODEL 3
REMARK VINA RESULT: -5.771493405      1.993      3.292
REMARK  1 active torsions:
REMARK  status: ('A' for Active; 'I' for Inactive)
REMARK    1  A    between atoms: C1_2  and  C2_5
ROOT
HETATM    1  C2  UNL     1      13.556  51.631  16.949  1.00  0.00     0.276 C
HETATM    2  N1  UNL     1      14.570  51.870  15.931  1.00  0.00    -0.124 NA
HETATM    3  N2  UNL     1      15.484  51.937  17.021  1.00  0.00    -0.086 NA
HETATM    4  C3  UNL     1      14.378  52.579  17.757  1.00  0.00     0.292 C
HETATM    5  F4  UNL     1      14.437  52.314  19.110  1.00  0.00    -0.202 F
HETATM    6 CL1  UNL     1      14.195  54.265  17.315  1.00  0.00    -0.061 Cl
ENDROOT
BRANCH   1   7
HETATM    7  C1  UNL     1      12.162  52.010  16.600  1.00  0.00     0.411 C
HETATM    8  F1  UNL     1      12.083  53.073  15.734  1.00  0.00    -0.169 F
HETATM    9  F2  UNL     1      11.493  50.893  16.097  1.00  0.00    -0.169 F
HETATM   10  F3  UNL     1      11.524  52.389  17.767  1.00  0.00    -0.169 F
ENDBRANCH   1   7
TORSDOF 1
ENDMDL