MODEL 3
REMARK VINA RESULT: -5.894540864      0.608      1.452
REMARK  1 active torsions:
REMARK  status: ('A' for Active; 'I' for Inactive)
REMARK    1  A    between atoms: C2_5  and  C3_7
ROOT
HETATM    1  F1  UNL     1      11.447  53.381  16.852  1.00  0.00    -0.225 F
HETATM    2  C1  UNL     1      11.908  52.138  17.177  1.00  0.00     0.345 C
HETATM    3  N1  UNL     1      12.115  51.212  16.108  1.00  0.00    -0.102 NA
HETATM    4  N2  UNL     1      13.275  50.772  16.769  1.00  0.00    -0.088 NA
HETATM    5  C2  UNL     1      13.350  52.015  17.535  1.00  0.00     0.331 C
HETATM    6  F2  UNL     1      13.544  51.821  18.885  1.00  0.00    -0.208 F
ENDROOT
BRANCH   5   7
HETATM    7  C3  UNL     1      14.293  52.996  16.934  1.00  0.00     0.444 C
HETATM    8  F3  UNL     1      15.616  52.618  16.992  1.00  0.00    -0.166 F
HETATM    9  F4  UNL     1      13.908  53.178  15.600  1.00  0.00    -0.166 F
HETATM   10  F5  UNL     1      14.180  54.229  17.532  1.00  0.00    -0.166 F
ENDBRANCH   5   7
TORSDOF 1
ENDMDL