MODEL 4
REMARK VINA RESULT: -5.459715232      1.778      3.758
REMARK  1 active torsions:
REMARK  status: ('A' for Active; 'I' for Inactive)
REMARK    1  A    between atoms: C2_6  and  C3_7
ROOT
HETATM    1  F1  UNL     1      15.224  54.253  18.323  1.00  0.00    -0.158 F
HETATM    2  C1  UNL     1      14.651  53.011  18.560  1.00  0.00     0.506 C
HETATM    3  F2  UNL     1      14.534  52.738  19.888  1.00  0.00    -0.158 F
HETATM    4  N1  UNL     1      15.388  52.027  17.819  1.00  0.00    -0.043 NA
HETATM    5  N2  UNL     1      14.637  51.721  16.680  1.00  0.00    -0.099 NA
HETATM    6  C2  UNL     1      13.273  51.808  17.122  1.00  0.00     0.410 C
HETATM    7  N3  UNL     1      13.306  52.973  17.986  1.00  0.00     0.036 N
ATOM      8  H31 UNL     1      13.040  53.837  17.515  1.00  0.00     0.288 HD
ATOM      9  H32 UNL     1      12.565  52.981  18.687  1.00  0.00     0.288 HD
ENDROOT
BRANCH   6  10
HETATM   10  C3  UNL     1      12.324  52.048  15.939  1.00  0.00     0.431 C
HETATM   11  F3  UNL     1      11.658  50.869  15.663  1.00  0.00    -0.167 F
HETATM   12  F4  UNL     1      13.074  52.395  14.844  1.00  0.00    -0.167 F
HETATM   13  F5  UNL     1      11.432  53.062  16.255  1.00  0.00    -0.167 F
ENDBRANCH   6  10
TORSDOF 1
ENDMDL