MODEL 5
REMARK VINA RESULT: -5.960210367      1.998      2.257
REMARK  1 active torsions:
REMARK  status: ('A' for Active; 'I' for Inactive)
REMARK    1  A    between atoms: C1_2  and  C2_5
ROOT
HETATM    1  C2  UNL     1      12.882  52.801  17.447  1.00  0.00     0.295 C
HETATM    2  N1  UNL     1      13.132  51.649  18.288  1.00  0.00    -0.108 NA
HETATM    3  N2  UNL     1      13.957  52.143  19.300  1.00  0.00    -0.034 NA
HETATM    4  N3  UNL     1      14.632  53.244  18.827  1.00  0.00    -0.053 NA
HETATM    5  C3  UNL     1      14.260  53.422  17.427  1.00  0.00     0.359 C
HETATM    6  F4  UNL     1      14.229  54.743  17.058  1.00  0.00    -0.183 F
HETATM    7  F5  UNL     1      15.100  52.657  16.675  1.00  0.00    -0.183 F
ENDROOT
BRANCH   1   8
HETATM    8  C1  UNL     1      12.411  52.434  16.063  1.00  0.00     0.413 C
HETATM    9  F1  UNL     1      13.365  52.725  15.110  1.00  0.00    -0.169 F
HETATM   10  F2  UNL     1      12.235  51.049  16.072  1.00  0.00    -0.169 F
HETATM   11  F3  UNL     1      11.269  53.088  15.699  1.00  0.00    -0.169 F
ENDBRANCH   1   8
TORSDOF 1
ENDMDL