MODEL 5
REMARK VINA RESULT: -5.737549746      1.704      3.444
REMARK  1 active torsions:
REMARK  status: ('A' for Active; 'I' for Inactive)
REMARK    1  A    between atoms: C3_7  and  C4_9
ROOT
HETATM    1  F1  UNL     1      10.413  53.529  15.754  1.00  0.00    -0.217 F
HETATM    2  C1  UNL     1      11.458  53.484  16.588  1.00  0.00     0.219 C
HETATM    3  C2  UNL     1      12.235  52.421  16.652  1.00  0.00     0.116 C
HETATM    4  N1  UNL     1      12.264  51.167  16.001  1.00  0.00    -0.297 N
ATOM      5  H1  UNL     1      11.572  50.538  15.592  1.00  0.00     0.182 HD
HETATM    6  N2  UNL     1      13.644  51.162  16.157  1.00  0.00    -0.081 NA
HETATM    7  C3  UNL     1      13.433  51.951  17.382  1.00  0.00     0.333 C
HETATM    8  F2  UNL     1      13.164  51.113  18.427  1.00  0.00    -0.205 F
ENDROOT
BRANCH   7   9
HETATM    9  C4  UNL     1      14.475  52.991  17.635  1.00  0.00     0.447 C
HETATM   10  F3  UNL     1      15.684  52.489  17.156  1.00  0.00    -0.166 F
HETATM   11  F4  UNL     1      14.567  53.229  19.001  1.00  0.00    -0.166 F
HETATM   12  F5  UNL     1      14.129  54.138  16.946  1.00  0.00    -0.166 F
ENDBRANCH   7   9
TORSDOF 1
ENDMDL