MODEL 3
REMARK VINA RESULT: -6.720484227      1.713      3.469
REMARK  9 active torsions:
REMARK  status: ('A' for Active; 'I' for Inactive)
REMARK    1  A    between atoms: C2_2  and  O1_3
REMARK    2  A    between atoms: C2_2  and  N1_5
REMARK    3  A    between atoms: N1_5  and  C3_7
REMARK    4  A    between atoms: C4_8  and  C5_9
REMARK    5  A    between atoms: C5_9  and  C6_11
REMARK    6  A    between atoms: C6_11  and  N2_12
REMARK    7  A    between atoms: N4_16  and  N5_17
REMARK    8  A    between atoms: C9_24  and  N7_25
REMARK    9  A    between atoms: C10_30  and  N9_31
ROOT
HETATM    1  C3  UNL     1     -33.176 -15.907  21.423  1.00  0.00     0.106 A
HETATM    2  C4  UNL     1     -31.895 -15.617  20.989  1.00  0.00     0.127 A
HETATM    3  N6  UNL     1     -31.606 -14.312  20.744  1.00  0.00    -0.186 N
ATOM      4  H6  UNL     1     -30.673 -14.057  20.420  1.00  0.00     0.184 HD
HETATM    5  C9  UNL     1     -32.531 -13.347  20.920  1.00  0.00     0.678 A
HETATM    6  N8  UNL     1     -33.766 -13.634  21.344  1.00  0.00    -0.175 N
ATOM      7  H8  UNL     1     -34.445 -12.883  21.470  1.00  0.00     0.186 HD
HETATM    8  C10 UNL     1     -34.120 -14.903  21.604  1.00  0.00     0.143 A
ENDROOT
BRANCH   2   9
HETATM    9  C5  UNL     1     -30.852 -16.588  20.850  1.00  0.00     0.198 C
HETATM   10  O2  UNL     1     -30.305 -17.065  21.856  1.00  0.00    -0.289 OA
BRANCH   9  11
HETATM   11  C6  UNL     1     -30.417 -17.032  19.522  1.00  0.00     0.239 C
BRANCH  11  12
HETATM   12  N2  UNL     1     -29.133 -17.686  19.520  1.00  0.00    -0.233 N
HETATM   13  N3  UNL     1     -28.934 -18.831  20.183  1.00  0.00    -0.288 N
HETATM   14  C7  UNL     1     -27.655 -19.216  20.012  1.00  0.00     0.228 A
ATOM     15  H3  UNL     1     -29.636 -19.331  20.729  1.00  0.00     0.188 HD
HETATM   16  N4  UNL     1     -27.071 -18.290  19.233  1.00  0.00    -0.205 N
HETATM   17  C8  UNL     1     -27.978 -17.340  18.924  1.00  0.00     0.363 A
HETATM   18  O3  UNL     1     -27.845 -16.315  18.229  1.00  0.00    -0.243 OA
BRANCH  16  19
HETATM   19  N5  UNL     1     -25.750 -18.251  18.779  1.00  0.00    -0.334 N
ATOM     20  H52 UNL     1     -24.948 -18.355  19.402  1.00  0.00     0.177 HD
ATOM     21  H51 UNL     1     -25.415 -18.123  17.825  1.00  0.00     0.177 HD
ENDBRANCH  16  19
ENDBRANCH  11  12
ENDBRANCH   9  11
ENDBRANCH   2   9
BRANCH   1  22
HETATM   22  N1  UNL     1     -33.490 -17.267  21.638  1.00  0.00    -0.359 N
ATOM     23  H1  UNL     1     -32.758 -17.896  21.967  1.00  0.00     0.162 HD
BRANCH  22  24
HETATM   24  C2  UNL     1     -34.795 -17.786  21.410  1.00  0.00     0.213 C
HETATM   25  C1  UNL     1     -35.067 -19.180  21.880  1.00  0.00     0.063 C
BRANCH  24  26
HETATM   26  O1  UNL     1     -35.101 -17.784  20.025  1.00  0.00    -0.377 OA
ATOM     27  H1  UNL     1     -35.899 -17.276  19.940  1.00  0.00     0.212 HD
ENDBRANCH  24  26
ENDBRANCH  22  24
ENDBRANCH   1  22
BRANCH   8  28
HETATM   28  N9  UNL     1     -35.298 -15.175  22.036  1.00  0.00    -0.383 N
ATOM     29  H92 UNL     1     -35.556 -16.135  22.264  1.00  0.00     0.157 HD
ATOM     30  H91 UNL     1     -36.001 -14.443  22.137  1.00  0.00     0.157 HD
ENDBRANCH   8  28
BRANCH   5  31
HETATM   31  N7  UNL     1     -32.176 -12.123  20.665  1.00  0.00    -0.234 N
ATOM     32  H72 UNL     1     -32.832 -11.460  20.251  1.00  0.00     0.174 HD
ATOM     33  H71 UNL     1     -31.219 -11.853  20.895  1.00  0.00     0.174 HD
ENDBRANCH   5  31
TORSDOF 9
ENDMDL