MODEL 3
REMARK VINA RESULT: -6.832728988      0.988      1.194
REMARK  9 active torsions:
REMARK  status: ('A' for Active; 'I' for Inactive)
REMARK    1  A    between atoms: C2_2  and  O1_3
REMARK    2  A    between atoms: C2_2  and  C3_5
REMARK    3  A    between atoms: C2_2  and  C10_30
REMARK    4  A    between atoms: C3_5  and  C4_6
REMARK    5  A    between atoms: C4_6  and  N1_7
REMARK    6  A    between atoms: C5_8  and  N2_9
REMARK    7  A    between atoms: C6_14  and  N4_15
REMARK    8  A    between atoms: C8_21  and  N7_22
REMARK    9  A    between atoms: N7_22  and  N8_24
ROOT
HETATM    1  N1  UNL     1     -31.787 -15.942  20.653  1.00  0.00    -0.013 N
HETATM    2  C5  UNL     1     -32.267 -16.435  21.820  1.00  0.00     0.707 A
HETATM    3  N3  UNL     1     -31.697 -17.476  22.448  1.00  0.00    -0.021 N
ATOM      4  H3  UNL     1     -32.082 -17.823  23.327  1.00  0.00     0.203 HD
HETATM    5  C6  UNL     1     -30.614 -18.055  21.905  1.00  0.00     0.713 A
HETATM    6  N5  UNL     1     -30.114 -17.586  20.744  1.00  0.00     0.041 N
HETATM    7  C7  UNL     1     -29.066 -17.946  19.974  1.00  0.00     0.203 A
HETATM    8  N6  UNL     1     -28.198 -19.020  20.294  1.00  0.00    -0.077 NA
HETATM    9  C8  UNL     1     -28.987 -17.124  18.863  1.00  0.00     0.178 A
HETATM   10  N9  UNL     1     -30.016 -16.262  18.992  1.00  0.00    -0.170 N
ATOM     11  H9  UNL     1     -30.242 -15.517  18.333  1.00  0.00     0.186 HD
HETATM   12  C9  UNL     1     -30.701 -16.530  20.119  1.00  0.00     0.723 A
ENDROOT
BRANCH   1  13
HETATM   13  C4  UNL     1     -32.394 -14.835  19.988  1.00  0.00     0.170 C
BRANCH  13  14
HETATM   14  C3  UNL     1     -31.872 -13.496  20.461  1.00  0.00     0.068 C
BRANCH  14  15
HETATM   15  C2  UNL     1     -33.006 -12.543  20.738  1.00  0.00     0.134 C
HETATM   16  C1  UNL     1     -32.478 -11.197  21.121  1.00  0.00     0.056 C
BRANCH  15  17
HETATM   17  O1  UNL     1     -33.821 -12.996  21.784  1.00  0.00    -0.381 OA
ATOM     18  H1  UNL     1     -33.480 -12.635  22.594  1.00  0.00     0.211 HD
ENDBRANCH  15  17
BRANCH  15  19
HETATM   19  C10 UNL     1     -33.864 -12.477  19.529  1.00  0.00     0.265 C
HETATM   20  N10 UNL     1     -33.589 -11.511  18.526  1.00  0.00    -0.059 NA
HETATM   21  O2  UNL     1     -34.848 -13.242  19.332  1.00  0.00    -0.273 OA
ENDBRANCH  15  19
ENDBRANCH  14  15
ENDBRANCH  13  14
ENDBRANCH   1  13
BRANCH   2  22
HETATM   22  N2  UNL     1     -33.291 -15.890  22.334  1.00  0.00    -0.233 N
ATOM     23  H22 UNL     1     -33.230 -15.515  23.281  1.00  0.00     0.174 HD
ATOM     24  H21 UNL     1     -34.148 -15.842  21.783  1.00  0.00     0.174 HD
ENDBRANCH   2  22
BRANCH   5  25
HETATM   25  N4  UNL     1     -30.017 -19.052  22.445  1.00  0.00    -0.233 N
ATOM     26  H42 UNL     1     -29.987 -19.085  23.464  1.00  0.00     0.174 HD
ATOM     27  H41 UNL     1     -29.582 -19.796  21.899  1.00  0.00     0.174 HD
ENDBRANCH   5  25
BRANCH   9  28
HETATM   28  N7  UNL     1     -28.013 -17.202  17.828  1.00  0.00    -0.289 N
ATOM     29  H7  UNL     1     -28.305 -16.946  16.885  1.00  0.00     0.188 HD
BRANCH  28  30
HETATM   30  N8  UNL     1     -26.704 -17.599  18.006  1.00  0.00    -0.344 N
ATOM     31  H82 UNL     1     -26.138 -17.030  18.636  1.00  0.00     0.176 HD
ATOM     32  H81 UNL     1     -26.275 -18.408  17.558  1.00  0.00     0.176 HD
ENDBRANCH  28  30
ENDBRANCH   9  28
TORSDOF 9
ENDMDL