MODEL 2
REMARK VINA RESULT: -6.423494957      1.849      5.826
REMARK  6 active torsions:
REMARK  status: ('A' for Active; 'I' for Inactive)
REMARK    1  A    between atoms: C2_2  and  C8_34
REMARK    2  A    between atoms: N1_3  and  N2_5
REMARK    3  A    between atoms: C3_7  and  N3_8
REMARK    4  A    between atoms: C3_7  and  C5_19
REMARK       I    between atoms: N3_8  and  C4_10
REMARK       I    between atoms: C4_10  and  N4_11
REMARK       I    between atoms: C4_10  and  N5_15
REMARK    5  A    between atoms: C6_22  and  N7_23
REMARK    6  A    between atoms: N7_23  and  N8_25
ROOT
HETATM    1  N2  UNL     1     -31.118 -15.969  21.700  1.00  0.00    -0.282 N
ATOM      2  H2  UNL     1     -31.459 -16.080  22.655  1.00  0.00     0.188 HD
HETATM    3  C3  UNL     1     -30.539 -16.973  21.163  1.00  0.00     0.164 C
ENDROOT
BRANCH   3   4
HETATM    4  N3  UNL     1     -30.399 -18.169  21.900  1.00  0.00    -0.323 N
HETATM    5  C4  UNL     1     -29.223 -18.991  21.889  1.00  0.00     0.481 C
HETATM    6  N4  UNL     1     -28.972 -19.444  20.535  1.00  0.00    -0.033 N
HETATM    7  N5  UNL     1     -29.444 -20.128  22.755  1.00  0.00    -0.033 N
ATOM      8  H43 UNL     1     -29.778 -19.917  20.128  1.00  0.00     0.278 HD
ATOM      9  H42 UNL     1     -28.910 -18.670  19.873  1.00  0.00     0.278 HD
ATOM     10  H41 UNL     1     -28.136 -20.028  20.527  1.00  0.00     0.278 HD
ATOM     11  H53 UNL     1     -29.719 -19.853  23.698  1.00  0.00     0.278 HD
ATOM     12  H52 UNL     1     -30.287 -20.648  22.508  1.00  0.00     0.278 HD
ATOM     13  H51 UNL     1     -28.608 -20.712  22.746  1.00  0.00     0.278 HD
ATOM     14  H3  UNL     1     -31.184 -18.468  22.478  1.00  0.00     0.165 HD
ENDBRANCH   3   4
BRANCH   3  15
HETATM   15  C5  UNL     1     -30.023 -16.901  19.808  1.00  0.00     0.170 A
HETATM   16  N6  UNL     1     -28.717 -17.074  19.522  1.00  0.00    -0.171 N
HETATM   17  C6  UNL     1     -28.285 -16.999  18.250  1.00  0.00     0.702 A
ATOM     18  H6  UNL     1     -28.053 -17.263  20.272  1.00  0.00     0.186 HD
HETATM   19  N9  UNL     1     -29.117 -16.751  17.222  1.00  0.00    -0.140 N
HETATM   20  C7  UNL     1     -30.419 -16.575  17.484  1.00  0.00     0.340 A
ATOM     21  H9  UNL     1     -28.765 -16.698  16.266  1.00  0.00     0.189 HD
HETATM   22  O1  UNL     1     -31.218 -16.343  16.546  1.00  0.00    -0.246 OA
HETATM   23  N10 UNL     1     -30.845 -16.652  18.752  1.00  0.00    -0.290 N
ATOM     24  H10 UNL     1     -31.839 -16.516  18.936  1.00  0.00     0.172 HD
BRANCH  17  25
HETATM   25  N7  UNL     1     -27.008 -17.177  18.055  1.00  0.00    -0.138 N
ATOM     26  H7  UNL     1     -26.463 -16.523  17.493  1.00  0.00     0.205 HD
BRANCH  25  27
HETATM   27  N8  UNL     1     -26.416 -18.285  18.639  1.00  0.00    -0.331 N
ATOM     28  H82 UNL     1     -26.917 -18.820  19.350  1.00  0.00     0.177 HD
ATOM     29  H81 UNL     1     -25.477 -18.537  18.333  1.00  0.00     0.177 HD
ENDBRANCH  25  27
ENDBRANCH  17  25
ENDBRANCH   3  15
BRANCH   1  30
HETATM   30  N1  UNL     1     -31.321 -14.741  21.093  1.00  0.00    -0.300 N
HETATM   31  C2  UNL     1     -32.525 -14.354  20.847  1.00  0.00     0.068 C
HETATM   32  C1  UNL     1     -32.693 -13.037  20.197  1.00  0.00     0.074 C
ATOM     33  H1  UNL     1     -30.528 -14.151  20.844  1.00  0.00     0.186 HD
BRANCH  31  34
HETATM   34  C8  UNL     1     -33.678 -15.183  21.195  1.00  0.00     0.158 A
HETATM   35  N11 UNL     1     -34.606 -14.884  22.120  1.00  0.00    -0.265 N
HETATM   36  N12 UNL     1     -35.479 -15.889  22.131  1.00  0.00    -0.005 NA
ATOM     37  H11 UNL     1     -34.636 -14.047  22.702  1.00  0.00     0.186 HD
HETATM   38  N13 UNL     1     -35.118 -16.810  21.235  1.00  0.00    -0.225 N
HETATM   39  N14 UNL     1     -34.022 -16.370  20.671  1.00  0.00    -0.270 N
ATOM     40  H13 UNL     1     -35.602 -17.684  21.030  1.00  0.00     0.205 HD
ATOM     41  H14 UNL     1     -33.504 -16.858  19.940  1.00  0.00     0.190 HD
ENDBRANCH  31  34
ENDBRANCH   1  30
TORSDOF 6
ENDMDL