MODEL 3
REMARK VINA RESULT: -7.062101499      1.312      2.495
REMARK  9 active torsions:
REMARK  status: ('A' for Active; 'I' for Inactive)
REMARK    1  A    between atoms: N1_1  and  C1_4
REMARK    2  A    between atoms: C2_7  and  N3_8
REMARK       I    between atoms: N3_8  and  C3_10
REMARK       I    between atoms: C3_10  and  N4_11
REMARK       I    between atoms: C3_10  and  N5_15
REMARK    3  A    between atoms: C4_24  and  C5_25
REMARK    4  A    between atoms: C5_25  and  N9_26
REMARK    5  A    between atoms: C5_25  and  N10_30
REMARK    6  A    between atoms: N10_30  and  N11_32
REMARK    7  A    between atoms: C6_34  and  C7_35
REMARK    8  A    between atoms: C7_35  and  N12_36
REMARK    9  A    between atoms: N12_36  and  O1_38
ROOT
HETATM    1  C1  UNL     1     -29.725 -18.954  22.163  1.00  0.00     0.692 A
HETATM    2  N2  UNL     1     -28.901 -18.996  21.107  1.00  0.00    -0.021 N
ATOM      3  H2  UNL     1     -28.111 -19.640  21.129  1.00  0.00     0.203 HD
HETATM    4  C2  UNL     1     -29.072 -18.228  20.024  1.00  0.00     0.720 A
HETATM    5  N6  UNL     1     -30.110 -17.382  19.993  1.00  0.00    -0.052 N
HETATM    6  N7  UNL     1     -30.571 -16.512  19.107  1.00  0.00    -0.219 N
ATOM      7  H7  UNL     1     -30.138 -16.334  18.202  1.00  0.00     0.209 HD
HETATM    8  N8  UNL     1     -31.647 -15.909  19.534  1.00  0.00    -0.282 N
ATOM      9  H8  UNL     1     -32.176 -15.201  19.024  1.00  0.00     0.188 HD
HETATM   10  C4  UNL     1     -31.945 -16.386  20.779  1.00  0.00     0.125 A
HETATM   11  C8  UNL     1     -30.966 -17.312  21.048  1.00  0.00     0.190 A
HETATM   12  N13 UNL     1     -30.765 -18.091  22.104  1.00  0.00    -0.172 N
ATOM     13  H13 UNL     1     -31.410 -18.037  22.891  1.00  0.00     0.186 HD
ENDROOT
BRANCH  10  14
HETATM   14  C5  UNL     1     -33.067 -15.903  21.554  1.00  0.00     0.352 C
BRANCH  14  15
HETATM   15  N9  UNL     1     -34.100 -16.989  21.458  1.00  0.00    -0.051 N
ATOM     16  H93 UNL     1     -34.940 -16.716  20.946  1.00  0.00     0.277 HD
ATOM     17  H92 UNL     1     -33.835 -17.759  20.844  1.00  0.00     0.277 HD
ATOM     18  H91 UNL     1     -34.276 -17.269  22.422  1.00  0.00     0.277 HD
ENDBRANCH  14  15
BRANCH  14  19
HETATM   19  N10 UNL     1     -33.741 -14.722  21.068  1.00  0.00    -0.301 N
ATOM     20  H10 UNL     1     -34.628 -14.848  20.579  1.00  0.00     0.183 HD
BRANCH  19  21
HETATM   21  N11 UNL     1     -33.263 -13.420  21.222  1.00  0.00    -0.313 N
HETATM   22  C6  UNL     1     -33.166 -12.568  20.292  1.00  0.00     0.125 C
ATOM     23  H11 UNL     1     -32.970 -13.132  22.156  1.00  0.00     0.185 HD
BRANCH  22  24
HETATM   24  C7  UNL     1     -32.649 -11.238  20.583  1.00  0.00     0.132 C
BRANCH  24  25
HETATM   25  N12 UNL     1     -31.463 -11.108  21.064  1.00  0.00    -0.279 N
ATOM     26  H12 UNL     1     -30.752 -11.777  20.768  1.00  0.00     0.193 HD
BRANCH  25  27
HETATM   27  O1  UNL     1     -31.096 -10.142  21.936  1.00  0.00    -0.290 OA
ATOM     28  H1  UNL     1     -31.642  -9.404  22.177  1.00  0.00     0.244 HD
ENDBRANCH  25  27
ENDBRANCH  24  25
ENDBRANCH  22  24
ENDBRANCH  19  21
ENDBRANCH  14  19
ENDBRANCH  10  14
BRANCH   4  29
HETATM   29  N3  UNL     1     -28.306 -18.243  18.999  1.00  0.00    -0.171 N
HETATM   30  C3  UNL     1     -26.931 -18.610  18.951  1.00  0.00     0.494 C
HETATM   31  N4  UNL     1     -26.677 -19.990  19.321  1.00  0.00    -0.032 N
HETATM   32  N5  UNL     1     -26.061 -17.775  19.743  1.00  0.00    -0.032 N
ATOM     33  H43 UNL     1     -27.070 -20.193  20.240  1.00  0.00     0.278 HD
ATOM     34  H42 UNL     1     -27.237 -20.623  18.751  1.00  0.00     0.278 HD
ATOM     35  H41 UNL     1     -25.692 -20.252  19.287  1.00  0.00     0.278 HD
ATOM     36  H53 UNL     1     -26.176 -16.795  19.484  1.00  0.00     0.278 HD
ATOM     37  H52 UNL     1     -26.386 -17.739  20.709  1.00  0.00     0.278 HD
ATOM     38  H51 UNL     1     -25.076 -18.038  19.708  1.00  0.00     0.278 HD
ATOM     39  H3  UNL     1     -28.728 -17.959  18.115  1.00  0.00     0.181 HD
ENDBRANCH   4  29
BRANCH   1  40
HETATM   40  N1  UNL     1     -29.589 -19.679  23.217  1.00  0.00    -0.234 N
ATOM     41  H12 UNL     1     -29.972 -20.625  23.209  1.00  0.00     0.174 HD
ATOM     42  H11 UNL     1     -29.120 -19.372  24.070  1.00  0.00     0.174 HD
ENDBRANCH   1  40
TORSDOF 9
ENDMDL