MODEL 2
REMARK VINA RESULT: -7.065047614      1.026      1.033
REMARK  8 active torsions:
REMARK  status: ('A' for Active; 'I' for Inactive)
REMARK    1  A    between atoms: N1_1  and  C1_4
REMARK    2  A    between atoms: N4_9  and  C2_10
REMARK    3  A    between atoms: C2_10  and  C3_11
REMARK    4  A    between atoms: C3_11  and  S1_12
REMARK    5  A    between atoms: S1_12  and  C4_13
REMARK    6  A    between atoms: C5_16  and  C6_17
REMARK    7  A    between atoms: N9_25  and  N10_27
REMARK    8  A    between atoms: N10_27  and  N11_29
ROOT
HETATM    1  C1  UNL     1     -26.716 -18.261  19.049  1.00  0.00     0.706 A
HETATM    2  N2  UNL     1     -27.393 -18.625  20.136  1.00  0.00    -0.117 N
ATOM      3  H2  UNL     1     -26.948 -19.215  20.838  1.00  0.00     0.207 HD
HETATM    4  N3  UNL     1     -28.621 -18.232  20.304  1.00  0.00    -0.212 N
ATOM      5  H3  UNL     1     -29.110 -18.529  21.150  1.00  0.00     0.209 HD
HETATM    6  N4  UNL     1     -29.288 -17.451  19.422  1.00  0.00    -0.106 N
HETATM    7  C8  UNL     1     -28.644 -17.073  18.337  1.00  0.00     0.730 A
HETATM    8  N9  UNL     1     -29.177 -16.314  17.468  1.00  0.00    -0.116 N
ATOM      9  H9  UNL     1     -30.131 -15.978  17.600  1.00  0.00     0.207 HD
HETATM   10  N12 UNL     1     -27.348 -17.487  18.157  1.00  0.00    -0.018 N
ATOM     11  H12 UNL     1     -26.849 -17.196  17.316  1.00  0.00     0.203 HD
ENDROOT
BRANCH   6  12
HETATM   12  C2  UNL     1     -30.655 -17.105  19.691  1.00  0.00     0.180 C
BRANCH  12  13
HETATM   13  C3  UNL     1     -31.057 -17.226  21.132  1.00  0.00     0.105 C
BRANCH  13  14
HETATM   14  S1  UNL     1     -32.634 -16.550  21.576  1.00  0.00    -0.092 SA
BRANCH  14  15
HETATM   15  C4  UNL     1     -32.864 -14.876  20.978  1.00  0.00     0.146 A
HETATM   16  N5  UNL     1     -32.159 -13.782  21.280  1.00  0.00    -0.330 N
HETATM   17  C5  UNL     1     -32.639 -12.688  20.623  1.00  0.00     0.141 A
ATOM     18  H5  UNL     1     -31.364 -13.766  21.920  1.00  0.00     0.168 HD
HETATM   19  C7  UNL     1     -33.713 -13.169  19.873  1.00  0.00     0.150 A
HETATM   20  N7  UNL     1     -34.493 -12.327  19.035  1.00  0.00    -0.080 NA
HETATM   21  N8  UNL     1     -33.815 -14.491  20.114  1.00  0.00    -0.323 N
ATOM     22  H8  UNL     1     -34.513 -15.108  19.700  1.00  0.00     0.169 HD
BRANCH  17  23
HETATM   23  C6  UNL     1     -32.156 -11.328  20.680  1.00  0.00     0.284 C
HETATM   24  N6  UNL     1     -30.789 -11.054  20.511  1.00  0.00    -0.056 NA
HETATM   25  O1  UNL     1     -32.961 -10.400  20.880  1.00  0.00    -0.269 OA
ENDBRANCH  17  23
ENDBRANCH  14  15
ENDBRANCH  13  14
ENDBRANCH  12  13
ENDBRANCH   6  12
BRANCH   8  26
HETATM   26  N10 UNL     1     -28.459 -15.940  16.334  1.00  0.00    -0.235 N
ATOM     27  H10 UNL     1     -27.441 -16.006  16.346  1.00  0.00     0.208 HD
BRANCH  26  28
HETATM   28  N11 UNL     1     -29.101 -15.476  15.181  1.00  0.00    -0.330 N
ATOM     29 2H11 UNL     1     -28.867 -14.543  14.840  1.00  0.00     0.178 HD
ATOM     30 1H11 UNL     1     -29.788 -16.046  14.687  1.00  0.00     0.178 HD
ENDBRANCH  26  28
ENDBRANCH   8  26
BRANCH   1  31
HETATM   31  N1  UNL     1     -25.507 -18.623  18.837  1.00  0.00    -0.233 N
ATOM     32  H12 UNL     1     -25.308 -19.359  18.160  1.00  0.00     0.174 HD
ATOM     33  H11 UNL     1     -24.715 -18.203  19.323  1.00  0.00     0.174 HD
ENDBRANCH   1  31
TORSDOF 8
ENDMDL