MODEL 3
REMARK VINA RESULT: -6.241331412      2.561      4.184
REMARK  8 active torsions:
REMARK  status: ('A' for Active; 'I' for Inactive)
REMARK    1  A    between atoms: N1_1  and  C1_4
REMARK    2  A    between atoms: C2_9  and  N4_10
REMARK    3  A    between atoms: N5_12  and  N6_14
REMARK    4  A    between atoms: N6_14  and  C3_16
REMARK    5  A    between atoms: N10_24  and  C6_25
REMARK    6  A    between atoms: N11_26  and  O1_28
REMARK    7  A    between atoms: C7_30  and  N12_31
REMARK    8  A    between atoms: N12_31  and  C8_33
ROOT
HETATM    1  N4  UNL     1     -30.268 -17.094  18.888  1.00  0.00    -0.267 N
ATOM      2  H4  UNL     1     -29.995 -18.036  19.168  1.00  0.00     0.190 HD
HETATM    3  N5  UNL     1     -30.955 -16.405  19.702  1.00  0.00    -0.242 N
ATOM      4  H5  UNL     1     -31.244 -15.459  19.453  1.00  0.00     0.208 HD
ENDROOT
BRANCH   1   5
HETATM    5  C2  UNL     1     -29.860 -16.634  17.620  1.00  0.00     0.182 A
HETATM    6  N3  UNL     1     -30.747 -16.362  16.625  1.00  0.00    -0.267 N
HETATM    7  N2  UNL     1     -30.292 -15.933  15.455  1.00  0.00    -0.131 N
ATOM      8  H3  UNL     1     -31.748 -16.486  16.777  1.00  0.00     0.189 HD
HETATM    9  C1  UNL     1     -28.979 -15.755  15.213  1.00  0.00     0.692 A
ATOM     10  H2  UNL     1     -30.961 -15.730  14.712  1.00  0.00     0.205 HD
HETATM   11  N13 UNL     1     -28.094 -16.021  16.191  1.00  0.00    -0.172 N
HETATM   12  C7  UNL     1     -28.503 -16.460  17.397  1.00  0.00     0.170 A
ATOM     13  H13 UNL     1     -27.098 -15.888  16.017  1.00  0.00     0.186 HD
BRANCH   9  14
HETATM   14  N1  UNL     1     -28.554 -15.330  14.050  1.00  0.00    -0.233 N
ATOM     15  H12 UNL     1     -28.441 -14.329  13.887  1.00  0.00     0.174 HD
ATOM     16  H11 UNL     1     -28.332 -15.980  13.297  1.00  0.00     0.174 HD
ENDBRANCH   9  14
BRANCH  12  17
HETATM   17  N12 UNL     1     -27.672 -16.723  18.350  1.00  0.00    -0.317 N
ATOM     18  H12 UNL     1     -27.679 -16.185  19.217  1.00  0.00     0.169 HD
BRANCH  17  19
HETATM   19  C8  UNL     1     -26.749 -17.783  18.151  1.00  0.00     0.354 C
HETATM   20  O2  UNL     1     -25.750 -17.570  17.420  1.00  0.00    -0.283 OA
ENDBRANCH  17  19
ENDBRANCH  12  17
ENDBRANCH   1   5
BRANCH   3  21
HETATM   21  N6  UNL     1     -31.312 -16.940  20.928  1.00  0.00    -0.281 N
ATOM     22  H6  UNL     1     -30.835 -17.787  21.239  1.00  0.00     0.186 HD
BRANCH  21  23
HETATM   23  C3  UNL     1     -32.320 -16.370  21.792  1.00  0.00     0.311 C
HETATM   24  N7  UNL     1     -33.231 -17.373  22.301  1.00  0.00    -0.326 N
HETATM   25  C4  UNL     1     -34.357 -17.715  21.532  1.00  0.00     0.188 C
ATOM     26  H7  UNL     1     -33.059 -17.823  23.200  1.00  0.00     0.166 HD
HETATM   27  N8  UNL     1     -35.119 -18.878  21.876  1.00  0.00    -0.064 NA
HETATM   28  N9  UNL     1     -34.713 -17.012  20.536  1.00  0.00    -0.348 N
HETATM   29  C5  UNL     1     -34.032 -15.821  20.086  1.00  0.00     0.253 C
ATOM     30  H9  UNL     1     -35.540 -17.311  20.017  1.00  0.00     0.163 HD
HETATM   31  N10 UNL     1     -33.112 -15.372  21.109  1.00  0.00    -0.320 N
BRANCH  31  32
HETATM   32  C6  UNL     1     -32.953 -14.012  21.465  1.00  0.00     0.206 C
HETATM   33  N11 UNL     1     -32.411 -13.207  20.644  1.00  0.00    -0.265 N
ATOM     34  H11 UNL     1     -32.108 -13.584  19.745  1.00  0.00     0.194 HD
BRANCH  33  35
HETATM   35  O1  UNL     1     -32.204 -11.880  20.870  1.00  0.00    -0.289 OA
ATOM     36  H1  UNL     1     -32.427 -11.422  21.671  1.00  0.00     0.244 HD
ENDBRANCH  33  35
ENDBRANCH  31  32
ENDBRANCH  21  23
ENDBRANCH   3  21
TORSDOF 8
ENDMDL