MODEL 5
REMARK VINA RESULT: -6.304268510      1.388      2.537
REMARK  8 active torsions:
REMARK  status: ('A' for Active; 'I' for Inactive)
REMARK    1  A    between atoms: C2_2  and  C3_3
REMARK    2  A    between atoms: C3_3  and  N1_4
REMARK    3  A    between atoms: C6_9  and  N4_10
REMARK    4  A    between atoms: N6_17  and  N7_19
REMARK    5  A    between atoms: N7_19  and  O2_20
REMARK    6  A    between atoms: N7_19  and  C8_22
REMARK    7  A    between atoms: C8_22  and  N8_23
REMARK    8  A    between atoms: C9_29  and  N12_30
ROOT
HETATM    1  C1  UNL     1     -31.194 -15.616  21.627  1.00  0.00     0.066 C
HETATM    2  C2  UNL     1     -31.758 -15.719  20.262  1.00  0.00     0.020 C
HETATM    3  N6  UNL     1     -32.991 -15.361  20.113  1.00  0.00    -0.285 N
ATOM      4  H6  UNL     1     -33.402 -15.423  19.182  1.00  0.00     0.188 HD
ENDROOT
BRANCH   2   5
HETATM    5  C3  UNL     1     -31.016 -16.193  19.093  1.00  0.00     0.188 C
BRANCH   5   6
HETATM    6  N1  UNL     1     -29.936 -17.104  19.420  1.00  0.00    -0.281 N
HETATM    7  C4  UNL     1     -28.817 -17.073  18.650  1.00  0.00     0.151 A
HETATM    8  N2  UNL     1     -28.744 -16.169  17.573  1.00  0.00    -0.080 NA
HETATM    9  C5  UNL     1     -27.759 -17.914  18.914  1.00  0.00     0.131 A
HETATM   10  N3  UNL     1     -26.605 -17.858  18.093  1.00  0.00    -0.095 NA
HETATM   11  C6  UNL     1     -27.843 -18.792  19.967  1.00  0.00     0.130 A
HETATM   12  N5  UNL     1     -28.956 -18.810  20.719  1.00  0.00    -0.293 N
HETATM   13  C7  UNL     1     -29.991 -17.967  20.437  1.00  0.00     0.329 A
ATOM     14  H5  UNL     1     -29.028 -19.458  21.503  1.00  0.00     0.172 HD
HETATM   15  O1  UNL     1     -31.001 -18.024  21.165  1.00  0.00    -0.246 OA
BRANCH  11  16
HETATM   16  N4  UNL     1     -26.856 -19.575  20.209  1.00  0.00    -0.384 N
ATOM     17  H42 UNL     1     -26.152 -19.342  20.908  1.00  0.00     0.157 HD
ATOM     18  H41 UNL     1     -26.775 -20.449  19.691  1.00  0.00     0.157 HD
ENDBRANCH  11  16
ENDBRANCH   5   6
ENDBRANCH   2   5
BRANCH   3  19
HETATM   19  N7  UNL     1     -33.789 -14.893  21.159  1.00  0.00    -0.181 N
BRANCH  19  20
HETATM   20  O2  UNL     1     -34.708 -15.715  21.706  1.00  0.00    -0.271 OA
ATOM     21  H2  UNL     1     -34.626 -15.961  22.620  1.00  0.00     0.246 HD
ENDBRANCH  19  20
BRANCH  19  22
HETATM   22  C8  UNL     1     -33.616 -13.532  21.644  1.00  0.00     0.341 C
BRANCH  22  23
HETATM   23  N8  UNL     1     -33.568 -12.595  20.538  1.00  0.00    -0.083 N
HETATM   24  N9  UNL     1     -34.350 -12.647  19.451  1.00  0.00     0.013 NA
HETATM   25  N10 UNL     1     -34.014 -11.630  18.668  1.00  0.00    -0.211 N
HETATM   26  N11 UNL     1     -33.046 -10.962  19.255  1.00  0.00    -0.118 N
ATOM     27  H10 UNL     1     -34.433 -11.405  17.767  1.00  0.00     0.206 HD
HETATM   28  C9  UNL     1     -32.750 -11.534  20.411  1.00  0.00     0.708 A
ATOM     29  H11 UNL     1     -32.593 -10.130  18.877  1.00  0.00     0.207 HD
BRANCH  28  30
HETATM   30  N12 UNL     1     -31.855 -11.192  21.299  1.00  0.00    -0.232 N
ATOM     31 2H12 UNL     1     -31.978 -10.963  22.285  1.00  0.00     0.174 HD
ATOM     32 1H12 UNL     1     -30.858 -11.108  21.100  1.00  0.00     0.174 HD
ENDBRANCH  28  30
ENDBRANCH  22  23
ENDBRANCH  19  22
ENDBRANCH   3  19
TORSDOF 8
ENDMDL