MODEL 1
REMARK VINA RESULT: -7.655753164      0.000      0.000
REMARK  8 active torsions:
REMARK  status: ('A' for Active; 'I' for Inactive)
REMARK       I    between atoms: C2_2  and  N1_4
REMARK    1  A    between atoms: N1_4  and  C3_6
REMARK    2  A    between atoms: C4_9  and  C5_10
REMARK    3  A    between atoms: C5_10  and  C7_12
REMARK    4  A    between atoms: C7_12  and  O2_13
REMARK    5  A    between atoms: C7_12  and  C8_15
REMARK    6  A    between atoms: C8_15  and  N4_17
REMARK    7  A    between atoms: C9_24  and  N8_25
REMARK    8  A    between atoms: C10_30  and  N10_31
ROOT
HETATM    1  C5  UNL     1     -30.456 -16.983  21.828  1.00  0.00     0.086 C
HETATM    2  C6  UNL     1     -30.640 -18.476  21.939  1.00  0.00     0.021 C
ENDROOT
BRANCH   1   3
HETATM    3  C4  UNL     1     -31.851 -16.441  21.618  1.00  0.00     0.120 A
HETATM    4  N2  UNL     1     -32.088 -15.132  21.565  1.00  0.00    -0.179 N
HETATM    5  C3  UNL     1     -33.342 -14.594  21.375  1.00  0.00     0.700 A
ATOM      6  H2  UNL     1     -31.300 -14.494  21.672  1.00  0.00     0.185 HD
HETATM    7  N11 UNL     1     -34.378 -15.416  21.236  1.00  0.00    -0.022 N
HETATM    8  C10 UNL     1     -34.154 -16.762  21.287  1.00  0.00     0.691 A
ATOM      9  H11 UNL     1     -35.319 -15.049  21.095  1.00  0.00     0.203 HD
HETATM   10  N9  UNL     1     -32.918 -17.247  21.474  1.00  0.00    -0.179 N
ATOM     11  H9  UNL     1     -32.783 -18.257  21.508  1.00  0.00     0.185 HD
BRANCH   5  12
HETATM   12  N1  UNL     1     -33.489 -13.196  21.335  1.00  0.00    -0.159 N
HETATM   13  C2  UNL     1     -33.232 -12.343  20.263  1.00  0.00     0.231 C
HETATM   14  C1  UNL     1     -33.479 -10.857  20.500  1.00  0.00     0.118 C
HETATM   15  O1  UNL     1     -32.818 -12.640  19.116  1.00  0.00    -0.273 OA
ATOM     16  H1  UNL     1     -33.823 -12.754  22.191  1.00  0.00     0.187 HD
ENDBRANCH   5  12
BRANCH   8  17
HETATM   17  N10 UNL     1     -35.182 -17.530  21.148  1.00  0.00    -0.234 N
ATOM     18 2H10 UNL     1     -35.303 -17.978  20.239  1.00  0.00     0.174 HD
ATOM     19 1H10 UNL     1     -35.850 -17.688  21.902  1.00  0.00     0.174 HD
ENDBRANCH   8  17
ENDBRANCH   1   3
BRANCH   1  20
HETATM   20  C7  UNL     1     -29.594 -16.554  20.680  1.00  0.00     0.196 C
BRANCH  20  21
HETATM   21  O2  UNL     1     -28.237 -16.510  21.134  1.00  0.00    -0.387 OA
ATOM     22  H2  UNL     1     -27.857 -17.372  21.013  1.00  0.00     0.210 HD
ENDBRANCH  20  21
BRANCH  20  23
HETATM   23  C8  UNL     1     -29.596 -17.424  19.475  1.00  0.00     0.164 C
HETATM   24  N3  UNL     1     -30.454 -17.028  18.426  1.00  0.00    -0.082 NA
BRANCH  23  25
HETATM   25  N4  UNL     1     -28.292 -17.894  19.152  1.00  0.00    -0.057 N
HETATM   26  N5  UNL     1     -27.771 -18.945  19.830  1.00  0.00    -0.205 N
HETATM   27  N6  UNL     1     -26.587 -19.217  19.378  1.00  0.00    -0.213 N
ATOM     28  H5  UNL     1     -28.241 -19.447  20.582  1.00  0.00     0.211 HD
HETATM   29  N7  UNL     1     -26.309 -18.380  18.426  1.00  0.00    -0.115 N
ATOM     30  H6  UNL     1     -25.977 -19.962  19.714  1.00  0.00     0.210 HD
HETATM   31  C9  UNL     1     -27.361 -17.545  18.271  1.00  0.00     0.715 A
ATOM     32  H7  UNL     1     -25.443 -18.356  17.887  1.00  0.00     0.207 HD
BRANCH  31  33
HETATM   33  N8  UNL     1     -27.461 -16.585  17.439  1.00  0.00    -0.231 N
ATOM     34  H82 UNL     1     -27.015 -15.670  17.502  1.00  0.00     0.174 HD
ATOM     35  H81 UNL     1     -28.017 -16.605  16.584  1.00  0.00     0.174 HD
ENDBRANCH  31  33
ENDBRANCH  23  25
ENDBRANCH  20  23
ENDBRANCH   1  20
TORSDOF 8
ENDMDL