MODEL 4
REMARK VINA RESULT: -2.340272249      1.080      1.279
REMARK  8 active torsions:
REMARK  status: ('A' for Active; 'I' for Inactive)
REMARK    1  A    between atoms: C2_2  and  C3_3
REMARK    2  A    between atoms: C2_2  and  N2_11
REMARK    3  A    between atoms: C3_3  and  N1_4
REMARK    4  A    between atoms: N1_4  and  C4_7
REMARK    5  A    between atoms: C4_7  and  O1_9
REMARK    6  A    between atoms: N4_18  and  N5_19
REMARK    7  A    between atoms: C10_27  and  N8_28
REMARK    8  A    between atoms: N8_28  and  N9_30
ROOT
HETATM    1  N2  UNL     1     -31.458 -15.868  19.993  1.00  0.00    -0.369 N
ATOM      2  H2  UNL     1     -31.467 -15.188  19.233  1.00  0.00     0.161 HD
HETATM    3  C6  UNL     1     -30.700 -16.796  19.742  1.00  0.00     0.132 C
HETATM    4  N3  UNL     1     -30.597 -17.813  20.720  1.00  0.00    -0.290 N
ATOM      5  H3  UNL     1     -31.489 -18.032  21.164  1.00  0.00     0.172 HD
HETATM    6  C7  UNL     1     -29.505 -18.606  21.225  1.00  0.00     0.362 C
HETATM    7  O2  UNL     1     -29.672 -19.043  22.380  1.00  0.00    -0.243 OA
HETATM    8  N4  UNL     1     -28.259 -18.969  20.620  1.00  0.00    -0.147 N
HETATM    9  N6  UNL     1     -27.502 -18.459  19.560  1.00  0.00    -0.263 N
ATOM     10  H6  UNL     1     -26.528 -18.754  19.634  1.00  0.00     0.190 HD
HETATM   11  C8  UNL     1     -27.685 -17.714  18.503  1.00  0.00     0.160 C
HETATM   12  C9  UNL     1     -26.512 -17.488  17.719  1.00  0.00     0.121 C
HETATM   13  N7  UNL     1     -25.570 -17.287  17.071  1.00  0.00    -0.190 NA
HETATM   14  C10 UNL     1     -28.845 -17.035  17.931  1.00  0.00     0.114 C
HETATM   15  C11 UNL     1     -30.035 -16.680  18.444  1.00  0.00     0.121 C
HETATM   16  N10 UNL     1     -30.815 -16.036  17.458  1.00  0.00    -0.096 NA
ENDROOT
BRANCH  14  17
HETATM   17  N8  UNL     1     -28.625 -16.714  16.575  1.00  0.00    -0.303 N
ATOM     18  H8  UNL     1     -28.569 -17.473  15.895  1.00  0.00     0.186 HD
BRANCH  17  19
HETATM   19  N9  UNL     1     -28.483 -15.415  16.132  1.00  0.00    -0.345 N
ATOM     20  H92 UNL     1     -29.244 -15.018  15.581  1.00  0.00     0.176 HD
ATOM     21  H91 UNL     1     -27.657 -14.852  16.335  1.00  0.00     0.176 HD
ENDBRANCH  17  19
ENDBRANCH  14  17
BRANCH   8  22
HETATM   22  N5  UNL     1     -27.697 -20.088  21.238  1.00  0.00    -0.320 N
ATOM     23  H52 UNL     1     -27.734 -20.065  22.257  1.00  0.00     0.179 HD
ATOM     24  H51 UNL     1     -27.332 -20.749  20.552  1.00  0.00     0.179 HD
ENDBRANCH   8  22
BRANCH   1  25
HETATM   25  C2  UNL     1     -32.315 -15.476  21.026  1.00  0.00     0.104 C
HETATM   26  C1  UNL     1     -31.508 -15.389  22.328  1.00  0.00     0.034 C
BRANCH  25  27
HETATM   27  C3  UNL     1     -33.116 -14.246  20.867  1.00  0.00     0.259 C
BRANCH  27  28
HETATM   28  N1  UNL     1     -34.470 -14.666  20.481  1.00  0.00    -0.048 N
ATOM     29  H12 UNL     1     -35.058 -13.862  20.260  1.00  0.00     0.280 HD
ATOM     30  H11 UNL     1     -34.470 -15.121  19.568  1.00  0.00     0.280 HD
BRANCH  28  31
HETATM   31  C4  UNL     1     -35.077 -15.494  21.471  1.00  0.00     0.314 C
HETATM   32  C5  UNL     1     -34.656 -16.924  21.497  1.00  0.00     0.070 C
BRANCH  31  33
HETATM   33  O1  UNL     1     -34.724 -14.911  22.719  1.00  0.00    -0.370 OA
ATOM     34  H1  UNL     1     -34.691 -15.634  23.335  1.00  0.00     0.212 HD
ENDBRANCH  31  33
ENDBRANCH  28  31
ENDBRANCH  27  28
ENDBRANCH  25  27
ENDBRANCH   1  25
TORSDOF 8
ENDMDL