MODEL 3
REMARK VINA RESULT: -7.329469457      2.938      6.501
REMARK  9 active torsions:
REMARK  status: ('A' for Active; 'I' for Inactive)
REMARK    1  A    between atoms: N1_1  and  C1_4
REMARK    2  A    between atoms: C2_7  and  N3_8
REMARK    3  A    between atoms: N3_8  and  N4_10
REMARK    4  A    between atoms: N4_10  and  C3_12
REMARK    5  A    between atoms: C4_17  and  C5_18
REMARK    6  A    between atoms: C5_18  and  O1_19
REMARK    7  A    between atoms: C5_18  and  O2_21
REMARK    8  A    between atoms: C7_28  and  N9_29
REMARK    9  A    between atoms: N9_29  and  C8_31
ROOT
HETATM    1  C1  UNL     1     -29.985 -18.708  21.811  1.00  0.00     0.692 C
HETATM    2  N2  UNL     1     -31.021 -17.961  22.274  1.00  0.00    -0.174 N
ATOM      3  H2  UNL     1     -31.368 -18.218  23.198  1.00  0.00     0.186 HD
HETATM    4  C2  UNL     1     -31.664 -16.915  21.675  1.00  0.00     0.151 C
HETATM    5  C6  UNL     1     -31.100 -16.025  20.804  1.00  0.00     0.156 C
HETATM    6  N8  UNL     1     -30.117 -16.322  19.899  1.00  0.00    -0.197 N
ATOM      7  H8  UNL     1     -29.873 -15.579  19.243  1.00  0.00     0.183 HD
HETATM    8  C7  UNL     1     -29.434 -17.473  19.769  1.00  0.00     0.699 C
HETATM    9  N12 UNL     1     -29.217 -18.377  20.725  1.00  0.00    -0.022 N
ATOM     10  H12 UNL     1     -28.347 -18.902  20.635  1.00  0.00     0.203 HD
ENDROOT
BRANCH   4  11
HETATM   11  N3  UNL     1     -33.059 -16.752  21.952  1.00  0.00    -0.270 N
ATOM     12  H3  UNL     1     -33.702 -17.543  21.927  1.00  0.00     0.189 HD
BRANCH  11  13
HETATM   13  N4  UNL     1     -33.502 -15.458  22.257  1.00  0.00    -0.129 N
ATOM     14  H4  UNL     1     -33.694 -15.235  23.233  1.00  0.00     0.205 HD
BRANCH  13  15
HETATM   15  C3  UNL     1     -33.699 -14.444  21.293  1.00  0.00     0.713 A
HETATM   16  N5  UNL     1     -34.564 -14.437  20.255  1.00  0.00    -0.129 N
HETATM   17  N6  UNL     1     -34.447 -13.301  19.576  1.00  0.00    -0.270 N
ATOM     18  H5  UNL     1     -35.210 -15.192  20.026  1.00  0.00     0.205 HD
HETATM   19  C4  UNL     1     -33.499 -12.556  20.170  1.00  0.00     0.167 A
ATOM     20  H6  UNL     1     -34.984 -13.040  18.748  1.00  0.00     0.189 HD
HETATM   21  N7  UNL     1     -33.046 -13.271  21.227  1.00  0.00    -0.172 N
ATOM     22  H7  UNL     1     -32.319 -12.966  21.875  1.00  0.00     0.186 HD
BRANCH  19  23
HETATM   23  C5  UNL     1     -33.030 -11.197  19.767  1.00  0.00     0.325 C
BRANCH  23  24
HETATM   24  O1  UNL     1     -33.832 -10.285  20.453  1.00  0.00    -0.365 OA
ATOM     25  H1  UNL     1     -34.520 -10.028  19.851  1.00  0.00     0.213 HD
ENDBRANCH  23  24
BRANCH  23  26
HETATM   26  O2  UNL     1     -31.680 -11.016  20.017  1.00  0.00    -0.365 OA
ATOM     27  H2  UNL     1     -31.521 -10.307  20.629  1.00  0.00     0.213 HD
ENDBRANCH  23  26
ENDBRANCH  19  23
ENDBRANCH  13  15
ENDBRANCH  11  13
ENDBRANCH   4  11
BRANCH   1  28
HETATM   28  N1  UNL     1     -29.701 -19.790  22.414  1.00  0.00    -0.234 N
ATOM     29  H12 UNL     1     -29.844 -20.659  21.901  1.00  0.00     0.174 HD
ATOM     30  H11 UNL     1     -29.352 -19.735  23.371  1.00  0.00     0.174 HD
ENDBRANCH   1  28
BRANCH   8  31
HETATM   31  N9  UNL     1     -28.965 -17.733  18.618  1.00  0.00    -0.161 N
ATOM     32  H9  UNL     1     -28.402 -18.574  18.496  1.00  0.00     0.187 HD
BRANCH  31  33
HETATM   33  C8  UNL     1     -29.196 -16.893  17.485  1.00  0.00     0.190 C
HETATM   34  N10 UNL     1     -30.289 -16.789  16.794  1.00  0.00    -0.360 N
HETATM   35  C9  UNL     1     -30.128 -15.834  15.721  1.00  0.00     0.142 C
ATOM     36  H10 UNL     1     -31.145 -17.311  16.982  1.00  0.00     0.162 HD
HETATM   37  C10 UNL     1     -28.617 -15.773  15.563  1.00  0.00     0.142 C
HETATM   38  N11 UNL     1     -28.212 -16.023  16.932  1.00  0.00    -0.360 N
ATOM     39  H11 UNL     1     -27.388 -15.651  17.404  1.00  0.00     0.162 HD
ENDBRANCH  31  33
ENDBRANCH   8  31
TORSDOF 9
ENDMDL