MODEL 3
REMARK VINA RESULT: -2.902270786     10.848     14.181
REMARK  9 active torsions:
REMARK  status: ('A' for Active; 'I' for Inactive)
REMARK    1  A    between atoms: N1_1  and  C1_4
REMARK    2  A    between atoms: C2_7  and  N3_8
REMARK    3  A    between atoms: C3_12  and  C4_13
REMARK    4  A    between atoms: C6_26  and  C7_27
REMARK    5  A    between atoms: C7_27  and  N11_28
REMARK    6  A    between atoms: N11_28  and  C8_31
REMARK    7  A    between atoms: C8_31  and  N12_32
REMARK    8  A    between atoms: C8_31  and  C9_36
REMARK    9  A    between atoms: C9_36  and  O1_37
ROOT
HETATM    1  C1  UNL     1      67.114  70.352 281.271  1.00  0.00     0.714 A
HETATM    2  N2  UNL     1      67.957  70.422 282.296  1.00  0.00    -0.019 N
ATOM      3  H2  UNL     1      67.843  70.991 283.135  1.00  0.00     0.203 HD
HETATM    4  C2  UNL     1      69.001  69.595 282.020  1.00  0.00     0.713 A
HETATM    5  N4  UNL     1      68.810  69.009 280.824  1.00  0.00    -0.056 N
HETATM    6  C3  UNL     1      69.512  68.130 280.084  1.00  0.00     0.163 A
HETATM    7  C5  UNL     1      69.047  67.692 278.835  1.00  0.00     0.151 A
HETATM    8  N9  UNL     1      69.791  66.750 278.036  1.00  0.00    -0.080 NA
HETATM    9  N10 UNL     1      67.887  68.180 278.414  1.00  0.00    -0.329 N
ATOM     10  H10 UNL     1      67.517  67.885 277.510  1.00  0.00     0.168 HD
HETATM   11  C6  UNL     1      67.186  69.063 279.164  1.00  0.00     0.150 A
HETATM   12  N13 UNL     1      67.626  69.482 280.352  1.00  0.00    -0.050 N
ENDROOT
BRANCH  11  13
HETATM   13  C7  UNL     1      65.908  69.543 278.595  1.00  0.00     0.313 C
BRANCH  13  14
HETATM   14  N11 UNL     1      66.030  70.752 277.854  1.00  0.00    -0.038 N
ATOM     15 2H11 UNL     1      66.413  71.499 278.431  1.00  0.00     0.280 HD
ATOM     16 1H11 UNL     1      66.774  70.683 277.159  1.00  0.00     0.280 HD
BRANCH  14  17
HETATM   17  C8  UNL     1      64.805  71.146 277.252  1.00  0.00     0.403 C
BRANCH  17  18
HETATM   18  N12 UNL     1      64.996  71.554 275.892  1.00  0.00    -0.048 N
ATOM     19 3H12 UNL     1      65.811  72.161 275.794  1.00  0.00     0.276 HD
ATOM     20 2H12 UNL     1      65.308  70.776 275.310  1.00  0.00     0.276 HD
ATOM     21 1H12 UNL     1      64.156  71.991 275.512  1.00  0.00     0.276 HD
ENDBRANCH  17  18
BRANCH  17  22
HETATM   22  C9  UNL     1      64.133  72.333 277.956  1.00  0.00     0.226 C
BRANCH  22  23
HETATM   23  O1  UNL     1      63.879  72.062 279.289  1.00  0.00    -0.397 OA
ATOM     24  H1  UNL     1      63.290  72.701 279.672  1.00  0.00     0.209 HD
ENDBRANCH  22  23
ENDBRANCH  17  22
ENDBRANCH  14  17
ENDBRANCH  13  14
ENDBRANCH  11  13
BRANCH   1  25
HETATM   25  N1  UNL     1      65.986  71.014 281.170  1.00  0.00    -0.232 N
ATOM     26  H12 UNL     1      65.076  70.623 280.927  1.00  0.00     0.174 HD
ATOM     27  H11 UNL     1      65.874  72.017 281.322  1.00  0.00     0.174 HD
ENDBRANCH   1  25
BRANCH   6  28
HETATM   28  C4  UNL     1      70.792  67.572 280.514  1.00  0.00     0.170 A
HETATM   29  N5  UNL     1      71.335  67.370 281.705  1.00  0.00    -0.267 N
HETATM   30  N6  UNL     1      72.521  66.837 281.550  1.00  0.00    -0.227 N
ATOM     31  H5  UNL     1      70.899  67.595 282.599  1.00  0.00     0.190 HD
HETATM   32  N7  UNL     1      72.761  66.686 280.255  1.00  0.00    -0.227 N
ATOM     33  H6  UNL     1      73.157  66.579 282.304  1.00  0.00     0.210 HD
HETATM   34  N8  UNL     1      71.718  67.129 279.603  1.00  0.00    -0.267 N
ATOM     35  H7  UNL     1      73.608  66.294 279.843  1.00  0.00     0.210 HD
ATOM     36  H8  UNL     1      71.611  67.143 278.589  1.00  0.00     0.190 HD
ENDBRANCH   6  28
BRANCH   4  37
HETATM   37  N3  UNL     1      69.997  69.433 282.812  1.00  0.00    -0.232 N
ATOM     38  H32 UNL     1      70.834  70.012 282.877  1.00  0.00     0.174 HD
ATOM     39  H31 UNL     1      70.052  68.674 283.492  1.00  0.00     0.174 HD
ENDBRANCH   4  37
TORSDOF 9
ENDMDL