MODEL 2
REMARK VINA RESULT: -7.572016734      1.378      1.767
REMARK  9 active torsions:
REMARK  status: ('A' for Active; 'I' for Inactive)
REMARK    1  A    between atoms: N1_1  and  C1_4
REMARK    2  A    between atoms: C2_7  and  N3_8
REMARK    3  A    between atoms: N6_16  and  C4_17
REMARK    4  A    between atoms: C4_17  and  C5_18
REMARK    5  A    between atoms: C5_18  and  C6_20
REMARK    6  A    between atoms: C6_20  and  O2_21
REMARK    7  A    between atoms: C6_20  and  C7_23
REMARK    8  A    between atoms: C8_28  and  N9_29
REMARK    9  A    between atoms: N9_29  and  N10_31
ROOT
HETATM    1  C1  UNL     1      70.487  67.304 278.919  1.00  0.00     0.679 A
HETATM    2  N2  UNL     1      71.262  67.312 280.025  1.00  0.00    -0.175 N
ATOM      3  H2  UNL     1      72.164  66.836 280.020  1.00  0.00     0.186 HD
HETATM    4  C2  UNL     1      70.844  67.948 281.134  1.00  0.00     0.147 A
HETATM    5  C3  UNL     1      69.622  68.576 281.095  1.00  0.00     0.140 A
HETATM    6  N4  UNL     1      68.915  69.294 282.021  1.00  0.00    -0.279 N
ATOM      7  H4  UNL     1      69.209  69.497 282.977  1.00  0.00     0.189 HD
HETATM    8  N5  UNL     1      67.772  69.682 281.448  1.00  0.00    -0.238 N
ATOM      9  H5  UNL     1      67.059  70.235 281.925  1.00  0.00     0.208 HD
HETATM   10  N6  UNL     1      67.666  69.277 280.218  1.00  0.00    -0.252 N
HETATM   11  C9  UNL     1      68.817  68.580 279.977  1.00  0.00     0.171 A
HETATM   12  N12 UNL     1      69.292  67.927 278.903  1.00  0.00    -0.173 N
ATOM     13  H12 UNL     1      68.732  67.903 278.051  1.00  0.00     0.186 HD
ENDROOT
BRANCH  10  14
HETATM   14  C4  UNL     1      66.654  69.440 279.198  1.00  0.00     0.234 C
BRANCH  14  15
HETATM   15  C5  UNL     1      66.029  70.785 279.324  1.00  0.00     0.182 C
HETATM   16  O1  UNL     1      66.532  71.633 280.032  1.00  0.00    -0.293 OA
BRANCH  15  17
HETATM   17  C6  UNL     1      64.792  71.069 278.580  1.00  0.00     0.258 C
BRANCH  17  18
HETATM   18  O2  UNL     1      64.187  72.218 279.143  1.00  0.00    -0.380 OA
ATOM     19  H2  UNL     1      64.100  72.875 278.462  1.00  0.00     0.211 HD
ENDBRANCH  17  18
BRANCH  17  20
HETATM   20  C7  UNL     1      65.201  71.382 277.167  1.00  0.00     0.148 A
HETATM   21  N7  UNL     1      64.452  71.273 276.090  1.00  0.00    -0.272 N
HETATM   22  N8  UNL     1      65.201  71.641 275.034  1.00  0.00    -0.129 N
ATOM     23  H7  UNL     1      63.481  70.966 276.060  1.00  0.00     0.189 HD
HETATM   24  C8  UNL     1      66.432  71.983 275.451  1.00  0.00     0.712 A
ATOM     25  H8  UNL     1      64.882  71.658 274.065  1.00  0.00     0.205 HD
HETATM   26  N11 UNL     1      66.417  71.816 276.794  1.00  0.00    -0.173 N
ATOM     27  H11 UNL     1      67.202  71.991 277.422  1.00  0.00     0.185 HD
BRANCH  24  28
HETATM   28  N9  UNL     1      67.547  72.429 274.678  1.00  0.00    -0.137 N
ATOM     29  H9  UNL     1      67.731  72.015 273.764  1.00  0.00     0.205 HD
BRANCH  28  30
HETATM   30  N10 UNL     1      68.380  73.423 275.169  1.00  0.00    -0.331 N
ATOM     31 2H10 UNL     1      68.916  73.244 276.018  1.00  0.00     0.177 HD
ATOM     32 1H10 UNL     1      68.451  74.316 274.682  1.00  0.00     0.177 HD
ENDBRANCH  28  30
ENDBRANCH  24  28
ENDBRANCH  17  20
ENDBRANCH  15  17
ENDBRANCH  14  15
ENDBRANCH  10  14
BRANCH   4  33
HETATM   33  N3  UNL     1      71.602  67.940 282.163  1.00  0.00    -0.383 N
ATOM     34  H32 UNL     1      72.443  67.369 282.240  1.00  0.00     0.157 HD
ATOM     35  H31 UNL     1      71.354  68.534 282.954  1.00  0.00     0.157 HD
ENDBRANCH   4  33
BRANCH   1  36
HETATM   36  N1  UNL     1      70.838  66.704 277.835  1.00  0.00    -0.234 N
ATOM     37  H12 UNL     1      71.832  66.720 277.606  1.00  0.00     0.174 HD
ATOM     38  H11 UNL     1      70.165  66.239 277.226  1.00  0.00     0.174 HD
ENDBRANCH   1  36
TORSDOF 9
ENDMDL