MODEL 3
REMARK VINA RESULT: -6.610802465      3.047      6.649
REMARK  9 active torsions:
REMARK  status: ('A' for Active; 'I' for Inactive)
REMARK    1  A    between atoms: N1_1  and  N2_4
REMARK    2  A    between atoms: N2_4  and  N3_6
REMARK    3  A    between atoms: N4_8  and  C1_10
REMARK    4  A    between atoms: C1_10  and  O1_11
REMARK    5  A    between atoms: C1_10  and  N5_13
REMARK       I    between atoms: N5_13  and  C2_15
REMARK       I    between atoms: C2_15  and  N7_20
REMARK    6  A    between atoms: N6_16  and  O2_18
REMARK    7  A    between atoms: N7_20  and  N8_22
REMARK       I    between atoms: N9_24  and  C3_26
REMARK    8  A    between atoms: C3_26  and  C4_28
REMARK    9  A    between atoms: C6_32  and  C7_33
ROOT
HETATM    1  N5  UNL     1      68.000  70.355 279.979  1.00  0.00    -0.177 N
ATOM      2  H5  UNL     1      68.516  71.190 279.702  1.00  0.00     0.182 HD
HETATM    3  C2  UNL     1      68.646  69.088 280.188  1.00  0.00     0.716 C
HETATM    4  N6  UNL     1      69.049  68.858 281.391  1.00  0.00    -0.097 N
ATOM      5  H6  UNL     1      68.896  69.562 282.113  1.00  0.00     0.213 HD
HETATM    6  N7  UNL     1      68.804  68.191 279.117  1.00  0.00    -0.116 N
ATOM      7  H7  UNL     1      69.653  68.225 278.552  1.00  0.00     0.207 HD
ENDROOT
BRANCH   1   8
HETATM    8  C1  UNL     1      66.551  70.368 280.191  1.00  0.00     0.358 C
BRANCH   8   9
HETATM    9  N4  UNL     1      65.924  71.131 279.145  1.00  0.00    -0.274 N
HETATM   10  N3  UNL     1      64.756  71.582 279.373  1.00  0.00    -0.229 N
ATOM     11  H3  UNL     1      64.287  71.407 280.262  1.00  0.00     0.209 HD
ATOM     12  H4  UNL     1      66.397  71.304 278.258  1.00  0.00     0.186 HD
BRANCH  10  13
HETATM   13  N2  UNL     1      64.146  72.317 278.371  1.00  0.00    -0.235 N
ATOM     14  H2  UNL     1      63.294  72.844 278.567  1.00  0.00     0.209 HD
BRANCH  13  15
HETATM   15  N1  UNL     1      64.697  72.333 277.101  1.00  0.00    -0.330 N
ATOM     16  H12 UNL     1      65.653  72.665 276.977  1.00  0.00     0.178 HD
ATOM     17  H11 UNL     1      64.142  72.013 276.307  1.00  0.00     0.178 HD
ENDBRANCH  13  15
ENDBRANCH  10  13
ENDBRANCH   8   9
BRANCH   8  18
HETATM   18  O1  UNL     1      66.263  70.807 281.460  1.00  0.00    -0.358 OA
ATOM     19  H1  UNL     1      66.855  70.483 282.130  1.00  0.00     0.214 HD
ENDBRANCH   8  18
ENDBRANCH   1   8
BRANCH   4  20
HETATM   20  O2  UNL     1      69.675  67.695 281.717  1.00  0.00    -0.276 OA
ATOM     21  H2  UNL     1      69.310  67.102 282.363  1.00  0.00     0.245 HD
ENDBRANCH   4  20
BRANCH   6  22
HETATM   22  N8  UNL     1      67.819  67.259 278.817  1.00  0.00    -0.226 N
HETATM   23  N9  UNL     1      67.951  66.260 278.082  1.00  0.00    -0.249 N
HETATM   24  C3  UNL     1      69.137  65.880 277.407  1.00  0.00     0.289 C
ATOM     25  H9  UNL     1      67.134  65.665 277.956  1.00  0.00     0.192 HD
HETATM   26  O3  UNL     1      70.257  66.201 277.874  1.00  0.00    -0.264 OA
ATOM     27  H8  UNL     1      66.901  67.404 279.238  1.00  0.00     0.209 HD
BRANCH  24  28
HETATM   28  C4  UNL     1      69.024  65.116 276.172  1.00  0.00     0.119 A
HETATM   29  C5  UNL     1      69.724  63.951 275.901  1.00  0.00     0.125 A
HETATM   30  N10 UNL     1      69.340  63.565 274.672  1.00  0.00    -0.346 N
HETATM   31  C6  UNL     1      68.427  64.439 274.159  1.00  0.00     0.172 A
ATOM     32  H10 UNL     1      69.685  62.734 274.190  1.00  0.00     0.167 HD
HETATM   33  N12 UNL     1      68.250  65.390 275.110  1.00  0.00    -0.333 N
ATOM     34  H12 UNL     1      67.625  66.191 275.030  1.00  0.00     0.168 HD
BRANCH  31  35
HETATM   35  C7  UNL     1      67.796  64.339 272.858  1.00  0.00     0.298 C
HETATM   36  N11 UNL     1      68.518  64.670 271.703  1.00  0.00    -0.054 NA
HETATM   37  O4  UNL     1      66.610  63.958 272.779  1.00  0.00    -0.268 OA
ENDBRANCH  31  35
ENDBRANCH  24  28
ENDBRANCH   6  22
TORSDOF 9
ENDMDL