MODEL 3
REMARK VINA RESULT: -3.937472382      2.463      3.937
REMARK  8 active torsions:
REMARK  status: ('A' for Active; 'I' for Inactive)
REMARK    1  A    between atoms: N1_1  and  C1_4
REMARK    2  A    between atoms: C2_7  and  N3_8
REMARK    3  A    between atoms: N6_16  and  C4_17
REMARK    4  A    between atoms: C4_17  and  C5_18
REMARK    5  A    between atoms: C4_17  and  C6_20
REMARK    6  A    between atoms: C6_20  and  C7_21
REMARK    7  A    between atoms: C6_20  and  N7_24
REMARK    8  A    between atoms: C7_21  and  O1_22
ROOT
HETATM    1  C1  UNL     1      69.173  67.335 279.017  1.00  0.00     0.679 A
HETATM    2  N2  UNL     1      69.859  67.510 280.158  1.00  0.00    -0.175 N
ATOM      3  H2  UNL     1      70.620  66.868 280.381  1.00  0.00     0.186 HD
HETATM    4  C2  UNL     1      69.571  68.506 281.018  1.00  0.00     0.147 A
HETATM    5  C3  UNL     1      68.544  69.372 280.719  1.00  0.00     0.140 A
HETATM    6  N4  UNL     1      68.008  70.435 281.339  1.00  0.00    -0.279 N
ATOM      7  H4  UNL     1      68.304  70.827 282.234  1.00  0.00     0.189 HD
HETATM    8  N5  UNL     1      67.031  70.876 280.580  1.00  0.00    -0.238 N
ATOM      9  H5  UNL     1      66.448  71.682 280.811  1.00  0.00     0.208 HD
HETATM   10  N6  UNL     1      66.890  70.153 279.478  1.00  0.00    -0.252 N
HETATM   11  C8  UNL     1      67.838  69.197 279.548  1.00  0.00     0.171 A
HETATM   12  N12 UNL     1      68.156  68.192 278.720  1.00  0.00    -0.173 N
ATOM     13  H12 UNL     1      67.630  68.067 277.855  1.00  0.00     0.186 HD
ENDROOT
BRANCH  10  14
HETATM   14  C4  UNL     1      65.884  70.395 278.447  1.00  0.00     0.149 C
BRANCH  14  15
HETATM   15  C5  UNL     1      66.284  71.518 277.542  1.00  0.00     0.115 C
HETATM   16  S1  UNL     1      65.419  71.361 275.942  1.00  0.00    -0.095 SA
ENDBRANCH  14  15
BRANCH  14  17
HETATM   17  C6  UNL     1      64.489  70.417 278.957  1.00  0.00     0.175 C
BRANCH  17  18
HETATM   18  C7  UNL     1      63.875  71.816 279.020  1.00  0.00     0.195 C
BRANCH  18  19
HETATM   19  O1  UNL     1      62.940  71.936 280.031  1.00  0.00    -0.399 OA
ATOM     20  H1  UNL     1      62.105  72.261 279.715  1.00  0.00     0.209 HD
ENDBRANCH  18  19
ENDBRANCH  17  18
BRANCH  17  21
HETATM   21  N7  UNL     1      64.314  69.848 280.270  1.00  0.00    -0.195 N
HETATM   22  N8  UNL     1      63.683  68.675 280.683  1.00  0.00    -0.214 N
HETATM   23  N9  UNL     1      63.315  68.802 281.902  1.00  0.00    -0.213 N
ATOM     24  H8  UNL     1      63.538  67.847 280.105  1.00  0.00     0.211 HD
HETATM   25  N10 UNL     1      63.699  70.079 282.326  1.00  0.00     0.010 NA
ATOM     26  H9  UNL     1      62.830  68.101 282.462  1.00  0.00     0.207 HD
HETATM   27  N11 UNL     1      64.787  70.410 281.487  1.00  0.00     0.013 NA
ENDBRANCH  17  21
ENDBRANCH  14  17
ENDBRANCH  10  14
BRANCH   4  28
HETATM   28  N3  UNL     1      70.246  68.651 282.110  1.00  0.00    -0.383 N
ATOM     29  H32 UNL     1      69.763  68.775 283.001  1.00  0.00     0.157 HD
ATOM     30  H31 UNL     1      71.267  68.643 282.097  1.00  0.00     0.157 HD
ENDBRANCH   4  28
BRANCH   1  31
HETATM   31  N1  UNL     1      69.431  66.382 278.171  1.00  0.00    -0.234 N
ATOM     32  H12 UNL     1      69.718  65.478 278.545  1.00  0.00     0.174 HD
ATOM     33  H11 UNL     1      69.360  66.499 277.160  1.00  0.00     0.174 HD
ENDBRANCH   1  31
TORSDOF 8
ENDMDL