MODEL 4
REMARK VINA RESULT: -4.822409781      1.654      2.483
REMARK  8 active torsions:
REMARK  status: ('A' for Active; 'I' for Inactive)
REMARK    1  A    between atoms: S1_2  and  C2_3
REMARK    2  A    between atoms: N2_6  and  C3_7
REMARK    3  A    between atoms: C3_7  and  N3_8
REMARK    4  A    between atoms: C3_7  and  O1_12
REMARK    5  A    between atoms: C4_14  and  N4_15
REMARK    6  A    between atoms: C5_18  and  C6_19
REMARK    7  A    between atoms: N5_20  and  N6_22
REMARK    8  A    between atoms: N6_22  and  N7_24
ROOT
HETATM    1  C2  UNL     1      70.036  67.180 278.579  1.00  0.00     0.100 A
HETATM    2  N1  UNL     1      71.113  67.133 279.383  1.00  0.00    -0.286 N
ATOM      3  H1  UNL     1      72.011  66.707 279.156  1.00  0.00     0.188 HD
HETATM    4  N2  UNL     1      70.806  67.735 280.518  1.00  0.00    -0.221 N
HETATM    5  C4  UNL     1      69.543  68.182 280.481  1.00  0.00     0.135 A
HETATM    6  C5  UNL     1      69.038  67.840 279.260  1.00  0.00     0.061 A
ENDROOT
BRANCH   6   7
HETATM    7  C6  UNL     1      67.705  68.105 278.743  1.00  0.00     0.126 C
HETATM    8  N5  UNL     1      67.236  69.282 278.825  1.00  0.00    -0.295 N
ATOM      9  H5  UNL     1      67.821  69.999 279.254  1.00  0.00     0.187 HD
BRANCH   8  10
HETATM   10  N6  UNL     1      65.975  69.661 278.366  1.00  0.00    -0.217 N
ATOM     11  H6  UNL     1      65.765  69.658 277.368  1.00  0.00     0.210 HD
BRANCH  10  12
HETATM   12  N7  UNL     1      65.004  70.043 279.292  1.00  0.00    -0.124 N
HETATM   13  N8  UNL     1      64.681  69.494 280.443  1.00  0.00    -0.246 N
HETATM   14  C7  UNL     1      63.683  70.167 281.046  1.00  0.00     0.212 A
ATOM     15  H8  UNL     1      65.130  68.664 280.830  1.00  0.00     0.192 HD
HETATM   16  N9  UNL     1      63.079  69.857 282.307  1.00  0.00    -0.062 NA
HETATM   17  N10 UNL     1      63.390  71.182 280.206  1.00  0.00    -0.279 N
HETATM   18  C8  UNL     1      64.192  71.119 279.127  1.00  0.00     0.364 A
ATOM     19  H10 UNL     1      62.671  71.887 280.364  1.00  0.00     0.173 HD
HETATM   20  O2  UNL     1      64.201  71.900 278.140  1.00  0.00    -0.243 OA
ENDBRANCH  10  12
ENDBRANCH   8  10
ENDBRANCH   6   7
BRANCH   1  21
HETATM   21  S1  UNL     1      69.983  66.491 276.935  1.00  0.00    -0.114 SA
HETATM   22  C1  UNL     1      68.409  65.613 276.760  1.00  0.00     0.097 C
ENDBRANCH   1  21
BRANCH   5  23
HETATM   23  N4  UNL     1      68.932  68.821 281.446  1.00  0.00    -0.383 N
ATOM     24  H42 UNL     1      67.930  68.847 281.636  1.00  0.00     0.157 HD
ATOM     25  H41 UNL     1      69.384  69.394 282.160  1.00  0.00     0.157 HD
ENDBRANCH   5  23
BRANCH   4  26
HETATM   26  C3  UNL     1      71.713  67.893 281.654  1.00  0.00     0.447 C
BRANCH  26  27
HETATM   27  N3  UNL     1      72.147  66.547 282.060  1.00  0.00    -0.033 N
ATOM     28  H33 UNL     1      73.149  66.399 281.942  1.00  0.00     0.279 HD
ATOM     29  H32 UNL     1      72.110  66.405 283.070  1.00  0.00     0.279 HD
ATOM     30  H31 UNL     1      71.581  65.875 281.542  1.00  0.00     0.279 HD
ENDBRANCH  26  27
BRANCH  26  31
HETATM   31  O1  UNL     1      71.058  68.489 282.726  1.00  0.00    -0.353 OA
ATOM     32  H1  UNL     1      70.755  69.358 282.492  1.00  0.00     0.214 HD
ENDBRANCH  26  31
ENDBRANCH   4  26
TORSDOF 8
ENDMDL