MODEL 2
REMARK VINA RESULT: -6.544348890      2.151      6.339
REMARK  8 active torsions:
REMARK  status: ('A' for Active; 'I' for Inactive)
REMARK    1  A    between atoms: N1_1  and  C1_4
REMARK    2  A    between atoms: C2_7  and  C3_8
REMARK    3  A    between atoms: C3_8  and  N3_9
REMARK    4  A    between atoms: C3_8  and  N4_13
REMARK    5  A    between atoms: N4_13  and  C4_16
REMARK    6  A    between atoms: C4_16  and  C5_17
REMARK    7  A    between atoms: N7_22  and  C6_23
REMARK    8  A    between atoms: C8_36  and  N14_37
ROOT
HETATM    1  N4  UNL     1      68.740  69.684 279.942  1.00  0.00    -0.034 N
ATOM      2  H41 UNL     1      69.744  69.772 280.099  1.00  0.00     0.280 HD
ATOM      3  H42 UNL     1      68.708  70.101 279.012  1.00  0.00     0.280 HD
ENDROOT
BRANCH   1   4
HETATM    4  C3  UNL     1      67.964  70.412 280.901  1.00  0.00     0.432 C
BRANCH   4   5
HETATM    5  C2  UNL     1      66.538  70.503 280.599  1.00  0.00     0.112 A
HETATM    6  N2  UNL     1      65.565  70.038 281.399  1.00  0.00    -0.190 N
HETATM    7  C1  UNL     1      64.267  70.162 281.043  1.00  0.00     0.677 A
ATOM      8  H2  UNL     1      65.807  69.586 282.281  1.00  0.00     0.184 HD
HETATM    9  N15 UNL     1      63.880  70.744 279.898  1.00  0.00    -0.175 N
HETATM   10  C8  UNL     1      64.809  71.223 279.066  1.00  0.00     0.141 A
ATOM     11  H15 UNL     1      62.890  70.820 279.666  1.00  0.00     0.186 HD
HETATM   12  C7  UNL     1      66.145  71.101 279.422  1.00  0.00     0.117 A
HETATM   13  N13 UNL     1      67.113  71.616 278.526  1.00  0.00    -0.096 NA
BRANCH   7  14
HETATM   14  N1  UNL     1      63.332  69.713 281.815  1.00  0.00    -0.234 N
ATOM     15  H12 UNL     1      62.640  69.096 281.390  1.00  0.00     0.174 HD
ATOM     16  H11 UNL     1      63.307  69.977 282.800  1.00  0.00     0.174 HD
ENDBRANCH   7  14
BRANCH  10  17
HETATM   17  N14 UNL     1      64.484  71.793 277.951  1.00  0.00    -0.383 N
ATOM     18 2H14 UNL     1      63.668  72.401 277.883  1.00  0.00     0.157 HD
ATOM     19 1H14 UNL     1      65.048  71.640 277.115  1.00  0.00     0.157 HD
ENDBRANCH  10  17
ENDBRANCH   4   5
BRANCH   4  20
HETATM   20  N3  UNL     1      68.195  69.783 282.205  1.00  0.00    -0.044 N
ATOM     21  H33 UNL     1      69.179  69.549 282.338  1.00  0.00     0.277 HD
ATOM     22  H32 UNL     1      68.087  70.452 282.967  1.00  0.00     0.277 HD
ATOM     23  H31 UNL     1      67.596  68.967 282.336  1.00  0.00     0.277 HD
ENDBRANCH   4  20
ENDBRANCH   1   4
BRANCH   1  24
HETATM   24  C4  UNL     1      68.292  68.310 279.952  1.00  0.00     0.314 C
BRANCH  24  25
HETATM   25  C5  UNL     1      69.027  67.527 278.925  1.00  0.00     0.140 A
HETATM   26  N5  UNL     1      70.350  67.509 278.678  1.00  0.00    -0.270 N
HETATM   27  N6  UNL     1      70.578  66.664 277.666  1.00  0.00    -0.205 N
ATOM     28  H5  UNL     1      71.058  68.048 279.177  1.00  0.00     0.190 HD
HETATM   29  N7  UNL     1      69.439  66.147 277.265  1.00  0.00    -0.001 N
ATOM     30  H6  UNL     1      71.494  66.454 277.267  1.00  0.00     0.211 HD
HETATM   31  N12 UNL     1      68.491  66.673 278.034  1.00  0.00    -0.249 N
ATOM     32  H12 UNL     1      67.496  66.460 277.959  1.00  0.00     0.191 HD
BRANCH  29  33
HETATM   33  C6  UNL     1      69.198  65.196 276.212  1.00  0.00     0.751 A
HETATM   34  N8  UNL     1      69.806  64.049 275.948  1.00  0.00    -0.112 N
HETATM   35  N9  UNL     1      69.221  63.530 274.867  1.00  0.00    -0.213 N
ATOM     36  H8  UNL     1      70.577  63.637 276.474  1.00  0.00     0.207 HD
HETATM   37  N10 UNL     1      68.261  64.319 274.440  1.00  0.00    -0.213 N
ATOM     38  H9  UNL     1      69.484  62.645 274.432  1.00  0.00     0.210 HD
HETATM   39  N11 UNL     1      68.248  65.346 275.272  1.00  0.00    -0.112 N
ATOM     40  H10 UNL     1      67.653  64.170 273.634  1.00  0.00     0.210 HD
ATOM     41  H11 UNL     1      67.609  66.139 275.210  1.00  0.00     0.207 HD
ENDBRANCH  29  33
ENDBRANCH  24  25
ENDBRANCH   1  24
TORSDOF 8
ENDMDL