MODEL 1
REMARK VINA RESULT: -3.765871678      0.000      0.000
REMARK  10 active torsions:
REMARK  status: ('A' for Active; 'I' for Inactive)
REMARK    1  A    between atoms: C2_2  and  C3_3
REMARK    2  A    between atoms: C3_3  and  C4_4
REMARK    3  A    between atoms: C5_8  and  N3_9
REMARK    4  A    between atoms: C6_14  and  N5_15
REMARK    5  A    between atoms: N5_15  and  N6_17
REMARK    6  A    between atoms: N6_17  and  C7_19
REMARK    7  A    between atoms: C7_19  and  C8_20
REMARK    8  A    between atoms: C8_20  and  N7_22
REMARK    9  A    between atoms: C8_20  and  N8_26
REMARK   10  A    between atoms: N10_34  and  N11_36
ROOT
HETATM    1  C4  UNL     1      66.965  61.680 273.220  1.00  0.00     0.098 A
HETATM    2  N1  UNL     1      67.474  62.757 272.635  1.00  0.00    -0.266 N
ATOM      3  H1  UNL     1      68.340  63.159 272.994  1.00  0.00     0.189 HD
HETATM    4  N2  UNL     1      66.873  63.326 271.581  1.00  0.00    -0.064 N
HETATM    5  C5  UNL     1      67.395  64.417 270.991  1.00  0.00     0.713 A
HETATM    6  N4  UNL     1      66.729  64.921 269.944  1.00  0.00    -0.019 N
ATOM      7  H4  UNL     1      67.112  65.749 269.487  1.00  0.00     0.203 HD
HETATM    8  C6  UNL     1      65.589  64.403 269.458  1.00  0.00     0.712 A
HETATM    9  N9  UNL     1      65.109  63.307 270.087  1.00  0.00    -0.168 N
ATOM     10  H9  UNL     1      64.245  62.884 269.748  1.00  0.00     0.186 HD
HETATM   11  C10 UNL     1      65.723  62.760 271.133  1.00  0.00     0.206 A
HETATM   12  C11 UNL     1      65.167  61.645 271.715  1.00  0.00     0.169 A
HETATM   13  N10 UNL     1      64.086  61.076 271.329  1.00  0.00    -0.289 N
ATOM     14  H10 UNL     1      63.750  60.250 271.826  1.00  0.00     0.188 HD
HETATM   15  N12 UNL     1      65.824  61.125 272.770  1.00  0.00    -0.327 N
ATOM     16  H12 UNL     1      65.451  60.297 273.235  1.00  0.00     0.169 HD
ENDROOT
BRANCH   8  17
HETATM   17  N5  UNL     1      64.960  64.911 268.438  1.00  0.00    -0.136 N
ATOM     18  H5  UNL     1      65.463  65.286 267.634  1.00  0.00     0.205 HD
BRANCH  17  19
HETATM   19  N6  UNL     1      63.571  64.919 268.496  1.00  0.00    -0.318 N
ATOM     20  H6  UNL     1      63.042  64.063 268.329  1.00  0.00     0.180 HD
BRANCH  19  21
HETATM   21  C7  UNL     1      62.891  66.153 268.794  1.00  0.00     0.208 C
BRANCH  21  22
HETATM   22  C8  UNL     1      61.676  65.944 269.668  1.00  0.00     0.295 C
HETATM   23  C9  UNL     1      61.849  66.864 270.883  1.00  0.00     0.080 C
BRANCH  22  24
HETATM   24  N7  UNL     1      61.655  64.553 270.059  1.00  0.00    -0.043 N
ATOM     25  H73 UNL     1      61.816  64.418 271.057  1.00  0.00     0.277 HD
ATOM     26  H72 UNL     1      60.722  64.142 270.018  1.00  0.00     0.277 HD
ATOM     27  H71 UNL     1      62.332  64.060 269.477  1.00  0.00     0.277 HD
ENDBRANCH  22  24
BRANCH  22  28
HETATM   28  N8  UNL     1      60.454  66.305 269.043  1.00  0.00    -0.043 N
ATOM     29  H83 UNL     1      59.905  65.475 268.821  1.00  0.00     0.277 HD
ATOM     30  H82 UNL     1      59.827  66.752 269.712  1.00  0.00     0.277 HD
ATOM     31  H81 UNL     1      60.572  66.890 268.216  1.00  0.00     0.277 HD
ENDBRANCH  22  28
ENDBRANCH  21  22
ENDBRANCH  19  21
ENDBRANCH  17  19
ENDBRANCH   8  17
BRANCH   5  32
HETATM   32  N3  UNL     1      68.491  64.930 271.444  1.00  0.00    -0.232 N
ATOM     33  H32 UNL     1      68.717  65.921 271.364  1.00  0.00     0.174 HD
ATOM     34  H31 UNL     1      69.176  64.333 271.908  1.00  0.00     0.174 HD
ENDBRANCH   5  32
BRANCH  13  35
HETATM   35  N11 UNL     1      63.358  61.564 270.242  1.00  0.00    -0.344 N
ATOM     36 2H11 UNL     1      63.700  61.366 269.302  1.00  0.00     0.176 HD
ATOM     37 1H11 UNL     1      62.505  62.106 270.377  1.00  0.00     0.176 HD
ENDBRANCH  13  35
BRANCH   1  38
HETATM   38  C3  UNL     1      67.650  61.075 274.381  1.00  0.00     0.077 C
BRANCH  38  39
HETATM   39  C2  UNL     1      69.069  61.607 274.409  1.00  0.00     0.003 C
HETATM   40  C1  UNL     1      69.221  62.738 275.402  1.00  0.00     0.005 C
ENDBRANCH  38  39
ENDBRANCH   1  38
TORSDOF 10
ENDMDL