MODEL 5
REMARK VINA RESULT: -6.449639945      2.135      3.227
REMARK  10 active torsions:
REMARK  status: ('A' for Active; 'I' for Inactive)
REMARK    1  A    between atoms: C2_2  and  C3_3
REMARK    2  A    between atoms: C3_3  and  N1_4
REMARK    3  A    between atoms: C3_3  and  C4_9
REMARK    4  A    between atoms: N1_4  and  N2_6
REMARK    5  A    between atoms: C4_9  and  O1_10
REMARK    6  A    between atoms: C4_9  and  C5_12
REMARK    7  A    between atoms: C6_15  and  N4_16
REMARK    8  A    between atoms: N4_16  and  N5_18
REMARK    9  A    between atoms: C7_21  and  N7_22
REMARK   10  A    between atoms: C8_27  and  N9_28
ROOT
HETATM    1  C5  UNL     1      68.864  68.698 280.441  1.00  0.00     0.143 A
HETATM    2  N3  UNL     1      68.534  69.999 280.321  1.00  0.00    -0.174 N
ATOM      3  H3  UNL     1      68.995  70.770 280.803  1.00  0.00     0.185 HD
HETATM    4  C6  UNL     1      67.503  70.122 279.466  1.00  0.00     0.714 A
HETATM    5  N10 UNL     1      67.178  68.889 279.043  1.00  0.00    -0.129 N
ATOM      6  H10 UNL     1      66.435  68.651 278.387  1.00  0.00     0.205 HD
HETATM    7  N11 UNL     1      68.000  68.045 279.634  1.00  0.00    -0.272 N
ATOM      8  H11 UNL     1      67.986  67.034 279.500  1.00  0.00     0.189 HD
ENDROOT
BRANCH   4   9
HETATM    9  N4  UNL     1      66.961  71.254 279.145  1.00  0.00    -0.106 N
ATOM     10  H4  UNL     1      67.185  72.089 279.686  1.00  0.00     0.208 HD
BRANCH   9  11
HETATM   11  N5  UNL     1      66.074  71.352 278.069  1.00  0.00    -0.127 N
HETATM   12  N6  UNL     1      66.366  71.602 276.796  1.00  0.00    -0.107 N
HETATM   13  C7  UNL     1      65.232  71.613 276.075  1.00  0.00     0.695 A
ATOM     14  H6  UNL     1      67.303  71.761 276.425  1.00  0.00     0.208 HD
HETATM   15  N8  UNL     1      64.236  71.363 276.940  1.00  0.00    -0.152 N
HETATM   16  C8  UNL     1      64.740  71.197 278.186  1.00  0.00     0.302 A
ATOM     17  H8  UNL     1      63.248  71.306 276.696  1.00  0.00     0.187 HD
BRANCH  13  18
HETATM   18  N7  UNL     1      65.154  71.828 274.798  1.00  0.00    -0.233 N
ATOM     19  H72 UNL     1      64.351  71.700 274.182  1.00  0.00     0.174 HD
ATOM     20  H71 UNL     1      65.913  72.170 274.208  1.00  0.00     0.174 HD
ENDBRANCH  13  18
BRANCH  16  21
HETATM   21  N9  UNL     1      64.036  70.917 279.388  1.00  0.00    -0.075 N
HETATM   22  O2  UNL     1      63.169  71.710 279.774  1.00  0.00    -0.529 OA
HETATM   23  O3  UNL     1      64.360  69.766 280.067  1.00  0.00    -0.529 OA
ENDBRANCH  16  21
ENDBRANCH   9  11
ENDBRANCH   4   9
BRANCH   1  24
HETATM   24  C4  UNL     1      69.936  68.077 281.272  1.00  0.00     0.211 C
BRANCH  24  25
HETATM   25  C3  UNL     1      71.204  68.012 280.471  1.00  0.00     0.134 C
BRANCH  25  26
HETATM   26  C2  UNL     1      70.915  67.301 279.161  1.00  0.00     0.025 C
HETATM   27  C1  UNL     1      72.100  66.409 278.776  1.00  0.00     0.007 C
ENDBRANCH  25  26
BRANCH  25  28
HETATM   28  N1  UNL     1      72.319  67.487 281.165  1.00  0.00    -0.335 N
ATOM     29  H1  UNL     1      73.264  67.594 280.797  1.00  0.00     0.180 HD
BRANCH  28  30
HETATM   30  N2  UNL     1      72.100  66.844 282.325  1.00  0.00    -0.349 N
ATOM     31  H22 UNL     1      72.881  66.420 282.826  1.00  0.00     0.176 HD
ATOM     32  H21 UNL     1      71.145  66.795 282.678  1.00  0.00     0.176 HD
ENDBRANCH  28  30
ENDBRANCH  25  28
ENDBRANCH  24  25
BRANCH  24  33
HETATM   33  O1  UNL     1      70.074  68.695 282.486  1.00  0.00    -0.386 OA
ATOM     34  H1  UNL     1      69.781  68.172 283.222  1.00  0.00     0.210 HD
ENDBRANCH  24  33
ENDBRANCH   1  24
TORSDOF 10
ENDMDL