MODEL 4
REMARK VINA RESULT: -5.242974286      3.729      6.797
REMARK  9 active torsions:
REMARK  status: ('A' for Active; 'I' for Inactive)
REMARK    1  A    between atoms: N4_11  and  C5_12
REMARK    2  A    between atoms: C5_12  and  C6_13
REMARK    3  A    between atoms: C6_13  and  C7_14
REMARK    4  A    between atoms: C7_14  and  N5_15
REMARK    5  A    between atoms: N5_15  and  N6_17
REMARK    6  A    between atoms: C8_20  and  N8_21
REMARK    7  A    between atoms: C9_26  and  N10_27
REMARK    8  A    between atoms: N10_27  and  N11_29
REMARK    9  A    between atoms: C11_33  and  N12_34
ROOT
HETATM    1  C6  UNL     1      68.757  66.115 278.114  1.00  0.00     0.041 C
ENDROOT
BRANCH   1   2
HETATM    2  C5  UNL     1      69.663  67.322 278.173  1.00  0.00     0.136 C
BRANCH   2   3
HETATM    3  N4  UNL     1      69.588  67.958 279.481  1.00  0.00    -0.293 N
HETATM    4  C4  UNL     1      70.573  67.795 280.422  1.00  0.00     0.328 A
HETATM    5  N3  UNL     1      70.188  68.508 281.483  1.00  0.00    -0.292 N
HETATM    6  O1  UNL     1      71.598  67.103 280.252  1.00  0.00    -0.246 OA
HETATM    7  C3  UNL     1      69.008  69.105 281.241  1.00  0.00     0.141 A
ATOM      8  H3  UNL     1      70.714  68.587 282.353  1.00  0.00     0.172 HD
HETATM    9  N2  UNL     1      68.209  69.909 281.955  1.00  0.00    -0.336 N
HETATM   10  C10 UNL     1      68.626  68.745 279.943  1.00  0.00     0.127 A
HETATM   11  C2  UNL     1      67.053  70.374 281.449  1.00  0.00     0.185 A
ATOM     12  H2  UNL     1      68.483  70.174 282.900  1.00  0.00     0.168 HD
HETATM   13  N1  UNL     1      66.658  70.047 280.210  1.00  0.00    -0.332 N
HETATM   14  C1  UNL     1      65.423  70.521 279.620  1.00  0.00     0.158 C
HETATM   15  C11 UNL     1      67.430  69.235 279.442  1.00  0.00     0.133 A
BRANCH  15  16
HETATM   16  N12 UNL     1      67.074  68.912 278.252  1.00  0.00    -0.383 N
ATOM     17 2H12 UNL     1      67.277  67.972 277.912  1.00  0.00     0.157 HD
ATOM     18 1H12 UNL     1      66.595  69.578 277.646  1.00  0.00     0.157 HD
ENDBRANCH  15  16
ENDBRANCH   2   3
ENDBRANCH   1   2
BRANCH   1  19
HETATM   19  C7  UNL     1      68.236  65.901 276.719  1.00  0.00     0.143 C
BRANCH  19  20
HETATM   20  N5  UNL     1      69.110  64.992 275.993  1.00  0.00    -0.300 N
ATOM     21  H5  UNL     1      70.094  64.916 276.255  1.00  0.00     0.182 HD
BRANCH  20  22
HETATM   22  N6  UNL     1      68.609  64.224 274.940  1.00  0.00    -0.008 N
HETATM   23  N7  UNL     1      67.979  64.730 273.887  1.00  0.00    -0.096 N
HETATM   24  C8  UNL     1      67.626  63.737 273.061  1.00  0.00     0.707 A
ATOM     25  H7  UNL     1      67.793  65.720 273.732  1.00  0.00     0.208 HD
HETATM   26  N9  UNL     1      68.056  62.603 273.634  1.00  0.00    -0.017 N
HETATM   27  C9  UNL     1      68.677  62.907 274.817  1.00  0.00     0.747 A
ATOM     28  H9  UNL     1      67.940  61.665 273.250  1.00  0.00     0.203 HD
BRANCH  24  29
HETATM   29  N8  UNL     1      66.993  63.798 271.921  1.00  0.00    -0.233 N
ATOM     30  H82 UNL     1      67.354  64.252 271.082  1.00  0.00     0.174 HD
ATOM     31  H81 UNL     1      66.077  63.426 271.672  1.00  0.00     0.174 HD
ENDBRANCH  24  29
BRANCH  27  32
HETATM   32  N10 UNL     1      69.167  61.991 275.540  1.00  0.00    -0.135 N
ATOM     33  H10 UNL     1      68.554  61.638 276.276  1.00  0.00     0.205 HD
BRANCH  32  34
HETATM   34  N11 UNL     1      70.408  61.404 275.475  1.00  0.00    -0.331 N
ATOM     35 2H11 UNL     1      70.846  61.452 274.554  1.00  0.00     0.177 HD
ATOM     36 1H11 UNL     1      70.940  60.937 276.209  1.00  0.00     0.177 HD
ENDBRANCH  32  34
ENDBRANCH  27  32
ENDBRANCH  20  22
ENDBRANCH  19  20
ENDBRANCH   1  19
TORSDOF 9
ENDMDL