MODEL 1
REMARK VINA RESULT: -6.580787866      0.000      0.000
REMARK  9 active torsions:
REMARK  status: ('A' for Active; 'I' for Inactive)
REMARK    1  A    between atoms: C3_5  and  N2_6
REMARK    2  A    between atoms: N3_8  and  N4_10
REMARK       I    between atoms: N4_10  and  C4_12
REMARK       I    between atoms: C4_12  and  N5_14
REMARK    3  A    between atoms: N5_14  and  N6_16
REMARK       I    between atoms: N6_16  and  C5_18
REMARK    4  A    between atoms: C5_18  and  C6_20
REMARK    5  A    between atoms: C6_20  and  N7_21
REMARK    6  A    between atoms: C6_20  and  N8_25
REMARK    7  A    between atoms: C7_31  and  C8_32
REMARK    8  A    between atoms: C8_32  and  N10_33
REMARK    9  A    between atoms: C8_32  and  O3_37
ROOT
HETATM    1  N2  UNL     1      68.702  66.769 277.878  1.00  0.00    -0.117 N
ATOM      2  H2  UNL     1      67.821  66.485 277.448  1.00  0.00     0.207 HD
HETATM    3  N3  UNL     1      69.829  66.393 277.431  1.00  0.00    -0.224 N
ATOM      4  H3  UNL     1      70.672  66.713 277.907  1.00  0.00     0.209 HD
ENDROOT
BRANCH   3   5
HETATM    5  N4  UNL     1      69.967  65.560 276.315  1.00  0.00    -0.235 N
HETATM    6  C4  UNL     1      68.845  65.084 275.590  1.00  0.00     0.354 C
HETATM    7  O1  UNL     1      67.684  65.405 275.938  1.00  0.00    -0.244 OA
HETATM    8  N5  UNL     1      69.034  64.244 274.468  1.00  0.00    -0.248 N
ATOM      9  H5  UNL     1      69.980  63.986 274.187  1.00  0.00     0.192 HD
ATOM     10  H4  UNL     1      70.903  65.288 276.014  1.00  0.00     0.193 HD
BRANCH   8  11
HETATM   11  N6  UNL     1      67.948  63.764 273.739  1.00  0.00    -0.263 N
HETATM   12  C5  UNL     1      67.790  64.106 272.374  1.00  0.00     0.294 C
HETATM   13  O2  UNL     1      68.647  64.853 271.821  1.00  0.00    -0.267 OA
ATOM     14  H6  UNL     1      67.260  63.162 274.193  1.00  0.00     0.190 HD
BRANCH  12  15
HETATM   15  C6  UNL     1      66.631  63.603 271.569  1.00  0.00     0.469 C
BRANCH  15  16
HETATM   16  N7  UNL     1      66.740  64.087 270.215  1.00  0.00    -0.041 N
ATOM     17  H73 UNL     1      65.829  64.237 269.785  1.00  0.00     0.277 HD
ATOM     18  H72 UNL     1      67.081  65.047 270.175  1.00  0.00     0.277 HD
ATOM     19  H71 UNL     1      67.322  63.448 269.671  1.00  0.00     0.277 HD
ENDBRANCH  15  16
BRANCH  15  20
HETATM   20  N8  UNL     1      66.669  62.165 271.540  1.00  0.00    -0.041 N
ATOM     21  H83 UNL     1      67.609  61.804 271.378  1.00  0.00     0.277 HD
ATOM     22  H82 UNL     1      66.515  61.754 272.461  1.00  0.00     0.277 HD
ATOM     23  H81 UNL     1      66.000  61.829 270.847  1.00  0.00     0.277 HD
ENDBRANCH  15  20
ENDBRANCH  12  15
ENDBRANCH   8  11
ENDBRANCH   3   5
BRANCH   1  24
HETATM   24  C3  UNL     1      68.753  67.627 279.036  1.00  0.00     0.700 A
HETATM   25  N1  UNL     1      69.782  67.535 279.898  1.00  0.00    -0.179 N
HETATM   26  C2  UNL     1      69.857  68.331 281.000  1.00  0.00     0.095 A
ATOM     27  H1  UNL     1      70.521  66.854 279.723  1.00  0.00     0.185 HD
HETATM   28  C1  UNL     1      71.010  68.202 281.933  1.00  0.00     0.089 C
HETATM   29  N11 UNL     1      68.861  69.214 281.191  1.00  0.00    -0.331 N
HETATM   30  C7  UNL     1      67.813  69.343 280.357  1.00  0.00     0.155 A
ATOM     31  H11 UNL     1      68.902  69.819 282.012  1.00  0.00     0.168 HD
HETATM   32  N9  UNL     1      67.791  68.529 279.284  1.00  0.00    -0.174 N
ATOM     33  H9  UNL     1      67.010  68.602 278.632  1.00  0.00     0.185 HD
BRANCH  30  34
HETATM   34  C8  UNL     1      66.717  70.324 280.577  1.00  0.00     0.385 C
BRANCH  34  35
HETATM   35  N10 UNL     1      67.045  71.597 279.984  1.00  0.00    -0.046 N
ATOM     36 3H10 UNL     1      66.890  72.368 280.634  1.00  0.00     0.277 HD
ATOM     37 2H10 UNL     1      68.051  71.706 279.856  1.00  0.00     0.277 HD
ATOM     38 1H10 UNL     1      66.535  71.731 279.110  1.00  0.00     0.277 HD
ENDBRANCH  34  35
BRANCH  34  39
HETATM   39  O3  UNL     1      65.575  69.847 279.912  1.00  0.00    -0.364 OA
ATOM     40  H3  UNL     1      64.977  69.509 280.568  1.00  0.00     0.212 HD
ENDBRANCH  34  39
ENDBRANCH  30  34
ENDBRANCH   1  24
TORSDOF 9
ENDMDL