MODEL 5
REMARK VINA RESULT: -6.707907369      2.970      7.950
REMARK  12 active torsions:
REMARK  status: ('A' for Active; 'I' for Inactive)
REMARK       I    between atoms: C1_4  and  N3_6
REMARK    1  A    between atoms: N3_6  and  C2_8
REMARK    2  A    between atoms: C2_8  and  C3_9
REMARK    3  A    between atoms: C3_9  and  C4_10
REMARK    4  A    between atoms: C4_10  and  N4_11
REMARK    5  A    between atoms: N4_11  and  C5_12
REMARK    6  A    between atoms: C5_12  and  C6_13
REMARK       I    between atoms: C6_13  and  N5_15
REMARK    7  A    between atoms: N5_15  and  C7_17
REMARK    8  A    between atoms: C7_17  and  C8_18
REMARK    9  A    between atoms: C8_18  and  C9_19
REMARK   10  A    between atoms: C9_19  and  N6_20
REMARK   11  A    between atoms: N6_20  and  C10_22
REMARK   12  A    between atoms: N7_23  and  N8_25
ROOT
HETATM    1  C5  UNL     1     -11.537  24.749 -16.211  1.00  0.00     0.349 C
ENDROOT
BRANCH   1   2
HETATM    2  N4  UNL     1     -10.807  25.765 -16.965  1.00  0.00     0.004 N
HETATM    3  C11 UNL     1     -10.174  26.651 -16.023  1.00  0.00     0.257 A
HETATM    4  C12 UNL     1     -11.059  27.747 -16.442  1.00  0.00     0.140 A
HETATM    5  C13 UNL     1     -11.575  26.806 -17.456  1.00  0.00     0.320 A
HETATM    6  O2  UNL     1     -12.406  27.052 -18.352  1.00  0.00    -0.265 OA
BRANCH   2   7
HETATM    7  C4  UNL     1      -9.811  25.131 -17.767  1.00  0.00     0.249 C
BRANCH   7   8
HETATM    8  C3  UNL     1      -8.439  25.648 -17.798  1.00  0.00     0.048 C
BRANCH   8   9
HETATM    9  C2  UNL     1      -7.324  24.780 -17.319  1.00  0.00     0.124 C
BRANCH   9  10
HETATM   10  N3  UNL     1      -7.587  24.234 -15.991  1.00  0.00    -0.365 N
HETATM   11  C1  UNL     1      -7.545  22.834 -15.799  1.00  0.00     0.181 C
HETATM   12  N1  UNL     1      -8.271  22.267 -14.886  1.00  0.00    -0.374 N
HETATM   13  N2  UNL     1      -6.722  21.989 -16.589  1.00  0.00    -0.064 NA
ATOM     14  H12 UNL     1      -8.240  21.257 -14.747  1.00  0.00     0.158 HD
ATOM     15  H11 UNL     1      -8.862  22.874 -14.319  1.00  0.00     0.158 HD
ATOM     16  H3  UNL     1      -7.799  24.856 -15.211  1.00  0.00     0.162 HD
ENDBRANCH   9  10
ENDBRANCH   8   9
ENDBRANCH   7   8
ENDBRANCH   2   7
ENDBRANCH   1   2
BRANCH   1  17
HETATM   17  C6  UNL     1     -12.803  24.323 -16.775  1.00  0.00     0.244 C
HETATM   18  O1  UNL     1     -12.976  23.902 -17.941  1.00  0.00    -0.272 OA
HETATM   19  N5  UNL     1     -13.979  24.369 -15.966  1.00  0.00    -0.360 N
ATOM     20  H5  UNL     1     -13.895  24.711 -15.008  1.00  0.00     0.162 HD
BRANCH  19  21
HETATM   21  C7  UNL     1     -15.279  23.958 -16.435  1.00  0.00     0.124 C
BRANCH  21  22
HETATM   22  C8  UNL     1     -15.597  22.516 -16.322  1.00  0.00     0.039 C
BRANCH  22  23
HETATM   23  C9  UNL     1     -16.170  21.867 -17.540  1.00  0.00     0.122 C
BRANCH  23  24
HETATM   24  N6  UNL     1     -16.835  22.727 -18.459  1.00  0.00    -0.385 N
ATOM     25  H6  UNL     1     -16.772  23.727 -18.264  1.00  0.00     0.160 HD
BRANCH  24  26
HETATM   26  C10 UNL     1     -17.565  22.366 -19.596  1.00  0.00     0.192 C
HETATM   27  N7  UNL     1     -17.777  23.118 -20.619  1.00  0.00    -0.303 N
ATOM     28  H7  UNL     1     -18.328  22.748 -21.392  1.00  0.00     0.187 HD
BRANCH  27  29
HETATM   29  N8  UNL     1     -17.286  24.414 -20.714  1.00  0.00    -0.344 N
ATOM     30  H82 UNL     1     -16.314  24.530 -20.997  1.00  0.00     0.176 HD
ATOM     31  H81 UNL     1     -17.855  25.236 -20.514  1.00  0.00     0.176 HD
ENDBRANCH  27  29
ENDBRANCH  24  26
ENDBRANCH  23  24
ENDBRANCH  22  23
ENDBRANCH  21  22
ENDBRANCH  19  21
ENDBRANCH   1  17
TORSDOF 12
ENDMDL