MODEL 5
REMARK VINA RESULT: -7.803282273      2.487      5.906
REMARK  13 active torsions:
REMARK  status: ('A' for Active; 'I' for Inactive)
REMARK    1  A    between atoms: N3_4  and  C2_6
REMARK    2  A    between atoms: C2_6  and  C3_7
REMARK    3  A    between atoms: C3_7  and  O1_8
REMARK    4  A    between atoms: O1_8  and  C4_9
REMARK    5  A    between atoms: C4_9  and  C5_10
REMARK    6  A    between atoms: C5_10  and  C6_11
REMARK    7  A    between atoms: C6_11  and  C7_12
REMARK    8  A    between atoms: C7_12  and  C8_13
REMARK    9  A    between atoms: C8_13  and  N5_18
REMARK   10  A    between atoms: N4_14  and  C9_16
REMARK   11  A    between atoms: N5_18  and  C10_20
REMARK   12  A    between atoms: C10_20  and  C11_21
REMARK   13  A    between atoms: C11_21  and  C12_22
REMARK       I    between atoms: C12_22  and  N6_24
ROOT
HETATM    1  C8  UNL     1     -14.729  23.780 -15.760  1.00  0.00     0.079 C
HETATM    2  N4  UNL     1     -15.361  24.499 -14.913  1.00  0.00    -0.324 N
ATOM      3  H4  UNL     1     -15.108  25.485 -14.844  1.00  0.00     0.169 HD
ENDROOT
BRANCH   1   4
HETATM    4  C7  UNL     1     -15.121  22.316 -15.842  1.00  0.00     0.076 C
BRANCH   4   5
HETATM    5  C6  UNL     1     -15.342  22.023 -17.292  1.00  0.00     0.010 C
BRANCH   5   6
HETATM    6  C5  UNL     1     -16.815  22.071 -17.636  1.00  0.00     0.027 C
BRANCH   6   7
HETATM    7  C4  UNL     1     -17.015  21.749 -19.065  1.00  0.00     0.167 C
BRANCH   7   8
HETATM    8  O1  UNL     1     -16.563  22.488 -20.046  1.00  0.00    -0.390 OA
BRANCH   8   9
HETATM    9  C3  UNL     1     -17.087  23.298 -20.914  1.00  0.00     0.187 C
BRANCH   9  10
HETATM   10  C2  UNL     1     -17.084  24.751 -20.582  1.00  0.00     0.148 C
BRANCH  10  11
HETATM   11  N3  UNL     1     -16.243  25.497 -21.555  1.00  0.00    -0.365 N
HETATM   12  C1  UNL     1     -15.793  26.627 -21.165  1.00  0.00     0.197 C
HETATM   13  N1  UNL     1     -16.091  27.120 -19.875  1.00  0.00    -0.067 NA
HETATM   14  N2  UNL     1     -14.984  27.386 -22.047  1.00  0.00    -0.067 NA
ATOM     15  H3  UNL     1     -16.038  25.127 -22.484  1.00  0.00     0.161 HD
ENDBRANCH  10  11
ENDBRANCH   9  10
ENDBRANCH   8   9
ENDBRANCH   7   8
ENDBRANCH   6   7
ENDBRANCH   5   6
ENDBRANCH   4   5
ENDBRANCH   1   4
BRANCH   1  16
HETATM   16  N5  UNL     1     -13.705  24.288 -16.596  1.00  0.00    -0.379 N
ATOM     17  H5  UNL     1     -13.978  24.816 -17.425  1.00  0.00     0.160 HD
BRANCH  16  18
HETATM   18  C10 UNL     1     -12.306  24.101 -16.342  1.00  0.00     0.130 C
BRANCH  18  19
HETATM   19  C11 UNL     1     -11.478  25.344 -16.360  1.00  0.00     0.123 C
BRANCH  19  20
HETATM   20  C12 UNL     1     -10.735  25.430 -17.640  1.00  0.00     0.225 C
HETATM   21  O3  UNL     1      -9.731  26.162 -17.707  1.00  0.00    -0.273 OA
HETATM   22  N6  UNL     1     -11.138  24.703 -18.782  1.00  0.00    -0.304 N
HETATM   23  C13 UNL     1     -12.177  25.008 -19.452  1.00  0.00     0.203 C
ATOM     24  H6  UNL     1     -10.576  23.906 -19.081  1.00  0.00     0.171 HD
HETATM   25  N7  UNL     1     -13.003  26.103 -19.092  1.00  0.00    -0.066 NA
HETATM   26  N8  UNL     1     -12.534  24.245 -20.591  1.00  0.00    -0.066 NA
ENDBRANCH  19  20
ENDBRANCH  18  19
ENDBRANCH  16  18
ENDBRANCH   1  16
BRANCH   2  27
HETATM   27  C9  UNL     1     -16.385  24.022 -14.065  1.00  0.00     0.354 C
HETATM   28  O2  UNL     1     -16.688  24.663 -13.035  1.00  0.00    -0.283 OA
ENDBRANCH   2  27
TORSDOF 13
ENDMDL