MODEL 5
REMARK VINA RESULT: -5.939572288      4.426      8.865
REMARK  12 active torsions:
REMARK  status: ('A' for Active; 'I' for Inactive)
REMARK    1  A    between atoms: N1_2  and  C3_4
REMARK    2  A    between atoms: N1_2  and  C7_12
REMARK    3  A    between atoms: C3_4  and  C4_5
REMARK    4  A    between atoms: C4_5  and  C5_6
REMARK    5  A    between atoms: C5_6  and  N2_7
REMARK    6  A    between atoms: C7_12  and  C8_13
REMARK    7  A    between atoms: C10_15  and  N5_16
REMARK    8  A    between atoms: C11_20  and  C12_21
REMARK    9  A    between atoms: C12_21  and  C13_22
REMARK       I    between atoms: C13_22  and  N6_24
REMARK   10  A    between atoms: N6_24  and  C14_26
REMARK   11  A    between atoms: C14_26  and  C15_27
REMARK   12  A    between atoms: C15_27  and  N7_28
ROOT
HETATM    1  C8  UNL     1      -8.429  26.711 -17.674  1.00  0.00     0.150 C
HETATM    2  C9  UNL     1      -8.884  27.343 -16.420  1.00  0.00     0.069 C
HETATM    3  C10 UNL     1     -10.338  26.816 -16.316  1.00  0.00     0.218 C
HETATM    4  C11 UNL     1     -10.294  25.750 -17.309  1.00  0.00     0.180 C
HETATM    5  O2  UNL     1      -9.598  26.388 -18.374  1.00  0.00    -0.373 OA
ENDROOT
BRANCH   1   6
HETATM    6  C7  UNL     1      -7.378  27.340 -18.466  1.00  0.00     0.268 C
BRANCH   6   7
HETATM    7  N1  UNL     1      -6.047  26.902 -18.385  1.00  0.00    -0.072 N
HETATM    8  C1  UNL     1      -5.384  27.304 -19.652  1.00  0.00     0.272 C
HETATM    9  C2  UNL     1      -5.229  27.519 -17.370  1.00  0.00     0.272 C
BRANCH   7  10
HETATM   10  C3  UNL     1      -5.988  25.472 -18.377  1.00  0.00     0.238 C
BRANCH  10  11
HETATM   11  C4  UNL     1      -5.453  24.871 -17.118  1.00  0.00     0.047 C
BRANCH  11  12
HETATM   12  C5  UNL     1      -6.232  23.631 -16.738  1.00  0.00     0.123 C
BRANCH  12  13
HETATM   13  N2  UNL     1      -7.420  23.945 -15.987  1.00  0.00    -0.367 N
HETATM   14  C6  UNL     1      -8.114  23.092 -15.338  1.00  0.00     0.196 C
HETATM   15  N3  UNL     1      -7.819  21.706 -15.260  1.00  0.00    -0.067 NA
HETATM   16  N4  UNL     1      -9.269  23.576 -14.646  1.00  0.00    -0.067 NA
ATOM     17  H2  UNL     1      -7.730  24.917 -15.972  1.00  0.00     0.161 HD
ENDBRANCH  12  13
ENDBRANCH  11  12
ENDBRANCH  10  11
ENDBRANCH   7  10
ENDBRANCH   6   7
ENDBRANCH   1   6
BRANCH   3  18
HETATM   18  N5  UNL     1     -11.156  27.938 -16.464  1.00  0.00    -0.072 N
ATOM     19  H53 UNL     1     -10.647  28.821 -16.443  1.00  0.00     0.274 HD
ATOM     20  H52 UNL     1     -11.541  28.043 -17.404  1.00  0.00     0.274 HD
ATOM     21  H51 UNL     1     -11.868  27.857 -15.738  1.00  0.00     0.274 HD
ENDBRANCH   3  18
BRANCH   4  22
HETATM   22  C12 UNL     1     -11.427  24.964 -17.733  1.00  0.00     0.080 C
BRANCH  22  23
HETATM   23  C13 UNL     1     -12.149  25.220 -18.953  1.00  0.00     0.239 C
HETATM   24  O1  UNL     1     -13.051  26.064 -19.051  1.00  0.00    -0.269 OA
HETATM   25  N6  UNL     1     -11.850  24.498 -20.128  1.00  0.00    -0.356 N
ATOM     26  H6  UNL     1     -11.113  23.795 -20.082  1.00  0.00     0.162 HD
BRANCH  25  27
HETATM   27  C14 UNL     1     -12.523  24.693 -21.390  1.00  0.00     0.150 C
BRANCH  27  28
HETATM   28  C15 UNL     1     -11.634  24.260 -22.535  1.00  0.00     0.249 C
BRANCH  28  29
HETATM   29  N7  UNL     1     -10.245  24.207 -22.162  1.00  0.00    -0.078 N
ATOM     30  H73 UNL     1     -10.087  23.513 -21.431  1.00  0.00     0.274 HD
ATOM     31  H72 UNL     1      -9.680  23.794 -22.905  1.00  0.00     0.274 HD
ATOM     32  H71 UNL     1      -9.881  25.119 -21.886  1.00  0.00     0.274 HD
ENDBRANCH  28  29
ENDBRANCH  27  28
ENDBRANCH  25  27
ENDBRANCH  22  23
ENDBRANCH   4  22
TORSDOF 12
ENDMDL