MODEL 2
REMARK VINA RESULT: -7.341071546      5.789      8.190
REMARK  12 active torsions:
REMARK  status: ('A' for Active; 'I' for Inactive)
REMARK    1  A    between atoms: N3_4  and  C2_6
REMARK    2  A    between atoms: C2_6  and  C3_7
REMARK    3  A    between atoms: C3_7  and  C4_8
REMARK    4  A    between atoms: C4_8  and  C5_9
REMARK    5  A    between atoms: C5_9  and  N4_10
REMARK    6  A    between atoms: C7_12  and  O1_13
REMARK    7  A    between atoms: C8_15  and  C9_16
REMARK    8  A    between atoms: C9_16  and  N5_17
REMARK       I    between atoms: N5_17  and  C10_19
REMARK    9  A    between atoms: C10_19  and  C11_21
REMARK   10  A    between atoms: C11_21  and  C12_22
REMARK   11  A    between atoms: C12_22  and  C13_23
REMARK   12  A    between atoms: C13_23  and  N6_24
ROOT
HETATM    1  N4  UNL     1     -10.164  26.347 -17.569  1.00  0.00    -0.382 N
HETATM    2  C6  UNL     1      -9.749  27.312 -16.639  1.00  0.00     0.156 A
HETATM    3  C7  UNL     1     -11.144  27.208 -16.016  1.00  0.00     0.160 A
HETATM    4  C8  UNL     1     -11.480  26.215 -17.151  1.00  0.00     0.131 A
ENDROOT
BRANCH   4   5
HETATM    5  C9  UNL     1     -11.971  24.960 -16.528  1.00  0.00     0.150 C
BRANCH   5   6
HETATM    6  N5  UNL     1     -13.387  24.814 -16.767  1.00  0.00    -0.359 N
HETATM    7  C10 UNL     1     -14.184  23.721 -16.330  1.00  0.00     0.217 C
HETATM    8  O2  UNL     1     -13.654  22.803 -15.682  1.00  0.00    -0.274 OA
ATOM      9  H5  UNL     1     -13.853  25.555 -17.291  1.00  0.00     0.162 HD
BRANCH   7  10
HETATM   10  C11 UNL     1     -15.605  23.697 -16.649  1.00  0.00     0.104 C
BRANCH  10  11
HETATM   11  C12 UNL     1     -16.218  22.367 -16.907  1.00  0.00     0.029 C
BRANCH  11  12
HETATM   12  C13 UNL     1     -16.844  22.341 -18.276  1.00  0.00     0.122 C
BRANCH  12  13
HETATM   13  N6  UNL     1     -16.917  20.952 -18.719  1.00  0.00    -0.367 N
HETATM   14  C14 UNL     1     -16.020  20.477 -19.503  1.00  0.00     0.196 C
HETATM   15  N7  UNL     1     -16.058  19.135 -19.954  1.00  0.00    -0.067 NA
HETATM   16  N8  UNL     1     -14.965  21.322 -19.929  1.00  0.00    -0.067 NA
ATOM     17  H6  UNL     1     -17.683  20.358 -18.406  1.00  0.00     0.161 HD
ENDBRANCH  12  13
ENDBRANCH  11  12
ENDBRANCH  10  11
ENDBRANCH   7  10
ENDBRANCH   5   6
ENDBRANCH   4   5
BRANCH   1  18
HETATM   18  C5  UNL     1      -9.354  25.399 -18.150  1.00  0.00     0.059 C
BRANCH  18  19
HETATM   19  C4  UNL     1      -8.026  25.099 -17.523  1.00  0.00     0.046 C
BRANCH  19  20
HETATM   20  C3  UNL     1      -8.116  23.898 -16.580  1.00  0.00     0.025 C
BRANCH  20  21
HETATM   21  C2  UNL     1      -8.318  24.367 -15.149  1.00  0.00     0.122 C
BRANCH  21  22
HETATM   22  N3  UNL     1      -7.300  25.341 -14.875  1.00  0.00    -0.367 N
HETATM   23  C1  UNL     1      -7.504  26.270 -14.010  1.00  0.00     0.196 C
HETATM   24  N1  UNL     1      -6.486  27.209 -13.763  1.00  0.00    -0.067 NA
HETATM   25  N2  UNL     1      -8.734  26.340 -13.325  1.00  0.00    -0.067 NA
ATOM     26  H3  UNL     1      -6.409  25.296 -15.369  1.00  0.00     0.161 HD
ENDBRANCH  21  22
ENDBRANCH  20  21
ENDBRANCH  19  20
ENDBRANCH  18  19
ENDBRANCH   1  18
BRANCH   3  27
HETATM   27  O1  UNL     1     -11.901  28.349 -16.105  1.00  0.00    -0.392 OA
ATOM     28  H1  UNL     1     -12.029  28.808 -15.284  1.00  0.00     0.210 HD
ENDBRANCH   3  27
TORSDOF 12
ENDMDL