MODEL 2
REMARK VINA RESULT: -6.661642343      1.898      3.081
REMARK  13 active torsions:
REMARK  status: ('A' for Active; 'I' for Inactive)
REMARK    1  A    between atoms: C2_2  and  C3_3
REMARK    2  A    between atoms: C3_3  and  C4_4
REMARK    3  A    between atoms: C4_4  and  C5_5
REMARK    4  A    between atoms: C5_5  and  N1_6
REMARK    5  A    between atoms: N1_6  and  C6_9
REMARK    6  A    between atoms: C6_9  and  C7_10
REMARK    7  A    between atoms: C7_10  and  O1_11
REMARK    8  A    between atoms: C7_10  and  N2_13
REMARK    9  A    between atoms: C9_15  and  N3_16
REMARK       I    between atoms: N3_16  and  C10_18
REMARK   10  A    between atoms: C11_23  and  C12_24
REMARK   11  A    between atoms: C12_24  and  N6_25
REMARK   12  A    between atoms: C13_30  and  C14_31
REMARK   13  A    between atoms: C14_31  and  O2_32
ROOT
HETATM    1  N2  UNL     1     -12.460  24.930 -17.187  1.00  0.00    -0.355 N
HETATM    2  C8  UNL     1     -11.884  26.247 -16.772  1.00  0.00     0.150 C
HETATM    3  C9  UNL     1     -10.659  25.591 -16.093  1.00  0.00     0.109 C
HETATM    4  C11 UNL     1     -10.102  24.868 -17.261  1.00  0.00     0.054 C
HETATM    5  C13 UNL     1     -11.393  24.385 -17.957  1.00  0.00     0.117 C
ENDROOT
BRANCH   1   6
HETATM    6  C7  UNL     1     -13.718  24.545 -16.801  1.00  0.00     0.140 C
BRANCH   6   7
HETATM    7  C6  UNL     1     -14.144  23.310 -16.133  1.00  0.00     0.315 C
BRANCH   7   8
HETATM    8  N1  UNL     1     -15.485  22.963 -16.407  1.00  0.00    -0.068 N
ATOM      9  H12 UNL     1     -16.024  23.784 -16.682  1.00  0.00     0.277 HD
ATOM     10  H11 UNL     1     -15.979  22.718 -15.549  1.00  0.00     0.277 HD
BRANCH   8  11
HETATM   11  C5  UNL     1     -15.615  21.888 -17.414  1.00  0.00     0.232 C
BRANCH  11  12
HETATM   12  C4  UNL     1     -16.956  22.019 -18.061  1.00  0.00     0.027 C
BRANCH  12  13
HETATM   13  C3  UNL     1     -16.927  21.865 -19.570  1.00  0.00     0.001 C
BRANCH  13  14
HETATM   14  C2  UNL     1     -17.955  22.802 -20.158  1.00  0.00    -0.005 C
HETATM   15  C1  UNL     1     -17.268  24.091 -20.622  1.00  0.00     0.005 C
ENDBRANCH  13  14
ENDBRANCH  12  13
ENDBRANCH  11  12
ENDBRANCH   8  11
ENDBRANCH   7   8
ENDBRANCH   6   7
BRANCH   6  16
HETATM   16  O1  UNL     1     -14.742  25.342 -17.022  1.00  0.00    -0.348 OA
ATOM     17  H1  UNL     1     -14.476  26.112 -17.511  1.00  0.00     0.219 HD
ENDBRANCH   6  16
ENDBRANCH   1   6
BRANCH   5  18
HETATM   18  C14 UNL     1     -11.541  24.937 -19.353  1.00  0.00     0.189 C
BRANCH  18  19
HETATM   19  O2  UNL     1     -12.224  24.147 -20.237  1.00  0.00    -0.399 OA
ATOM     20  H2  UNL     1     -13.166  24.266 -20.257  1.00  0.00     0.209 HD
ENDBRANCH  18  19
ENDBRANCH   5  18
BRANCH   3  21
HETATM   21  N3  UNL     1      -9.885  26.485 -15.360  1.00  0.00    -0.358 N
HETATM   22  C10 UNL     1      -8.913  26.024 -14.433  1.00  0.00     0.182 C
HETATM   23  N4  UNL     1      -8.865  24.753 -14.129  1.00  0.00    -0.374 N
HETATM   24  N5  UNL     1      -7.990  26.909 -13.826  1.00  0.00    -0.064 NA
ATOM     25  H42 UNL     1      -9.530  24.115 -14.567  1.00  0.00     0.158 HD
ATOM     26  H41 UNL     1      -8.167  24.422 -13.463  1.00  0.00     0.158 HD
ATOM     27  H3  UNL     1     -10.019  27.488 -15.491  1.00  0.00     0.162 HD
ENDBRANCH   3  21
BRANCH   4  28
HETATM   28  C12 UNL     1      -9.265  25.637 -18.213  1.00  0.00     0.147 C
BRANCH  28  29
HETATM   29  N6  UNL     1      -7.871  25.357 -18.206  1.00  0.00    -0.342 N
HETATM   30  N7  UNL     1      -7.394  24.573 -17.379  1.00  0.00    -0.349 N
ATOM     31  H72 UNL     1      -8.019  24.131 -16.704  1.00  0.00     0.176 HD
ATOM     32  H71 UNL     1      -6.395  24.372 -17.374  1.00  0.00     0.176 HD
ATOM     33  H6  UNL     1      -7.261  25.806 -18.888  1.00  0.00     0.179 HD
ENDBRANCH  28  29
ENDBRANCH   4  28
TORSDOF 13
ENDMDL