MODEL 3
REMARK VINA RESULT: -6.734419561      1.945      5.321
REMARK  12 active torsions:
REMARK  status: ('A' for Active; 'I' for Inactive)
REMARK    1  A    between atoms: C3_5  and  C4_6
REMARK    2  A    between atoms: C3_5  and  N5_12
REMARK    3  A    between atoms: C4_6  and  N2_7
REMARK       I    between atoms: N5_12  and  C6_14
REMARK    4  A    between atoms: N7_16  and  C7_18
REMARK    5  A    between atoms: C7_18  and  C8_19
REMARK    6  A    between atoms: C8_19  and  C9_20
REMARK    7  A    between atoms: C9_20  and  N8_21
REMARK    8  A    between atoms: C9_20  and  C10_25
REMARK    9  A    between atoms: C10_25  and  C11_26
REMARK   10  A    between atoms: C11_26  and  C12_27
REMARK   11  A    between atoms: C12_27  and  N9_28
REMARK   12  A    between atoms: N9_28  and  C13_30
ROOT
HETATM    1  C1  UNL     1     -16.896  28.787 -21.596  1.00  0.00     0.123 C
HETATM    2  C2  UNL     1     -16.221  27.801 -21.868  1.00  0.00    -0.074 C
HETATM    3  N1  UNL     1     -15.467  26.663 -22.168  1.00  0.00    -0.314 N
ATOM      4  H1  UNL     1     -14.638  26.746 -22.757  1.00  0.00     0.176 HD
HETATM    5  C3  UNL     1     -15.809  25.516 -21.710  1.00  0.00     0.108 C
ENDROOT
BRANCH   5   6
HETATM    6  C4  UNL     1     -15.006  24.307 -22.030  1.00  0.00     0.199 C
BRANCH   6   7
HETATM    7  N2  UNL     1     -13.753  24.642 -22.685  1.00  0.00    -0.360 N
HETATM    8  C5  UNL     1     -12.622  24.600 -22.079  1.00  0.00     0.197 C
HETATM    9  N3  UNL     1     -12.546  24.216 -20.713  1.00  0.00    -0.067 NA
HETATM   10  N4  UNL     1     -11.449  24.940 -22.784  1.00  0.00    -0.067 NA
ATOM     11  H2  UNL     1     -13.773  24.921 -23.666  1.00  0.00     0.162 HD
ENDBRANCH   6   7
ENDBRANCH   5   6
BRANCH   5  12
HETATM   12  N5  UNL     1     -16.958  25.412 -20.896  1.00  0.00    -0.318 N
HETATM   13  C6  UNL     1     -17.323  24.161 -20.340  1.00  0.00     0.189 C
HETATM   14  N6  UNL     1     -18.329  23.330 -20.913  1.00  0.00    -0.064 NA
HETATM   15  N7  UNL     1     -16.744  23.708 -19.260  1.00  0.00    -0.364 N
ATOM     16  H7  UNL     1     -16.018  24.276 -18.822  1.00  0.00     0.162 HD
ATOM     17  H5  UNL     1     -17.527  26.238 -20.709  1.00  0.00     0.169 HD
BRANCH  15  18
HETATM   18  C7  UNL     1     -17.081  22.457 -18.666  1.00  0.00     0.124 C
BRANCH  18  19
HETATM   19  C8  UNL     1     -16.126  22.013 -17.598  1.00  0.00     0.052 C
BRANCH  19  20
HETATM   20  C9  UNL     1     -15.662  23.118 -16.714  1.00  0.00     0.185 C
BRANCH  20  21
HETATM   21  N8  UNL     1     -15.996  22.990 -15.338  1.00  0.00    -0.075 N
ATOM     22  H83 UNL     1     -16.506  22.120 -15.184  1.00  0.00     0.274 HD
ATOM     23  H82 UNL     1     -15.154  22.807 -14.791  1.00  0.00     0.274 HD
ATOM     24  H81 UNL     1     -16.511  23.771 -14.932  1.00  0.00     0.274 HD
ENDBRANCH  20  21
BRANCH  20  25
HETATM   25  C10 UNL     1     -14.095  23.077 -16.785  1.00  0.00     0.038 C
BRANCH  25  26
HETATM   26  C11 UNL     1     -13.652  24.469 -16.757  1.00  0.00     0.046 C
BRANCH  26  27
HETATM   27  C12 UNL     1     -12.211  24.748 -16.694  1.00  0.00     0.063 C
BRANCH  27  28
HETATM   28  N9  UNL     1     -11.754  26.029 -16.344  1.00  0.00    -0.348 N
ATOM     29  H9  UNL     1     -11.781  26.237 -15.345  1.00  0.00     0.167 HD
BRANCH  28  30
HETATM   30  C13 UNL     1     -11.269  27.061 -17.148  1.00  0.00     0.352 C
HETATM   31  O1  UNL     1     -11.799  27.487 -18.200  1.00  0.00    -0.283 OA
ENDBRANCH  28  30
ENDBRANCH  27  28
ENDBRANCH  26  27
ENDBRANCH  25  26
ENDBRANCH  20  25
ENDBRANCH  19  20
ENDBRANCH  18  19
ENDBRANCH  15  18
ENDBRANCH   5  12
TORSDOF 12
ENDMDL