MODEL 5
REMARK VINA RESULT: -6.728132061      4.052      7.250
REMARK  12 active torsions:
REMARK  status: ('A' for Active; 'I' for Inactive)
REMARK    1  A    between atoms: C1_2  and  N2_4
REMARK    2  A    between atoms: N2_4  and  C2_6
REMARK    3  A    between atoms: C2_6  and  C3_7
REMARK    4  A    between atoms: C3_7  and  C4_8
REMARK    5  A    between atoms: C4_8  and  C5_9
REMARK    6  A    between atoms: C5_9  and  N3_10
REMARK       I    between atoms: N3_10  and  C6_12
REMARK    7  A    between atoms: C6_12  and  C7_14
REMARK    8  A    between atoms: C7_14  and  N4_15
REMARK    9  A    between atoms: N4_15  and  C8_16
REMARK   10  A    between atoms: C8_16  and  C9_17
REMARK   11  A    between atoms: C9_17  and  C10_18
REMARK   12  A    between atoms: C10_18  and  N5_19
ROOT
HETATM    1  N3  UNL     1     -14.856  23.685 -17.133  1.00  0.00    -0.360 N
ATOM      2  H3  UNL     1     -15.147  24.369 -17.831  1.00  0.00     0.162 HD
HETATM    3  C6  UNL     1     -15.632  22.513 -16.981  1.00  0.00     0.243 C
HETATM    4  O1  UNL     1     -15.259  21.674 -16.110  1.00  0.00    -0.272 OA
ENDROOT
BRANCH   3   5
HETATM    5  C7  UNL     1     -16.829  22.184 -17.745  1.00  0.00     0.339 C
BRANCH   5   6
HETATM    6  N4  UNL     1     -16.608  21.731 -19.098  1.00  0.00    -0.056 N
HETATM    7  C12 UNL     1     -15.273  21.280 -19.352  1.00  0.00     0.266 A
HETATM    8  C13 UNL     1     -16.402  20.300 -19.322  1.00  0.00     0.266 A
BRANCH   6   9
HETATM    9  C8  UNL     1     -17.380  22.399 -20.093  1.00  0.00     0.239 C
BRANCH   9  10
HETATM   10  C9  UNL     1     -17.322  23.897 -20.035  1.00  0.00     0.048 C
BRANCH  10  11
HETATM   11  C10 UNL     1     -16.434  24.482 -21.113  1.00  0.00     0.123 C
BRANCH  11  12
HETATM   12  N5  UNL     1     -16.692  25.890 -21.223  1.00  0.00    -0.367 N
HETATM   13  C11 UNL     1     -16.037  26.818 -20.648  1.00  0.00     0.196 C
HETATM   14  N6  UNL     1     -14.939  26.656 -19.796  1.00  0.00    -0.067 NA
HETATM   15  N7  UNL     1     -16.477  28.167 -20.906  1.00  0.00    -0.067 NA
ATOM     16  H5  UNL     1     -17.471  26.174 -21.817  1.00  0.00     0.161 HD
ENDBRANCH  11  12
ENDBRANCH  10  11
ENDBRANCH   9  10
ENDBRANCH   6   9
ENDBRANCH   5   6
ENDBRANCH   3   5
BRANCH   1  17
HETATM   17  C5  UNL     1     -13.679  23.962 -16.359  1.00  0.00     0.122 C
BRANCH  17  18
HETATM   18  C4  UNL     1     -12.647  24.729 -17.142  1.00  0.00     0.021 C
BRANCH  18  19
HETATM   19  C3  UNL     1     -11.481  25.074 -16.203  1.00  0.00     0.021 C
BRANCH  19  20
HETATM   20  C2  UNL     1     -11.101  26.492 -16.494  1.00  0.00     0.121 C
BRANCH  20  21
HETATM   21  N2  UNL     1     -10.020  26.959 -15.668  1.00  0.00    -0.369 N
ATOM     22  H2  UNL     1     -10.134  27.044 -14.657  1.00  0.00     0.161 HD
BRANCH  21  23
HETATM   23  C1  UNL     1      -8.789  27.301 -16.293  1.00  0.00     0.180 C
HETATM   24  N1  UNL     1      -7.887  28.217 -15.700  1.00  0.00    -0.070 NA
HETATM   25  S1  UNL     1      -8.404  26.620 -17.735  1.00  0.00    -0.044 SA
ENDBRANCH  21  23
ENDBRANCH  20  21
ENDBRANCH  19  20
ENDBRANCH  18  19
ENDBRANCH  17  18
ENDBRANCH   1  17
TORSDOF 12
ENDMDL