MODEL 2
REMARK VINA RESULT: -6.055798288      1.067      2.791
REMARK  15 active torsions:
REMARK  status: ('A' for Active; 'I' for Inactive)
REMARK    1  A    between atoms: N1_2  and  C4_5
REMARK    2  A    between atoms: C4_5  and  C5_6
REMARK    3  A    between atoms: C5_6  and  N2_7
REMARK    4  A    between atoms: N2_7  and  C6_8
REMARK    5  A    between atoms: N2_7  and  S1_14
REMARK    6  A    between atoms: C6_8  and  C7_9
REMARK    7  A    between atoms: C7_9  and  N3_10
REMARK    8  A    between atoms: S1_14  and  C8_16
REMARK    9  A    between atoms: C8_16  and  N4_17
REMARK   10  A    between atoms: C8_16  and  N5_20
REMARK   11  A    between atoms: N5_20  and  C9_22
REMARK   12  A    between atoms: C9_22  and  C10_23
REMARK   13  A    between atoms: C10_23  and  C11_24
REMARK   14  A    between atoms: C11_24  and  C12_25
REMARK   15  A    between atoms: C12_25  and  C13_26
ROOT
HETATM    1  S1  UNL     1     -11.005  26.569 -17.739  1.00  0.00     0.162 S
HETATM    2  O1  UNL     1     -11.872  27.388 -16.775  1.00  0.00    -0.233 OA
ENDROOT
BRANCH   1   3
HETATM    3  N2  UNL     1      -9.562  26.038 -17.029  1.00  0.00    -0.223 NA
BRANCH   3   4
HETATM    4  C5  UNL     1      -9.611  24.673 -16.560  1.00  0.00     0.133 C
BRANCH   4   5
HETATM    5  C4  UNL     1      -8.236  24.091 -16.354  1.00  0.00     0.251 C
BRANCH   5   6
HETATM    6  N1  UNL     1      -8.063  23.470 -15.066  1.00  0.00    -0.077 N
HETATM    7  C1  UNL     1      -7.217  24.323 -14.239  1.00  0.00     0.271 C
HETATM    8  C2  UNL     1      -7.506  22.155 -15.110  1.00  0.00     0.271 C
HETATM    9  C3  UNL     1      -9.377  23.384 -14.438  1.00  0.00     0.271 C
ENDBRANCH   5   6
ENDBRANCH   4   5
ENDBRANCH   3   4
BRANCH   3  10
HETATM   10  C6  UNL     1      -9.138  26.964 -16.015  1.00  0.00     0.132 C
BRANCH  10  11
HETATM   11  C7  UNL     1      -7.965  27.826 -16.455  1.00  0.00     0.245 C
BRANCH  11  12
HETATM   12  N3  UNL     1      -7.358  28.371 -15.243  1.00  0.00    -0.078 N
ATOM     13  H33 UNL     1      -7.059  29.341 -15.346  1.00  0.00     0.274 HD
ATOM     14  H32 UNL     1      -8.031  28.522 -14.491  1.00  0.00     0.274 HD
ATOM     15  H31 UNL     1      -6.599  27.744 -14.981  1.00  0.00     0.274 HD
ENDBRANCH  11  12
ENDBRANCH  10  11
ENDBRANCH   3  10
ENDBRANCH   1   3
BRANCH   1  16
HETATM   16  C8  UNL     1     -11.979  25.323 -17.892  1.00  0.00     0.180 C
BRANCH  16  17
HETATM   17  N4  UNL     1     -11.804  24.542 -19.011  1.00  0.00    -0.377 N
ATOM     18  H42 UNL     1     -12.177  24.747 -19.938  1.00  0.00     0.158 HD
ATOM     19  H41 UNL     1     -11.228  23.709 -18.898  1.00  0.00     0.158 HD
ENDBRANCH  16  17
BRANCH  16  20
HETATM   20  N5  UNL     1     -12.947  25.133 -16.928  1.00  0.00    -0.368 N
ATOM     21  H5  UNL     1     -13.374  25.945 -16.484  1.00  0.00     0.161 HD
BRANCH  20  22
HETATM   22  C9  UNL     1     -13.368  23.811 -16.536  1.00  0.00     0.121 C
BRANCH  22  23
HETATM   23  C10 UNL     1     -14.878  23.679 -16.400  1.00  0.00     0.020 C
BRANCH  23  24
HETATM   24  C11 UNL     1     -15.233  22.234 -16.618  1.00  0.00     0.009 C
BRANCH  24  25
HETATM   25  C12 UNL     1     -16.391  21.984 -17.531  1.00  0.00     0.072 C
BRANCH  25  26
HETATM   26  C13 UNL     1     -15.988  21.311 -18.755  1.00  0.00     0.086 C
HETATM   27  N6  UNL     1     -16.747  20.390 -19.298  1.00  0.00    -0.391 N
ATOM     28  H62 UNL     1     -17.609  20.203 -18.785  1.00  0.00     0.157 HD
ATOM     29  H61 UNL     1     -16.464  19.917 -20.157  1.00  0.00     0.157 HD
HETATM   30  N7  UNL     1     -14.790  21.572 -19.468  1.00  0.00    -0.088 NA
ENDBRANCH  25  26
ENDBRANCH  24  25
ENDBRANCH  23  24
ENDBRANCH  22  23
ENDBRANCH  20  22
ENDBRANCH  16  20
ENDBRANCH   1  16
TORSDOF 15
ENDMDL