MODEL 3
REMARK VINA RESULT: -6.056771010      1.117      1.288
REMARK  12 active torsions:
REMARK  status: ('A' for Active; 'I' for Inactive)
REMARK    1  A    between atoms: O1_2  and  C2_3
REMARK    2  A    between atoms: C2_3  and  C4_5
REMARK    3  A    between atoms: C2_3  and  C9_23
REMARK    4  A    between atoms: C4_5  and  O2_6
REMARK    5  A    between atoms: O2_6  and  C5_7
REMARK    6  A    between atoms: C5_7  and  C6_8
REMARK    7  A    between atoms: C6_8  and  C7_9
REMARK    8  A    between atoms: C7_9  and  N1_10
REMARK       I    between atoms: N1_10  and  C8_12
REMARK       I    between atoms: C8_12  and  N3_16
REMARK    9  A    between atoms: N3_16  and  N4_18
REMARK   10  A    between atoms: C9_23  and  N6_24
REMARK   11  A    between atoms: N6_24  and  C12_27
REMARK   12  A    between atoms: C12_27  and  C13_28
ROOT
HETATM    1  C5  UNL     1     -13.743  23.685 -16.399  1.00  0.00     0.169 C
ENDROOT
BRANCH   1   2
HETATM    2  O2  UNL     1     -12.922  24.317 -17.296  1.00  0.00    -0.388 OA
BRANCH   2   3
HETATM    3  C4  UNL     1     -12.051  25.239 -16.782  1.00  0.00     0.207 C
BRANCH   3   4
HETATM    4  C2  UNL     1     -11.060  25.585 -17.906  1.00  0.00     0.102 C
HETATM    5  C3  UNL     1     -11.732  24.884 -19.131  1.00  0.00     0.050 C
BRANCH   4   6
HETATM    6  O1  UNL     1     -11.146  26.910 -18.169  1.00  0.00    -0.381 OA
HETATM    7  C1  UNL     1     -11.513  27.750 -17.155  1.00  0.00     0.202 C
ENDBRANCH   4   6
BRANCH   4   8
HETATM    8  C9  UNL     1      -9.758  24.932 -17.807  1.00  0.00     0.276 C
BRANCH   8   9
HETATM    9  N6  UNL     1      -8.639  25.519 -17.189  1.00  0.00    -0.064 N
HETATM   10  C10 UNL     1      -8.866  25.731 -15.741  1.00  0.00     0.272 C
HETATM   11  C11 UNL     1      -7.541  24.544 -17.250  1.00  0.00     0.272 C
BRANCH   9  12
HETATM   12  C12 UNL     1      -8.137  26.746 -17.691  1.00  0.00     0.335 C
BRANCH  12  13
HETATM   13  C13 UNL     1      -7.539  27.559 -16.610  1.00  0.00     0.257 C
HETATM   14  N7  UNL     1      -6.127  27.546 -16.353  1.00  0.00    -0.061 NA
HETATM   15  O3  UNL     1      -8.215  28.294 -15.868  1.00  0.00    -0.275 OA
ENDBRANCH  12  13
ENDBRANCH   9  12
ENDBRANCH   8   9
ENDBRANCH   4   8
ENDBRANCH   3   4
ENDBRANCH   2   3
ENDBRANCH   1   2
BRANCH   1  16
HETATM   16  C6  UNL     1     -14.593  22.655 -17.067  1.00  0.00     0.046 C
BRANCH  16  17
HETATM   17  C7  UNL     1     -16.055  23.040 -17.102  1.00  0.00     0.140 C
BRANCH  17  18
HETATM   18  N1  UNL     1     -16.838  21.913 -17.599  1.00  0.00    -0.225 N
HETATM   19  C8  UNL     1     -17.027  21.800 -19.011  1.00  0.00     0.687 C
HETATM   20  N2  UNL     1     -17.687  22.708 -19.658  1.00  0.00    -0.234 N
HETATM   21  N3  UNL     1     -16.516  20.714 -19.762  1.00  0.00    -0.119 N
ATOM     22  H22 UNL     1     -18.055  23.491 -19.117  1.00  0.00     0.174 HD
ATOM     23  H21 UNL     1     -17.822  22.628 -20.666  1.00  0.00     0.174 HD
ATOM     24  H3  UNL     1     -16.167  20.859 -20.710  1.00  0.00     0.207 HD
ATOM     25  H1  UNL     1     -17.237  21.227 -16.957  1.00  0.00     0.177 HD
BRANCH  21  26
HETATM   26  N4  UNL     1     -16.496  19.447 -19.192  1.00  0.00    -0.235 N
HETATM   27  N5  UNL     1     -16.604  18.402 -19.917  1.00  0.00    -0.330 N
ATOM     28  H52 UNL     1     -16.708  18.516 -20.925  1.00  0.00     0.178 HD
ATOM     29  H51 UNL     1     -16.589  17.472 -19.498  1.00  0.00     0.178 HD
ATOM     30  H4  UNL     1     -16.392  19.350 -18.181  1.00  0.00     0.208 HD
ENDBRANCH  21  26
ENDBRANCH  17  18
ENDBRANCH  16  17
ENDBRANCH   1  16
TORSDOF 12
ENDMDL