MODEL 5
REMARK VINA RESULT: -5.781260315      2.065      2.383
REMARK  12 active torsions:
REMARK  status: ('A' for Active; 'I' for Inactive)
REMARK    1  A    between atoms: N1_1  and  C1_5
REMARK    2  A    between atoms: C1_5  and  C2_6
REMARK    3  A    between atoms: C2_6  and  C3_7
REMARK    4  A    between atoms: C3_7  and  C4_8
REMARK    5  A    between atoms: C4_8  and  N2_9
REMARK    6  A    between atoms: C5_10  and  C6_11
REMARK    7  A    between atoms: C6_11  and  C7_12
REMARK    8  A    between atoms: C7_12  and  C8_13
REMARK    9  A    between atoms: C8_13  and  N3_14
REMARK   10  A    between atoms: C11_20  and  N6_21
REMARK   11  A    between atoms: C13_26  and  N9_27
REMARK   12  A    between atoms: N9_27  and  C14_29
ROOT
HETATM    1  N2  UNL     1       6.400  25.584  18.458  1.00  0.00     0.118 N
HETATM    2  C5  UNL     1       6.729  25.179  19.818  1.00  0.00     0.227 C
HETATM    3  C10 UNL     1       6.364  23.723  19.929  1.00  0.00     0.065 C
HETATM    4  C11 UNL     1       5.940  23.283  18.575  1.00  0.00     0.139 C
HETATM    5  C13 UNL     1       5.487  24.602  17.945  1.00  0.00     0.347 C
ENDROOT
BRANCH   1   6
HETATM    6  C4  UNL     1       5.766  26.876  18.411  1.00  0.00     0.276 C
BRANCH   6   7
HETATM    7  C3  UNL     1       4.301  26.748  18.644  1.00  0.00     0.032 C
BRANCH   7   8
HETATM    8  C2  UNL     1       3.852  27.520  19.881  1.00  0.00     0.029 C
BRANCH   8   9
HETATM    9  C1  UNL     1       3.562  26.477  20.938  1.00  0.00     0.229 C
BRANCH   9  10
HETATM   10  N1  UNL     1       4.309  26.732  22.129  1.00  0.00    -0.079 N
ATOM     11  H13 UNL     1       5.292  26.916  21.925  1.00  0.00     0.274 HD
ATOM     12  H12 UNL     1       4.064  27.632  22.540  1.00  0.00     0.274 HD
ATOM     13  H11 UNL     1       4.200  25.971  22.799  1.00  0.00     0.274 HD
ENDBRANCH   9  10
ENDBRANCH   8   9
ENDBRANCH   7   8
ENDBRANCH   6   7
ENDBRANCH   1   6
BRANCH   2  14
HETATM   14  C6  UNL     1       8.207  25.263  20.082  1.00  0.00     0.037 C
BRANCH  14  15
HETATM   15  C7  UNL     1       8.936  23.996  20.277  1.00  0.00     0.022 C
BRANCH  15  16
HETATM   16  C8  UNL     1       9.891  24.039  21.472  1.00  0.00     0.122 C
BRANCH  16  17
HETATM   17  N3  UNL     1       9.262  23.261  22.550  1.00  0.00    -0.367 N
HETATM   18  C9  UNL     1       9.776  23.305  23.724  1.00  0.00     0.196 C
HETATM   19  N4  UNL     1      10.926  24.092  23.951  1.00  0.00    -0.067 NA
HETATM   20  N5  UNL     1       9.200  22.574  24.773  1.00  0.00    -0.067 NA
ATOM     21  H3  UNL     1       8.432  22.696  22.368  1.00  0.00     0.161 HD
ENDBRANCH  16  17
ENDBRANCH  15  16
ENDBRANCH  14  15
ENDBRANCH   2  14
BRANCH   5  22
HETATM   22  N9  UNL     1       5.558  24.380  16.532  1.00  0.00    -0.337 N
ATOM     23  H9  UNL     1       4.701  24.208  16.007  1.00  0.00     0.164 HD
BRANCH  22  24
HETATM   24  C14 UNL     1       6.814  24.397  15.846  1.00  0.00     0.350 C
HETATM   25  O1  UNL     1       7.184  25.476  15.293  1.00  0.00    -0.284 OA
ENDBRANCH  22  24
ENDBRANCH   5  22
BRANCH   4  26
HETATM   26  N6  UNL     1       4.777  22.418  18.635  1.00  0.00    -0.358 N
HETATM   27  C12 UNL     1       4.696  21.264  18.094  1.00  0.00     0.197 C
HETATM   28  N7  UNL     1       5.791  20.749  17.374  1.00  0.00    -0.067 NA
HETATM   29  N8  UNL     1       3.525  20.496  18.214  1.00  0.00    -0.067 NA
ATOM     30  H6  UNL     1       3.962  22.758  19.147  1.00  0.00     0.162 HD
ENDBRANCH   4  26
TORSDOF 12
ENDMDL