MODEL 1
REMARK VINA RESULT: -6.921678093      0.000      0.000
REMARK  11 active torsions:
REMARK  status: ('A' for Active; 'I' for Inactive)
REMARK       I    between atoms: N1_2  and  C3_4
REMARK       I    between atoms: C3_4  and  N2_5
REMARK    1  A    between atoms: N5_10  and  C5_12
REMARK    2  A    between atoms: C5_12  and  C6_13
REMARK    3  A    between atoms: C6_13  and  C7_14
REMARK    4  A    between atoms: C7_14  and  N6_15
REMARK    5  A    between atoms: N6_15  and  C8_17
REMARK    6  A    between atoms: C8_17  and  C9_18
REMARK    7  A    between atoms: C9_18  and  C10_19
REMARK    8  A    between atoms: C10_19  and  N7_20
REMARK    9  A    between atoms: N7_20  and  C11_23
REMARK   10  A    between atoms: C11_23  and  C12_24
REMARK   11  A    between atoms: C12_24  and  N8_25
ROOT
HETATM    1  N6  UNL     1      13.974  20.884  21.949  1.00  0.00    -0.402 N
ATOM      2  H6  UNL     1      13.036  20.568  22.194  1.00  0.00     0.158 HD
ENDROOT
BRANCH   1   3
HETATM    3  C7  UNL     1      14.885  21.111  22.973  1.00  0.00     0.120 C
BRANCH   3   4
HETATM    4  C6  UNL     1      14.826  22.626  23.308  1.00  0.00     0.040 C
BRANCH   4   5
HETATM    5  C5  UNL     1      13.715  22.715  24.357  1.00  0.00     0.139 C
BRANCH   5   6
HETATM    6  N5  UNL     1      13.514  24.093  24.676  1.00  0.00    -0.226 N
HETATM    7  C3  UNL     1      12.399  24.699  24.782  1.00  0.00     0.677 C
HETATM    8  N1  UNL     1      11.196  23.988  24.575  1.00  0.00    -0.227 N
HETATM    9  N2  UNL     1      12.420  26.089  25.097  1.00  0.00    -0.166 N
HETATM   10  C1  UNL     1      10.652  23.203  25.657  1.00  0.00     0.168 C
HETATM   11  C2  UNL     1      10.542  24.070  23.288  1.00  0.00     0.168 C
HETATM   12  C4  UNL     1      13.018  26.946  24.330  1.00  0.00     0.215 C
ATOM     13  H2  UNL     1      11.956  26.415  25.945  1.00  0.00     0.186 HD
HETATM   14  N3  UNL     1      13.686  26.576  23.139  1.00  0.00    -0.066 NA
HETATM   15  N4  UNL     1      12.969  28.301  24.747  1.00  0.00    -0.066 NA
ATOM     16  H5  UNL     1      14.353  24.650  24.836  1.00  0.00     0.177 HD
ENDBRANCH   5   6
ENDBRANCH   4   5
ENDBRANCH   3   4
ENDBRANCH   1   3
BRANCH   1  17
HETATM   17  C8  UNL     1      14.282  21.067  20.603  1.00  0.00     0.057 C
BRANCH  17  18
HETATM   18  C9  UNL     1      13.159  21.071  19.648  1.00  0.00     0.071 C
BRANCH  18  19
HETATM   19  C10 UNL     1      13.264  21.979  18.485  1.00  0.00     0.237 C
BRANCH  19  20
HETATM   20  N7  UNL     1      12.423  23.176  18.833  1.00  0.00    -0.073 N
ATOM     21  H72 UNL     1      12.717  23.645  19.691  1.00  0.00     0.277 HD
ATOM     22  H71 UNL     1      12.563  23.968  18.206  1.00  0.00     0.277 HD
BRANCH  20  23
HETATM   23  C11 UNL     1      11.037  22.695  18.872  1.00  0.00     0.251 C
BRANCH  23  24
HETATM   24  C12 UNL     1      10.274  23.731  19.724  1.00  0.00     0.149 C
BRANCH  24  25
HETATM   25  N8  UNL     1       9.643  24.641  18.770  1.00  0.00    -0.365 N
HETATM   26  C13 UNL     1       9.170  25.746  19.193  1.00  0.00     0.197 C
HETATM   27  N9  UNL     1       8.541  26.687  18.319  1.00  0.00    -0.067 NA
HETATM   28  N10 UNL     1       9.251  26.074  20.561  1.00  0.00    -0.067 NA
ATOM     29  H8  UNL     1       9.583  24.397  17.781  1.00  0.00     0.161 HD
ENDBRANCH  24  25
ENDBRANCH  23  24
ENDBRANCH  20  23
ENDBRANCH  19  20
ENDBRANCH  18  19
ENDBRANCH  17  18
ENDBRANCH   1  17
TORSDOF 11
ENDMDL