MODEL 3
REMARK VINA RESULT: -7.543742820      2.250      3.402
REMARK  14 active torsions:
REMARK  status: ('A' for Active; 'I' for Inactive)
REMARK    1  A    between atoms: C2_2  and  C3_3
REMARK    2  A    between atoms: C3_3  and  C4_4
REMARK    3  A    between atoms: C4_4  and  C5_5
REMARK    4  A    between atoms: C5_5  and  N1_6
REMARK       I    between atoms: C6_8  and  N3_10
REMARK    5  A    between atoms: N3_10  and  C7_12
REMARK    6  A    between atoms: C7_12  and  C8_13
REMARK    7  A    between atoms: C8_13  and  C9_14
REMARK    8  A    between atoms: C9_14  and  N4_15
REMARK    9  A    between atoms: N4_15  and  C10_17
REMARK   10  A    between atoms: C11_22  and  N7_23
REMARK   11  A    between atoms: N7_23  and  C12_25
REMARK   12  A    between atoms: C12_25  and  C13_26
REMARK   13  A    between atoms: C13_26  and  N8_27
REMARK   14  A    between atoms: N10_33  and  O1_34
ROOT
HETATM    1  C10 UNL     1      12.629  25.035  24.719  1.00  0.00     0.735 A
HETATM    2  N5  UNL     1      13.202  25.430  25.862  1.00  0.00    -0.114 N
ATOM      3  H5  UNL     1      13.193  24.813  26.674  1.00  0.00     0.206 HD
HETATM    4  N6  UNL     1      13.780  26.614  25.946  1.00  0.00    -0.117 N
ATOM      5  H6  UNL     1      14.210  26.893  26.828  1.00  0.00     0.206 HD
HETATM    6  C11 UNL     1      13.818  27.475  24.887  1.00  0.00     0.710 A
HETATM    7  N9  UNL     1      13.246  27.064  23.768  1.00  0.00    -0.089 N
ATOM      8  H9  UNL     1      13.255  27.681  22.955  1.00  0.00     0.209 HD
HETATM    9  N10 UNL     1      12.657  25.869  23.665  1.00  0.00     0.032 N
ENDROOT
BRANCH   1  10
HETATM   10  N4  UNL     1      12.060  23.880  24.588  1.00  0.00    -0.221 N
ATOM     11  H4  UNL     1      12.592  23.098  24.206  1.00  0.00     0.177 HD
BRANCH  10  12
HETATM   12  C9  UNL     1      10.666  23.681  24.980  1.00  0.00     0.140 C
BRANCH  12  13
HETATM   13  C8  UNL     1      10.059  22.724  23.968  1.00  0.00     0.040 C
BRANCH  13  14
HETATM   14  C7  UNL     1       9.212  23.459  22.962  1.00  0.00     0.124 C
BRANCH  14  15
HETATM   15  N3  UNL     1       9.579  23.034  21.643  1.00  0.00    -0.364 N
HETATM   16  C6  UNL     1       9.899  23.995  20.658  1.00  0.00     0.187 C
HETATM   17  N1  UNL     1      10.450  23.778  19.559  1.00  0.00    -0.344 N
HETATM   18  N2  UNL     1       9.569  25.392  20.902  1.00  0.00    -0.064 NA
ATOM     19  H1  UNL     1      10.550  24.661  19.057  1.00  0.00     0.167 HD
ATOM     20  H3  UNL     1       9.610  22.040  21.416  1.00  0.00     0.162 HD
BRANCH  17  21
HETATM   21  C5  UNL     1      10.969  22.764  18.788  1.00  0.00     0.063 C
BRANCH  21  22
HETATM   22  C4  UNL     1      12.448  22.616  18.642  1.00  0.00     0.044 C
BRANCH  22  23
HETATM   23  C3  UNL     1      12.905  21.182  18.877  1.00  0.00     0.005 C
BRANCH  23  24
HETATM   24  C2  UNL     1      14.016  21.200  19.903  1.00  0.00    -0.004 C
HETATM   25  C1  UNL     1      13.579  20.383  21.089  1.00  0.00     0.005 C
ENDBRANCH  23  24
ENDBRANCH  22  23
ENDBRANCH  21  22
ENDBRANCH  17  21
ENDBRANCH  14  15
ENDBRANCH  13  14
ENDBRANCH  12  13
ENDBRANCH  10  12
ENDBRANCH   1  10
BRANCH   9  26
HETATM   26  O1  UNL     1      12.138  25.576  22.547  1.00  0.00    -0.254 OA
ATOM     27  H1  UNL     1      12.435  24.843  22.022  1.00  0.00     0.247 HD
ENDBRANCH   9  26
BRANCH   6  28
HETATM   28  N7  UNL     1      14.407  28.582  25.090  1.00  0.00    -0.222 N
ATOM     29  H7  UNL     1      15.277  28.728  24.578  1.00  0.00     0.177 HD
BRANCH  28  30
HETATM   30  C12 UNL     1      14.000  29.645  25.948  1.00  0.00     0.165 C
BRANCH  30  31
HETATM   31  C13 UNL     1      12.500  29.825  26.010  1.00  0.00     0.249 C
BRANCH  31  32
HETATM   32  N8  UNL     1      12.097  30.891  26.896  1.00  0.00    -0.078 N
ATOM     33  H83 UNL     1      11.137  30.756  27.215  1.00  0.00     0.274 HD
ATOM     34  H82 UNL     1      12.582  30.825  27.790  1.00  0.00     0.274 HD
ATOM     35  H81 UNL     1      12.217  31.817  26.484  1.00  0.00     0.274 HD
ENDBRANCH  31  32
ENDBRANCH  30  31
ENDBRANCH  28  30
ENDBRANCH   6  28
TORSDOF 14
ENDMDL