MODEL 5
REMARK VINA RESULT: -6.691674993      7.087      9.770
REMARK  10 active torsions:
REMARK  status: ('A' for Active; 'I' for Inactive)
REMARK    1  A    between atoms: N3_4  and  C2_6
REMARK    2  A    between atoms: C2_6  and  C3_7
REMARK    3  A    between atoms: C3_7  and  N4_8
REMARK    4  A    between atoms: N4_8  and  C4_9
REMARK    5  A    between atoms: C4_9  and  C5_10
REMARK    6  A    between atoms: C5_10  and  C6_11
REMARK    7  A    between atoms: C6_11  and  N5_12
REMARK    8  A    between atoms: N5_12  and  N6_14
REMARK    9  A    between atoms: N9_19  and  C8_21
REMARK   10  A    between atoms: C8_21  and  C9_22
ROOT
HETATM    1  N4  UNL     1       7.458  25.903  18.092  1.00  0.00    -0.330 N
HETATM    2  N9  UNL     1       6.774  26.858  18.489  1.00  0.00    -0.334 N
ATOM      3  H9  UNL     1       7.233  27.532  19.101  1.00  0.00     0.180 HD
ENDROOT
BRANCH   1   4
HETATM    4  C3  UNL     1       6.870  24.941  17.239  1.00  0.00     0.161 C
BRANCH   4   5
HETATM    5  C2  UNL     1       7.236  23.515  17.455  1.00  0.00     0.143 C
BRANCH   5   6
HETATM    6  N3  UNL     1       6.143  22.887  18.248  1.00  0.00    -0.365 N
HETATM    7  C1  UNL     1       5.727  21.734  17.851  1.00  0.00     0.197 C
HETATM    8  N1  UNL     1       6.285  21.102  16.721  1.00  0.00    -0.067 NA
HETATM    9  N2  UNL     1       4.682  21.087  18.568  1.00  0.00    -0.067 NA
ATOM     10  H3  UNL     1       5.743  23.348  19.064  1.00  0.00     0.161 HD
ENDBRANCH   5   6
ENDBRANCH   4   5
ENDBRANCH   1   4
BRANCH   1  11
HETATM   11  C4  UNL     1       8.790  25.838  18.552  1.00  0.00     0.143 C
BRANCH  11  12
HETATM   12  C5  UNL     1       9.047  25.536  19.983  1.00  0.00     0.042 C
BRANCH  12  13
HETATM   13  C6  UNL     1       9.613  24.151  20.216  1.00  0.00     0.141 C
BRANCH  13  14
HETATM   14  N5  UNL     1      10.894  24.006  19.561  1.00  0.00    -0.334 N
ATOM     15  H5  UNL     1      11.619  24.704  19.726  1.00  0.00     0.180 HD
BRANCH  14  16
HETATM   16  N6  UNL     1      11.162  22.935  18.710  1.00  0.00    -0.280 N
HETATM   17  C7  UNL     1      12.220  22.191  18.851  1.00  0.00     0.215 C
HETATM   18  N7  UNL     1      12.496  21.102  17.989  1.00  0.00    -0.065 NA
HETATM   19  N8  UNL     1      13.101  22.505  19.910  1.00  0.00    -0.065 NA
ATOM     20  H6  UNL     1      10.510  22.730  17.954  1.00  0.00     0.189 HD
ENDBRANCH  14  16
ENDBRANCH  13  14
ENDBRANCH  12  13
ENDBRANCH  11  12
ENDBRANCH   1  11
BRANCH   2  21
HETATM   21  C8  UNL     1       5.414  27.100  18.170  1.00  0.00     0.185 C
BRANCH  21  22
HETATM   22  C9  UNL     1       4.636  26.879  19.444  1.00  0.00     0.002 A
HETATM   23  C10 UNL     1       5.046  26.381  20.648  1.00  0.00     0.017 A
HETATM   24  C11 UNL     1       4.138  26.292  21.622  1.00  0.00     0.008 A
HETATM   25  C12 UNL     1       2.864  26.705  21.339  1.00  0.00     0.050 A
HETATM   26  S1  UNL     1       2.983  27.209  19.709  1.00  0.00    -0.105 SA
ENDBRANCH  21  22
ENDBRANCH   2  21
TORSDOF 10
ENDMDL