MODEL 2
REMARK VINA RESULT: -5.953697534      1.622      2.017
REMARK  13 active torsions:
REMARK  status: ('A' for Active; 'I' for Inactive)
REMARK    1  A    between atoms: N1_2  and  C3_4
REMARK    2  A    between atoms: N1_2  and  C10_23
REMARK    3  A    between atoms: C3_4  and  C4_5
REMARK    4  A    between atoms: C4_5  and  C5_6
REMARK    5  A    between atoms: C5_6  and  N2_7
REMARK    6  A    between atoms: C8_15  and  N5_16
REMARK    7  A    between atoms: C9_20  and  O2_21
REMARK    8  A    between atoms: C10_23  and  C11_24
REMARK    9  A    between atoms: C11_24  and  N6_25
REMARK   10  A    between atoms: N6_25  and  C12_28
REMARK   11  A    between atoms: C12_28  and  C13_29
REMARK   12  A    between atoms: C13_29  and  C14_30
REMARK   13  A    between atoms: C14_30  and  N7_31
ROOT
HETATM    1  C4  UNL     1      10.996  22.899  19.501  1.00  0.00     0.058 C
ENDROOT
BRANCH   1   2
HETATM    2  C3  UNL     1      12.333  23.201  18.945  1.00  0.00     0.238 C
BRANCH   2   3
HETATM    3  N1  UNL     1      13.206  22.137  18.619  1.00  0.00    -0.073 N
HETATM    4  C1  UNL     1      12.527  20.924  18.201  1.00  0.00     0.272 C
HETATM    5  C2  UNL     1      13.992  22.565  17.440  1.00  0.00     0.272 C
BRANCH   3   6
HETATM    6  C10 UNL     1      14.145  21.760  19.661  1.00  0.00     0.264 C
BRANCH   6   7
HETATM    7  C11 UNL     1      13.699  20.692  20.586  1.00  0.00     0.260 C
BRANCH   7   8
HETATM    8  N6  UNL     1      14.722  20.451  21.581  1.00  0.00    -0.073 N
ATOM      9  H62 UNL     1      15.082  19.499  21.513  1.00  0.00     0.277 HD
ATOM     10  H61 UNL     1      15.575  20.964  21.363  1.00  0.00     0.277 HD
BRANCH   8  11
HETATM   11  C12 UNL     1      14.274  20.737  22.899  1.00  0.00     0.234 C
BRANCH  11  12
HETATM   12  C13 UNL     1      15.184  21.710  23.629  1.00  0.00     0.055 C
BRANCH  12  13
HETATM   13  C14 UNL     1      14.733  23.132  23.448  1.00  0.00     0.231 C
BRANCH  13  14
HETATM   14  N7  UNL     1      13.699  23.422  24.449  1.00  0.00    -0.079 N
ATOM     15  H73 UNL     1      13.168  24.265  24.231  1.00  0.00     0.274 HD
ATOM     16  H72 UNL     1      12.925  22.758  24.418  1.00  0.00     0.274 HD
ATOM     17  H71 UNL     1      14.142  23.465  25.367  1.00  0.00     0.274 HD
ENDBRANCH  13  14
ENDBRANCH  12  13
ENDBRANCH  11  12
ENDBRANCH   8  11
ENDBRANCH   7   8
ENDBRANCH   6   7
ENDBRANCH   3   6
ENDBRANCH   2   3
ENDBRANCH   1   2
BRANCH   1  18
HETATM   18  C5  UNL     1       9.832  23.361  18.664  1.00  0.00     0.273 C
BRANCH  18  19
HETATM   19  N2  UNL     1       9.215  24.450  19.399  1.00  0.00     0.068 N
HETATM   20  N3  UNL     1       9.807  24.696  20.623  1.00  0.00    -0.162 N
HETATM   21  C6  UNL     1       9.113  23.915  21.609  1.00  0.00     0.342 C
ATOM     22  H3  UNL     1      10.595  25.321  20.794  1.00  0.00     0.199 HD
HETATM   23  O1  UNL     1       9.554  23.469  22.702  1.00  0.00    -0.246 OA
HETATM   24  N4  UNL     1       7.792  23.742  21.085  1.00  0.00    -0.309 N
HETATM   25  C7  UNL     1       7.820  24.247  19.738  1.00  0.00     0.356 C
ATOM     26  H4  UNL     1       6.990  23.341  21.571  1.00  0.00     0.166 HD
HETATM   27  C8  UNL     1       7.666  25.764  19.630  1.00  0.00     0.295 C
HETATM   28  C9  UNL     1       8.817  25.589  18.626  1.00  0.00     0.386 C
BRANCH  27  29
HETATM   29  N5  UNL     1       6.438  26.218  19.068  1.00  0.00    -0.067 N
ATOM     30  H53 UNL     1       5.662  25.665  19.432  1.00  0.00     0.275 HD
ATOM     31  H52 UNL     1       6.200  27.135  19.446  1.00  0.00     0.275 HD
ATOM     32  H51 UNL     1       6.402  26.242  18.049  1.00  0.00     0.275 HD
ENDBRANCH  27  29
BRANCH  28  33
HETATM   33  O2  UNL     1       9.716  26.634  18.605  1.00  0.00    -0.366 OA
ATOM     34  H2  UNL     1       9.566  27.289  17.933  1.00  0.00     0.212 HD
ENDBRANCH  28  33
ENDBRANCH  18  19
ENDBRANCH   1  18
TORSDOF 13
ENDMDL