MODEL 2
REMARK VINA RESULT: -6.066572629      4.828      7.260
REMARK  14 active torsions:
REMARK  status: ('A' for Active; 'I' for Inactive)
REMARK    1  A    between atoms: N1_2  and  C2_3
REMARK    2  A    between atoms: C2_3  and  O1_4
REMARK    3  A    between atoms: O1_4  and  C3_5
REMARK    4  A    between atoms: C3_5  and  C4_6
REMARK    5  A    between atoms: C4_6  and  N2_7
REMARK    6  A    between atoms: C6_12  and  N3_13
REMARK       I    between atoms: N3_13  and  C7_15
REMARK    7  A    between atoms: C7_15  and  C8_17
REMARK    8  A    between atoms: C8_17  and  C9_18
REMARK    9  A    between atoms: C9_18  and  N4_19
REMARK   10  A    between atoms: N4_19  and  C10_21
REMARK   11  A    between atoms: C10_21  and  N5_23
REMARK   12  A    between atoms: N5_23  and  C11_25
REMARK   13  A    between atoms: C11_25  and  C12_26
REMARK   14  A    between atoms: C12_26  and  N6_27
ROOT
HETATM    1  N3  UNL     1      10.644  23.048  18.755  1.00  0.00    -0.353 N
ATOM      2  H3  UNL     1      10.263  22.323  18.147  1.00  0.00     0.163 HD
HETATM    3  C7  UNL     1      12.032  23.029  19.112  1.00  0.00     0.219 C
HETATM    4  O2  UNL     1      12.534  23.912  19.856  1.00  0.00    -0.274 OA
ENDROOT
BRANCH   3   5
HETATM    5  C8  UNL     1      12.933  21.960  18.612  1.00  0.00     0.122 C
BRANCH   5   6
HETATM    6  C9  UNL     1      13.189  20.929  19.692  1.00  0.00     0.131 C
BRANCH   6   7
HETATM    7  N4  UNL     1      14.348  21.279  20.480  1.00  0.00    -0.367 N
ATOM      8  H4  UNL     1      15.065  21.888  20.087  1.00  0.00     0.161 HD
BRANCH   7   9
HETATM    9  C10 UNL     1      14.489  20.781  21.786  1.00  0.00     0.167 C
HETATM   10  S1  UNL     1      13.722  19.372  22.184  1.00  0.00    -0.041 SA
BRANCH   9  11
HETATM   11  N5  UNL     1      15.253  21.407  22.810  1.00  0.00    -0.366 N
ATOM     12  H5  UNL     1      16.267  21.296  22.830  1.00  0.00     0.161 HD
BRANCH  11  13
HETATM   13  C11 UNL     1      14.595  22.197  23.817  1.00  0.00     0.149 C
BRANCH  13  14
HETATM   14  C12 UNL     1      14.421  23.639  23.458  1.00  0.00     0.249 C
BRANCH  14  15
HETATM   15  N6  UNL     1      13.646  24.279  24.532  1.00  0.00    -0.078 N
ATOM     16  H63 UNL     1      13.409  25.249  24.326  1.00  0.00     0.274 HD
ATOM     17  H62 UNL     1      12.694  23.920  24.602  1.00  0.00     0.274 HD
ATOM     18  H61 UNL     1      14.173  24.177  25.400  1.00  0.00     0.274 HD
ENDBRANCH  14  15
ENDBRANCH  13  14
ENDBRANCH  11  13
ENDBRANCH   9  11
ENDBRANCH   7   9
ENDBRANCH   6   7
ENDBRANCH   5   6
ENDBRANCH   3   5
BRANCH   1  19
HETATM   19  C6  UNL     1       9.802  24.080  19.250  1.00  0.00     0.136 C
HETATM   20  C5  UNL     1       8.537  24.159  18.402  1.00  0.00     0.266 C
HETATM   21  N1  UNL     1       7.718  24.307  19.597  1.00  0.00    -0.046 N
HETATM   22  C1  UNL     1       6.566  23.435  19.645  1.00  0.00     0.275 C
HETATM   23  C13 UNL     1       8.829  23.733  20.339  1.00  0.00     0.266 C
BRANCH  21  24
HETATM   24  C2  UNL     1       7.482  25.702  19.848  1.00  0.00     0.404 C
BRANCH  24  25
HETATM   25  O1  UNL     1       6.146  26.047  19.773  1.00  0.00    -0.362 OA
BRANCH  25  26
HETATM   26  C3  UNL     1       5.893  26.938  18.739  1.00  0.00     0.197 C
BRANCH  26  27
HETATM   27  C4  UNL     1       5.188  26.257  17.581  1.00  0.00     0.255 C
BRANCH  27  28
HETATM   28  N2  UNL     1       6.090  26.093  16.457  1.00  0.00    -0.077 N
ATOM     29  H23 UNL     1       6.763  26.857  16.398  1.00  0.00     0.274 HD
ATOM     30  H22 UNL     1       6.744  25.323  16.606  1.00  0.00     0.274 HD
ATOM     31  H21 UNL     1       5.568  25.981  15.588  1.00  0.00     0.274 HD
ENDBRANCH  27  28
ENDBRANCH  26  27
ENDBRANCH  25  26
ENDBRANCH  24  25
ENDBRANCH  21  24
ENDBRANCH   1  19
TORSDOF 14
ENDMDL