MODEL 1
REMARK VINA RESULT: -6.881767813      0.000      0.000
REMARK  13 active torsions:
REMARK  status: ('A' for Active; 'I' for Inactive)
REMARK    1  A    between atoms: N1_1  and  C1_5
REMARK    2  A    between atoms: C1_5  and  C2_6
REMARK    3  A    between atoms: C2_6  and  C3_7
REMARK    4  A    between atoms: C3_7  and  N2_8
REMARK    5  A    between atoms: N2_8  and  C4_10
REMARK    6  A    between atoms: C4_10  and  C5_11
REMARK    7  A    between atoms: C5_11  and  C6_12
REMARK    8  A    between atoms: C6_12  and  N3_13
REMARK       I    between atoms: C7_15  and  N5_17
REMARK    9  A    between atoms: N5_17  and  C8_19
REMARK   10  A    between atoms: C8_19  and  C9_20
REMARK   11  A    between atoms: C9_20  and  N6_21
REMARK   12  A    between atoms: N6_21  and  C10_22
REMARK   13  A    between atoms: C10_22  and  C11_23
ROOT
HETATM    1  N3  UNL     1      13.546  25.149  24.970  1.00  0.00    -0.364 N
ATOM      2  H3  UNL     1      13.905  24.675  25.798  1.00  0.00     0.162 HD
HETATM    3  C7  UNL     1      13.882  24.713  23.802  1.00  0.00     0.184 C
HETATM    4  N4  UNL     1      13.420  25.329  22.588  1.00  0.00    -0.064 NA
HETATM    5  N5  UNL     1      14.739  23.583  23.635  1.00  0.00    -0.363 N
ATOM      6  H5  UNL     1      15.749  23.690  23.538  1.00  0.00     0.162 HD
ENDROOT
BRANCH   1   7
HETATM    7  C6  UNL     1      12.676  26.293  25.137  1.00  0.00     0.127 C
BRANCH   7   8
HETATM    8  C5  UNL     1      13.434  27.466  25.782  1.00  0.00     0.064 C
BRANCH   8   9
HETATM    9  C4  UNL     1      12.807  28.770  25.375  1.00  0.00     0.061 C
BRANCH   9  10
HETATM   10  N2  UNL     1      12.707  29.792  26.299  1.00  0.00    -0.382 N
ATOM     11  H2  UNL     1      13.425  29.820  27.023  1.00  0.00     0.163 HD
BRANCH  10  12
HETATM   12  C3  UNL     1      11.744  30.778  26.354  1.00  0.00     0.061 C
BRANCH  12  13
HETATM   13  C2  UNL     1      12.019  32.079  27.048  1.00  0.00     0.072 C
BRANCH  13  14
HETATM   14  C1  UNL     1      10.631  32.667  27.402  1.00  0.00     0.234 C
BRANCH  14  15
HETATM   15  N1  UNL     1      10.123  32.014  28.570  1.00  0.00    -0.079 N
ATOM     16  H13 UNL     1       9.675  31.125  28.351  1.00  0.00     0.274 HD
ATOM     17  H12 UNL     1      10.868  31.659  29.168  1.00  0.00     0.274 HD
ATOM     18  H11 UNL     1       9.498  32.649  29.067  1.00  0.00     0.274 HD
ENDBRANCH  14  15
ENDBRANCH  13  14
ENDBRANCH  12  13
ENDBRANCH  10  12
ENDBRANCH   9  10
ENDBRANCH   8   9
ENDBRANCH   7   8
ENDBRANCH   1   7
BRANCH   5  19
HETATM   19  C8  UNL     1      14.123  22.300  23.608  1.00  0.00     0.150 C
BRANCH  19  20
HETATM   20  C9  UNL     1      14.841  21.224  22.880  1.00  0.00     0.257 C
BRANCH  20  21
HETATM   21  N6  UNL     1      14.184  20.653  21.750  1.00  0.00    -0.058 N
HETATM   22  C12 UNL     1      12.769  20.424  21.846  1.00  0.00     0.239 C
HETATM   23  C13 UNL     1      13.023  19.085  22.489  1.00  0.00     0.056 C
HETATM   24  C14 UNL     1      14.363  19.188  21.796  1.00  0.00     0.239 C
BRANCH  21  25
HETATM   25  C10 UNL     1      14.592  21.213  20.471  1.00  0.00     0.336 C
BRANCH  25  26
HETATM   26  C11 UNL     1      13.453  21.705  19.685  1.00  0.00     0.257 C
HETATM   27  N7  UNL     1      12.933  20.956  18.619  1.00  0.00    -0.061 NA
HETATM   28  O1  UNL     1      12.935  22.806  19.962  1.00  0.00    -0.275 OA
ENDBRANCH  25  26
ENDBRANCH  21  25
ENDBRANCH  20  21
ENDBRANCH  19  20
ENDBRANCH   5  19
TORSDOF 13
ENDMDL