MODEL 2
REMARK VINA RESULT: -6.199254797      5.440      7.414
REMARK  12 active torsions:
REMARK  status: ('A' for Active; 'I' for Inactive)
REMARK       I    between atoms: C1_4  and  N3_6
REMARK    1  A    between atoms: C2_8  and  C3_9
REMARK    2  A    between atoms: C3_9  and  N5_13
REMARK    3  A    between atoms: N5_13  and  C4_15
REMARK    4  A    between atoms: C4_15  and  C5_16
REMARK    5  A    between atoms: C5_16  and  N6_17
REMARK    6  A    between atoms: C8_20  and  N7_21
REMARK    7  A    between atoms: N7_21  and  C9_23
REMARK    8  A    between atoms: C11_26  and  C12_27
REMARK    9  A    between atoms: C12_27  and  N8_28
REMARK   10  A    between atoms: N8_28  and  C13_30
REMARK   11  A    between atoms: C13_30  and  C14_31
REMARK   12  A    between atoms: C14_31  and  O2_32
ROOT
HETATM    1  N6  UNL     1       8.635  24.341  18.906  1.00  0.00    -0.055 N
HETATM    2  C6  UNL     1       9.151  25.696  19.141  1.00  0.00     0.241 C
HETATM    3  C7  UNL     1       7.851  26.419  19.458  1.00  0.00     0.063 C
HETATM    4  C8  UNL     1       6.907  25.279  19.220  1.00  0.00     0.088 C
HETATM    5  C10 UNL     1       7.609  24.164  19.943  1.00  0.00     0.271 C
HETATM    6  C11 UNL     1       7.563  24.632  18.011  1.00  0.00     0.237 C
ENDROOT
BRANCH   1   7
HETATM    7  C5  UNL     1       9.559  23.328  18.734  1.00  0.00     0.257 C
BRANCH   7   8
HETATM    8  C4  UNL     1      10.872  23.464  19.510  1.00  0.00     0.149 C
BRANCH   8   9
HETATM    9  N5  UNL     1      12.035  23.274  18.690  1.00  0.00    -0.374 N
ATOM     10  H5  UNL     1      12.264  23.959  17.970  1.00  0.00     0.161 HD
BRANCH   9  11
HETATM   11  C3  UNL     1      12.859  22.152  18.872  1.00  0.00     0.110 C
HETATM   12  N4  UNL     1      13.750  21.877  17.992  1.00  0.00    -0.385 N
ATOM     13  H42 UNL     1      14.348  21.062  18.124  1.00  0.00     0.157 HD
ATOM     14  H41 UNL     1      13.828  22.493  17.182  1.00  0.00     0.157 HD
BRANCH  11  15
HETATM   15  C2  UNL     1      12.747  21.270  20.031  1.00  0.00     0.138 C
HETATM   16  N3  UNL     1      13.748  20.690  20.543  1.00  0.00    -0.337 N
HETATM   17  C1  UNL     1      13.581  19.844  21.669  1.00  0.00     0.185 C
ATOM     18  H3  UNL     1      14.676  20.831  20.146  1.00  0.00     0.168 HD
HETATM   19  N1  UNL     1      14.459  18.965  21.977  1.00  0.00    -0.374 N
HETATM   20  N2  UNL     1      12.420  19.967  22.477  1.00  0.00    -0.064 NA
ATOM     21  H12 UNL     1      14.339  18.356  22.787  1.00  0.00     0.158 HD
ATOM     22  H11 UNL     1      15.294  18.877  21.397  1.00  0.00     0.158 HD
ENDBRANCH  11  15
ENDBRANCH   9  11
ENDBRANCH   8   9
ENDBRANCH   7   8
ENDBRANCH   1   7
BRANCH   6  23
HETATM   23  C12 UNL     1       6.775  23.602  17.328  1.00  0.00     0.150 C
BRANCH  23  24
HETATM   24  N8  UNL     1       6.367  23.859  16.001  1.00  0.00    -0.417 N
ATOM     25  H8  UNL     1       6.018  23.117  15.394  1.00  0.00     0.153 HD
BRANCH  24  26
HETATM   26  C13 UNL     1       6.468  25.222  15.548  1.00  0.00     0.139 C
BRANCH  26  27
HETATM   27  C14 UNL     1       5.180  25.982  15.618  1.00  0.00     0.183 C
BRANCH  27  28
HETATM   28  O2  UNL     1       5.266  27.011  16.580  1.00  0.00    -0.399 OA
ATOM     29  H2  UNL     1       4.412  27.186  16.956  1.00  0.00     0.209 HD
ENDBRANCH  27  28
ENDBRANCH  26  27
ENDBRANCH  24  26
ENDBRANCH  23  24
ENDBRANCH   6  23
BRANCH   4  30
HETATM   30  N7  UNL     1       5.543  25.424  19.265  1.00  0.00    -0.355 N
ATOM     31  H7  UNL     1       4.952  24.777  18.741  1.00  0.00     0.162 HD
BRANCH  30  32
HETATM   32  C9  UNL     1       4.941  26.460  20.028  1.00  0.00     0.349 C
HETATM   33  O1  UNL     1       4.638  27.582  19.502  1.00  0.00    -0.284 OA
ENDBRANCH  30  32
ENDBRANCH   4  30
TORSDOF 12
ENDMDL