MODEL 1
REMARK VINA RESULT: -6.230738983      0.000      0.000
REMARK  13 active torsions:
REMARK  status: ('A' for Active; 'I' for Inactive)
REMARK    1  A    between atoms: N1_1  and  C1_5
REMARK    2  A    between atoms: C1_5  and  C2_6
REMARK    3  A    between atoms: C2_6  and  O1_7
REMARK    4  A    between atoms: O1_7  and  C3_8
REMARK    5  A    between atoms: C3_8  and  C4_9
REMARK    6  A    between atoms: C4_9  and  N2_10
REMARK    7  A    between atoms: N3_13  and  C7_14
REMARK    8  A    between atoms: C7_14  and  C8_15
REMARK    9  A    between atoms: C8_15  and  N4_16
REMARK       I    between atoms: N4_16  and  C9_18
REMARK       I    between atoms: C9_18  and  N5_20
REMARK   10  A    between atoms: N5_20  and  C10_22
REMARK   11  A    between atoms: C10_22  and  C11_23
REMARK   12  A    between atoms: C11_23  and  N6_24
REMARK   13  A    between atoms: N6_24  and  N7_25
ROOT
HETATM    1  N2  UNL     1      13.751  24.240  23.878  1.00  0.00    -0.038 N
HETATM    2  C5  UNL     1      12.626  23.666  24.586  1.00  0.00     0.267 C
HETATM    3  C6  UNL     1      11.937  24.901  25.188  1.00  0.00     0.267 C
HETATM    4  N3  UNL     1      12.786  25.992  24.760  1.00  0.00    -0.038 N
HETATM    5  C12 UNL     1      12.607  26.190  23.370  1.00  0.00     0.267 C
HETATM    6  C13 UNL     1      13.332  24.990  22.737  1.00  0.00     0.267 C
HETATM    7  C14 UNL     1      14.100  25.335  24.804  1.00  0.00     0.473 C
ENDROOT
BRANCH   4   8
HETATM    8  C7  UNL     1      12.662  27.100  25.612  1.00  0.00     0.259 C
BRANCH   8   9
HETATM    9  C8  UNL     1      13.613  28.223  25.368  1.00  0.00     0.152 C
BRANCH   9  10
HETATM   10  N4  UNL     1      13.479  29.292  26.322  1.00  0.00    -0.342 N
HETATM   11  C9  UNL     1      12.558  30.362  26.243  1.00  0.00     0.316 C
HETATM   12  O2  UNL     1      11.775  30.402  25.262  1.00  0.00    -0.247 OA
HETATM   13  N5  UNL     1      12.504  31.376  27.235  1.00  0.00    -0.342 N
ATOM     14  H5  UNL     1      13.144  31.337  28.029  1.00  0.00     0.164 HD
ATOM     15  H4  UNL     1      14.104  29.276  27.129  1.00  0.00     0.164 HD
BRANCH  13  16
HETATM   16  C10 UNL     1      11.563  32.456  27.140  1.00  0.00     0.142 C
BRANCH  16  17
HETATM   17  C11 UNL     1      10.247  32.152  27.779  1.00  0.00     0.154 C
BRANCH  17  18
HETATM   18  N6  UNL     1       9.172  32.392  26.831  1.00  0.00    -0.147 NA
BRANCH  18  19
HETATM   19  N7  UNL     1       9.117  31.296  25.975  1.00  0.00    -0.348 N
ATOM     20  H72 UNL     1       8.265  30.875  25.605  1.00  0.00     0.172 HD
ATOM     21  H71 UNL     1      10.077  31.003  25.794  1.00  0.00     0.172 HD
ENDBRANCH  18  19
ENDBRANCH  17  18
ENDBRANCH  16  17
ENDBRANCH  13  16
ENDBRANCH   9  10
ENDBRANCH   8   9
ENDBRANCH   4   8
BRANCH   1  22
HETATM   22  C4  UNL     1      14.840  23.333  23.662  1.00  0.00     0.265 C
BRANCH  22  23
HETATM   23  C3  UNL     1      14.412  21.903  23.557  1.00  0.00     0.195 C
BRANCH  23  24
HETATM   24  O1  UNL     1      14.174  21.551  22.245  1.00  0.00    -0.388 OA
BRANCH  24  25
HETATM   25  C2  UNL     1      14.589  20.294  21.888  1.00  0.00     0.195 C
BRANCH  25  26
HETATM   26  C1  UNL     1      13.524  19.248  22.192  1.00  0.00     0.255 C
BRANCH  26  27
HETATM   27  N1  UNL     1      14.083  17.920  22.017  1.00  0.00    -0.077 N
ATOM     28  H13 UNL     1      14.264  17.705  21.037  1.00  0.00     0.274 HD
ATOM     29  H12 UNL     1      15.041  17.857  22.361  1.00  0.00     0.274 HD
ATOM     30  H11 UNL     1      13.471  17.231  22.455  1.00  0.00     0.274 HD
ENDBRANCH  26  27
ENDBRANCH  25  26
ENDBRANCH  24  25
ENDBRANCH  23  24
ENDBRANCH  22  23
ENDBRANCH   1  22
TORSDOF 13
ENDMDL