MODEL 4
REMARK VINA RESULT: -6.969650362      1.527      1.938
REMARK  11 active torsions:
REMARK  status: ('A' for Active; 'I' for Inactive)
REMARK    1  A    between atoms: N1_2  and  C2_3
REMARK    2  A    between atoms: C2_3  and  C3_4
REMARK    3  A    between atoms: C3_4  and  O1_5
REMARK    4  A    between atoms: O1_5  and  C4_6
REMARK    5  A    between atoms: C4_6  and  C5_7
REMARK    6  A    between atoms: C5_7  and  N2_8
REMARK    7  A    between atoms: N2_8  and  C6_11
REMARK    8  A    between atoms: C6_11  and  C7_12
REMARK    9  A    between atoms: C7_12  and  C8_13
REMARK   10  A    between atoms: C8_13  and  C9_14
REMARK   11  A    between atoms: C9_14  and  N3_15
ROOT
HETATM    1  O1  UNL     1      11.571  22.189  19.935  1.00  0.00    -0.388 OA
ENDROOT
BRANCH   1   2
HETATM    2  C3  UNL     1      10.821  23.041  19.169  1.00  0.00     0.198 C
BRANCH   2   3
HETATM    3  C2  UNL     1       9.701  23.635  19.943  1.00  0.00     0.301 C
BRANCH   3   4
HETATM    4  N1  UNL     1       8.546  23.948  19.108  1.00  0.00     0.076 N
HETATM    5  C1  UNL     1       8.660  23.182  17.896  1.00  0.00     0.313 C
HETATM    6  N6  UNL     1       7.380  23.548  19.765  1.00  0.00    -0.159 N
HETATM    7  C11 UNL     1       6.790  24.668  20.445  1.00  0.00     0.347 C
ATOM      8  H6  UNL     1       7.002  22.600  19.762  1.00  0.00     0.199 HD
HETATM    9  O2  UNL     1       5.908  24.659  21.334  1.00  0.00    -0.245 OA
HETATM   10  N7  UNL     1       7.448  25.813  19.867  1.00  0.00    -0.271 N
HETATM   11  C12 UNL     1       8.368  25.330  18.903  1.00  0.00     0.306 C
ATOM     12  H7  UNL     1       7.283  26.791  20.108  1.00  0.00     0.173 HD
HETATM   13  N8  UNL     1       8.928  26.049  18.005  1.00  0.00    -0.363 N
ATOM     14  H82 UNL     1       9.590  25.702  17.311  1.00  0.00     0.159 HD
ATOM     15  H81 UNL     1       8.800  27.050  17.855  1.00  0.00     0.159 HD
ENDBRANCH   3   4
ENDBRANCH   2   3
ENDBRANCH   1   2
BRANCH   1  16
HETATM   16  C4  UNL     1      12.525  21.516  19.215  1.00  0.00     0.195 C
BRANCH  16  17
HETATM   17  C5  UNL     1      13.745  21.197  20.090  1.00  0.00     0.258 C
BRANCH  17  18
HETATM   18  N2  UNL     1      13.311  20.210  21.060  1.00  0.00    -0.073 N
ATOM     19  H22 UNL     1      12.296  20.111  21.076  1.00  0.00     0.277 HD
ATOM     20  H21 UNL     1      13.549  19.261  20.773  1.00  0.00     0.277 HD
BRANCH  18  21
HETATM   21  C6  UNL     1      13.849  20.534  22.376  1.00  0.00     0.232 C
BRANCH  21  22
HETATM   22  C7  UNL     1      15.030  21.438  22.297  1.00  0.00     0.029 C
BRANCH  22  23
HETATM   23  C8  UNL     1      15.278  22.124  23.594  1.00  0.00     0.021 C
BRANCH  23  24
HETATM   24  C9  UNL     1      14.088  22.931  24.003  1.00  0.00     0.122 C
BRANCH  24  25
HETATM   25  N3  UNL     1      14.338  24.365  23.889  1.00  0.00    -0.367 N
HETATM   26  C10 UNL     1      13.400  25.218  23.750  1.00  0.00     0.196 C
HETATM   27  N4  UNL     1      12.050  24.780  23.699  1.00  0.00    -0.067 NA
HETATM   28  N5  UNL     1      13.710  26.599  23.646  1.00  0.00    -0.067 NA
ATOM     29  H3  UNL     1      15.301  24.698  23.922  1.00  0.00     0.161 HD
ENDBRANCH  24  25
ENDBRANCH  23  24
ENDBRANCH  22  23
ENDBRANCH  21  22
ENDBRANCH  18  21
ENDBRANCH  17  18
ENDBRANCH  16  17
ENDBRANCH   1  16
TORSDOF 11
ENDMDL