MODEL 2
REMARK VINA RESULT: -7.682804991      0.972      1.247
REMARK  12 active torsions:
REMARK  status: ('A' for Active; 'I' for Inactive)
REMARK    1  A    between atoms: N1_2  and  C2_3
REMARK    2  A    between atoms: N1_2  and  C10_18
REMARK    3  A    between atoms: C3_4  and  C4_5
REMARK    4  A    between atoms: C4_5  and  N2_6
REMARK       I    between atoms: N2_6  and  C5_8
REMARK    5  A    between atoms: C5_8  and  C6_10
REMARK    6  A    between atoms: C6_10  and  C7_11
REMARK    7  A    between atoms: C7_11  and  C8_12
REMARK    8  A    between atoms: C8_12  and  N3_13
REMARK    9  A    between atoms: C10_18  and  C11_19
REMARK   10  A    between atoms: C11_19  and  C12_20
REMARK   11  A    between atoms: C12_20  and  C13_21
REMARK   12  A    between atoms: C13_21  and  N6_22
ROOT
HETATM    1  C2  UNL     1     103.804  20.617  50.295  1.00  0.00     0.009 C
HETATM    2  C3  UNL     1     102.891  20.065  49.736  1.00  0.00    -0.064 C
ENDROOT
BRANCH   2   3
HETATM    3  C4  UNL     1     101.796  19.386  49.035  1.00  0.00     0.219 C
BRANCH   3   4
HETATM    4  N2  UNL     1     102.058  19.264  47.624  1.00  0.00    -0.351 N
HETATM    5  C5  UNL     1     102.816  18.190  47.098  1.00  0.00     0.218 C
HETATM    6  O1  UNL     1     103.251  17.339  47.949  1.00  0.00    -0.274 OA
ATOM      7  H2  UNL     1     101.688  19.968  46.987  1.00  0.00     0.163 HD
BRANCH   5   8
HETATM    8  C6  UNL     1     103.064  18.098  45.659  1.00  0.00     0.104 C
BRANCH   8   9
HETATM    9  C7  UNL     1     101.829  17.793  44.897  1.00  0.00     0.029 C
BRANCH   9  10
HETATM   10  C8  UNL     1     101.849  16.570  44.051  1.00  0.00     0.122 C
BRANCH  10  11
HETATM   11  N3  UNL     1     101.288  15.412  44.727  1.00  0.00    -0.367 N
HETATM   12  C9  UNL     1     101.984  14.603  45.440  1.00  0.00     0.196 C
HETATM   13  N4  UNL     1     103.386  14.768  45.633  1.00  0.00    -0.067 NA
HETATM   14  N5  UNL     1     101.293  13.511  46.042  1.00  0.00    -0.067 NA
ATOM     15  H3  UNL     1     100.288  15.233  44.630  1.00  0.00     0.161 HD
ENDBRANCH  10  11
ENDBRANCH   9  10
ENDBRANCH   8   9
ENDBRANCH   5   8
ENDBRANCH   3   4
ENDBRANCH   2   3
BRANCH   1  16
HETATM   16  N1  UNL     1     104.908  21.276  50.940  1.00  0.00    -0.346 N
HETATM   17  C1  UNL     1     105.140  22.669  50.704  1.00  0.00     0.160 C
BRANCH  16  18
HETATM   18  C10 UNL     1     105.695  20.447  51.787  1.00  0.00     0.132 C
BRANCH  18  19
HETATM   19  C11 UNL     1     106.735  19.631  51.140  1.00  0.00     0.022 C
BRANCH  19  20
HETATM   20  C12 UNL     1     106.460  18.174  51.101  1.00  0.00     0.021 C
BRANCH  20  21
HETATM   21  C13 UNL     1     107.431  17.522  50.113  1.00  0.00     0.122 C
BRANCH  21  22
HETATM   22  N6  UNL     1     107.624  16.171  50.583  1.00  0.00    -0.367 N
HETATM   23  C14 UNL     1     106.911  15.227  50.093  1.00  0.00     0.196 C
HETATM   24  N7  UNL     1     107.119  13.910  50.569  1.00  0.00    -0.067 NA
HETATM   25  N8  UNL     1     105.948  15.527  49.102  1.00  0.00    -0.067 NA
ATOM     26  H6  UNL     1     108.322  15.971  51.300  1.00  0.00     0.161 HD
ENDBRANCH  21  22
ENDBRANCH  20  21
ENDBRANCH  19  20
ENDBRANCH  18  19
ENDBRANCH  16  18
ENDBRANCH   1  16
TORSDOF 12
ENDMDL