MODEL 1
REMARK VINA RESULT: -7.253714284      0.000      0.000
REMARK  12 active torsions:
REMARK  status: ('A' for Active; 'I' for Inactive)
REMARK       I    between atoms: C2_2  and  N1_4
REMARK    1  A    between atoms: N1_4  and  C3_6
REMARK    2  A    between atoms: N2_8  and  N3_9
REMARK    3  A    between atoms: N4_12  and  C5_13
REMARK    4  A    between atoms: N4_12  and  C7_17
REMARK    5  A    between atoms: C5_13  and  C6_14
REMARK    6  A    between atoms: C6_14  and  O2_15
REMARK    7  A    between atoms: C7_17  and  C8_18
REMARK    8  A    between atoms: C8_18  and  C9_19
REMARK    9  A    between atoms: C9_19  and  C10_20
REMARK   10  A    between atoms: C10_20  and  C11_21
REMARK   11  A    between atoms: C11_21  and  C12_22
REMARK   12  A    between atoms: C12_22  and  N5_23
ROOT
HETATM    1  C3  UNL     1     102.579  16.221  43.740  1.00  0.00     0.129 C
HETATM    2  C4  UNL     1     101.776  15.634  44.873  1.00  0.00     0.172 C
HETATM    3  N2  UNL     1     102.674  15.843  45.968  1.00  0.00    -0.056 NA
HETATM    4  N4  UNL     1     103.151  17.166  45.846  1.00  0.00     0.016 N
HETATM    5  C14 UNL     1     103.209  17.399  44.385  1.00  0.00     0.287 C
ENDROOT
BRANCH   4   6
HETATM    6  C5  UNL     1     104.481  17.292  46.274  1.00  0.00     0.286 C
BRANCH   6   7
HETATM    7  C6  UNL     1     105.455  18.198  45.685  1.00  0.00     0.194 C
BRANCH   7   8
HETATM    8  O2  UNL     1     106.241  18.962  46.533  1.00  0.00    -0.399 OA
ATOM      9  H2  UNL     1     106.059  19.892  46.603  1.00  0.00     0.209 HD
ENDBRANCH   7   8
ENDBRANCH   6   7
ENDBRANCH   4   6
BRANCH   4  10
HETATM   10  C7  UNL     1     102.131  18.008  46.326  1.00  0.00     0.261 C
BRANCH  10  11
HETATM   11  C8  UNL     1     102.448  18.999  47.393  1.00  0.00     0.030 C
BRANCH  11  12
HETATM   12  C9  UNL     1     102.078  18.424  48.781  1.00  0.00     0.002 C
BRANCH  12  13
HETATM   13  C10 UNL     1     101.575  19.507  49.683  1.00  0.00     0.002 C
BRANCH  13  14
HETATM   14  C11 UNL     1     102.373  20.769  49.658  1.00  0.00     0.020 C
BRANCH  14  15
HETATM   15  C12 UNL     1     103.647  20.504  50.459  1.00  0.00     0.122 C
BRANCH  15  16
HETATM   16  N5  UNL     1     104.365  21.749  50.636  1.00  0.00    -0.367 N
HETATM   17  C13 UNL     1     105.394  22.013  49.891  1.00  0.00     0.196 C
HETATM   18  N6  UNL     1     105.834  21.100  48.898  1.00  0.00    -0.067 NA
HETATM   19  N7  UNL     1     106.091  23.232  50.068  1.00  0.00    -0.067 NA
ATOM     20  H5  UNL     1     104.062  22.418  51.344  1.00  0.00     0.161 HD
ENDBRANCH  15  16
ENDBRANCH  14  15
ENDBRANCH  13  14
ENDBRANCH  12  13
ENDBRANCH  11  12
ENDBRANCH  10  11
ENDBRANCH   4  10
BRANCH   3  21
HETATM   21  N3  UNL     1     103.653  14.879  45.904  1.00  0.00    -0.340 NA
ATOM     22  H32 UNL     1     104.411  15.004  46.576  1.00  0.00     0.172 HD
ATOM     23  H31 UNL     1     104.078  14.922  44.978  1.00  0.00     0.172 HD
ENDBRANCH   3  21
BRANCH   1  24
HETATM   24  N1  UNL     1     101.729  16.580  42.615  1.00  0.00    -0.354 N
HETATM   25  C2  UNL     1     101.100  15.633  41.791  1.00  0.00     0.214 C
HETATM   26  C1  UNL     1     100.244  16.040  40.658  1.00  0.00     0.117 C
HETATM   27  O1  UNL     1     101.263  14.408  42.013  1.00  0.00    -0.274 OA
ATOM     28  H1  UNL     1     101.581  17.569  42.415  1.00  0.00     0.162 HD
ENDBRANCH   1  24
TORSDOF 12
ENDMDL