MODEL 5
REMARK VINA RESULT: -6.184802974      0.874      2.578
REMARK  12 active torsions:
REMARK  status: ('A' for Active; 'I' for Inactive)
REMARK    1  A    between atoms: N2_5  and  C4_6
REMARK    2  A    between atoms: C4_6  and  C5_7
REMARK    3  A    between atoms: C5_7  and  N3_8
REMARK    4  A    between atoms: N3_8  and  S1_10
REMARK    5  A    between atoms: S1_10  and  N4_13
REMARK    6  A    between atoms: N4_13  and  C6_15
REMARK    7  A    between atoms: C6_15  and  C7_16
REMARK    8  A    between atoms: C6_15  and  C9_22
REMARK    9  A    between atoms: C7_16  and  C8_17
REMARK   10  A    between atoms: C8_17  and  N5_18
REMARK   11  A    between atoms: C9_22  and  N6_23
REMARK   12  A    between atoms: N6_23  and  N7_24
ROOT
HETATM    1  S1  UNL     1     102.099  20.108  49.379  1.00  0.00     0.315 S
HETATM    2  O1  UNL     1     101.017  20.899  48.720  1.00  0.00    -0.183 OA
HETATM    3  O2  UNL     1     101.555  19.807  50.831  1.00  0.00    -0.183 OA
ENDROOT
BRANCH   1   4
HETATM    4  N3  UNL     1     102.099  18.534  48.667  1.00  0.00    -0.301 N
ATOM      5  H3  UNL     1     102.031  17.653  49.177  1.00  0.00     0.173 HD
BRANCH   4   6
HETATM    6  C5  UNL     1     102.213  18.665  47.232  1.00  0.00     0.161 C
BRANCH   6   7
HETATM    7  C4  UNL     1     103.048  17.457  46.832  1.00  0.00     0.260 C
BRANCH   7   8
HETATM    8  N2  UNL     1     103.049  17.070  45.531  1.00  0.00    -0.038 N
HETATM    9  C3  UNL     1     102.946  15.660  45.278  1.00  0.00     0.267 C
HETATM   10  C2  UNL     1     102.589  15.663  43.793  1.00  0.00     0.267 C
HETATM   11  N1  UNL     1     102.296  17.036  43.483  1.00  0.00    -0.043 N
HETATM   12  C1  UNL     1     101.344  17.250  42.456  1.00  0.00     0.274 C
HETATM   13  C11 UNL     1     103.544  17.733  43.330  1.00  0.00     0.267 C
HETATM   14  C12 UNL     1     101.872  17.538  44.792  1.00  0.00     0.472 C
HETATM   15  C10 UNL     1     104.100  17.670  44.749  1.00  0.00     0.267 C
ENDBRANCH   7   8
ENDBRANCH   6   7
ENDBRANCH   4   6
ENDBRANCH   1   4
BRANCH   1  16
HETATM   16  N4  UNL     1     103.541  20.891  49.597  1.00  0.00    -0.297 N
ATOM     17  H4  UNL     1     103.952  21.509  48.896  1.00  0.00     0.174 HD
BRANCH  16  18
HETATM   18  C6  UNL     1     104.161  20.622  50.864  1.00  0.00     0.112 C
BRANCH  18  19
HETATM   19  C7  UNL     1     105.239  21.635  51.098  1.00  0.00     0.054 C
BRANCH  19  20
HETATM   20  C8  UNL     1     105.178  22.690  50.022  1.00  0.00     0.231 C
BRANCH  20  21
HETATM   21  N5  UNL     1     105.526  23.957  50.660  1.00  0.00    -0.079 N
ATOM     22  H53 UNL     1     105.045  24.107  51.547  1.00  0.00     0.274 HD
ATOM     23  H52 UNL     1     106.477  23.975  51.027  1.00  0.00     0.274 HD
ATOM     24  H51 UNL     1     105.344  24.688  49.973  1.00  0.00     0.274 HD
ENDBRANCH  20  21
ENDBRANCH  19  20
ENDBRANCH  18  19
BRANCH  18  25
HETATM   25  C9  UNL     1     104.884  19.253  50.848  1.00  0.00     0.160 C
BRANCH  25  26
HETATM   26  N6  UNL     1     106.309  19.356  50.973  1.00  0.00    -0.146 NA
BRANCH  26  27
HETATM   27  N7  UNL     1     106.871  18.066  51.176  1.00  0.00    -0.348 N
ATOM     28  H72 UNL     1     106.885  17.329  50.472  1.00  0.00     0.172 HD
ATOM     29  H71 UNL     1     107.251  17.998  52.120  1.00  0.00     0.172 HD
ENDBRANCH  26  27
ENDBRANCH  25  26
ENDBRANCH  18  25
ENDBRANCH  16  18
ENDBRANCH   1  16
TORSDOF 12
ENDMDL