MODEL 1
REMARK VINA RESULT: -6.591987286      0.000      0.000
REMARK  11 active torsions:
REMARK  status: ('A' for Active; 'I' for Inactive)
REMARK    1  A    between atoms: C1_4  and  N2_5
REMARK    2  A    between atoms: N2_5  and  C2_7
REMARK    3  A    between atoms: C2_7  and  C3_8
REMARK    4  A    between atoms: C3_8  and  C4_9
REMARK    5  A    between atoms: C4_9  and  N3_10
REMARK    6  A    between atoms: N3_10  and  C5_13
REMARK    7  A    between atoms: C5_13  and  C6_14
REMARK       I    between atoms: C6_14  and  N4_16
REMARK    8  A    between atoms: N4_16  and  C7_18
REMARK    9  A    between atoms: N5_21  and  C10_22
REMARK   10  A    between atoms: C10_22  and  C11_23
REMARK   11  A    between atoms: C11_23  and  N6_24
ROOT
HETATM    1  C6  UNL     1     102.625  18.214  47.039  1.00  0.00     0.243 C
HETATM    2  O1  UNL     1     103.340  17.298  47.553  1.00  0.00    -0.272 OA
HETATM    3  N4  UNL     1     102.266  18.086  45.707  1.00  0.00    -0.355 N
ATOM      4  H4  UNL     1     101.701  18.823  45.286  1.00  0.00     0.162 HD
ENDROOT
BRANCH   1   5
HETATM    5  C5  UNL     1     102.238  19.333  47.887  1.00  0.00     0.334 C
BRANCH   5   6
HETATM    6  N3  UNL     1     102.065  19.023  49.276  1.00  0.00    -0.067 N
ATOM      7  H32 UNL     1     102.707  18.284  49.565  1.00  0.00     0.277 HD
ATOM      8  H31 UNL     1     101.177  18.546  49.433  1.00  0.00     0.277 HD
BRANCH   6   9
HETATM    9  C4  UNL     1     102.186  20.166  50.134  1.00  0.00     0.234 C
BRANCH   9  10
HETATM   10  C3  UNL     1     103.432  20.974  49.972  1.00  0.00     0.047 C
BRANCH  10  11
HETATM   11  C2  UNL     1     104.438  20.863  51.067  1.00  0.00     0.122 C
BRANCH  11  12
HETATM   12  N2  UNL     1     105.499  21.827  51.013  1.00  0.00    -0.386 N
ATOM     13  H2  UNL     1     106.375  21.683  51.515  1.00  0.00     0.160 HD
BRANCH  12  14
HETATM   14  C1  UNL     1     105.271  23.010  50.218  1.00  0.00     0.168 C
HETATM   15  N1  UNL     1     105.711  24.130  50.639  1.00  0.00    -0.396 N
ATOM     16  H12 UNL     1     106.214  24.173  51.526  1.00  0.00     0.156 HD
ATOM     17  H11 UNL     1     105.551  24.966  50.077  1.00  0.00     0.156 HD
ENDBRANCH  12  14
ENDBRANCH  11  12
ENDBRANCH  10  11
ENDBRANCH   9  10
ENDBRANCH   6   9
ENDBRANCH   5   6
ENDBRANCH   1   5
BRANCH   3  18
HETATM   18  C7  UNL     1     102.656  16.950  44.873  1.00  0.00     0.087 C
HETATM   19  C8  UNL     1     101.495  16.111  44.449  1.00  0.00     0.055 C
HETATM   20  C9  UNL     1     101.137  16.275  42.995  1.00  0.00     0.274 C
HETATM   21  N5  UNL     1     102.236  15.998  42.110  1.00  0.00     0.090 N
HETATM   22  C13 UNL     1     103.521  16.357  42.661  1.00  0.00     0.274 C
HETATM   23  C14 UNL     1     103.430  17.461  43.686  1.00  0.00     0.055 C
BRANCH  21  24
HETATM   24  C10 UNL     1     102.014  16.581  40.811  1.00  0.00     0.292 C
BRANCH  24  25
HETATM   25  C11 UNL     1     100.971  17.659  40.948  1.00  0.00     0.152 C
BRANCH  25  26
HETATM   26  N6  UNL     1     101.567  18.929  40.595  1.00  0.00    -0.365 N
HETATM   27  C12 UNL     1     101.607  19.945  41.362  1.00  0.00     0.197 C
HETATM   28  N7  UNL     1     102.222  21.136  40.893  1.00  0.00    -0.067 NA
HETATM   29  N8  UNL     1     101.067  19.944  42.660  1.00  0.00    -0.067 NA
ATOM     30  H6  UNL     1     101.983  19.016  39.668  1.00  0.00     0.161 HD
ENDBRANCH  25  26
ENDBRANCH  24  25
ENDBRANCH  21  24
ENDBRANCH   3  18
TORSDOF 11
ENDMDL