MODEL 4
REMARK VINA RESULT: -6.896045484      1.045      1.315
REMARK  12 active torsions:
REMARK  status: ('A' for Active; 'I' for Inactive)
REMARK    1  A    between atoms: C3_3  and  N1_4
REMARK    2  A    between atoms: N1_4  and  C4_5
REMARK    3  A    between atoms: C4_5  and  C5_6
REMARK    4  A    between atoms: C5_6  and  C6_7
REMARK       I    between atoms: C6_7  and  N2_9
REMARK    5  A    between atoms: N2_9  and  C7_11
REMARK    6  A    between atoms: C7_11  and  C8_12
REMARK    7  A    between atoms: C8_12  and  N3_13
REMARK    8  A    between atoms: N3_13  and  C9_16
REMARK    9  A    between atoms: C9_16  and  C10_17
REMARK   10  A    between atoms: C10_17  and  C11_18
REMARK   11  A    between atoms: C11_18  and  N4_19
REMARK       I    between atoms: N4_19  and  C12_21
REMARK   12  A    between atoms: C14_27  and  O2_28
ROOT
HETATM    1  C1  UNL     1     100.718  20.424  42.631  1.00  0.00     0.013 C
HETATM    2  C2  UNL     1     100.776  19.343  43.162  1.00  0.00    -0.089 C
HETATM    3  C3  UNL     1     100.875  18.029  43.814  1.00  0.00     0.330 C
ENDROOT
BRANCH   3   4
HETATM    4  N1  UNL     1     102.241  17.621  43.903  1.00  0.00    -0.052 N
HETATM    5  C13 UNL     1     102.375  16.172  43.815  1.00  0.00     0.272 C
HETATM    6  C14 UNL     1     103.515  16.290  42.854  1.00  0.00     0.170 C
HETATM    7  C15 UNL     1     103.001  17.690  42.671  1.00  0.00     0.272 C
BRANCH   4   8
HETATM    8  C4  UNL     1     102.902  18.184  45.054  1.00  0.00     0.248 C
BRANCH   8   9
HETATM    9  C5  UNL     1     101.895  18.468  46.111  1.00  0.00     0.130 C
BRANCH   9  10
HETATM   10  C6  UNL     1     102.482  18.476  47.481  1.00  0.00     0.219 C
HETATM   11  O1  UNL     1     103.210  17.519  47.856  1.00  0.00    -0.274 OA
HETATM   12  N2  UNL     1     102.211  19.558  48.333  1.00  0.00    -0.359 N
ATOM     13  H2  UNL     1     101.618  20.324  48.014  1.00  0.00     0.162 HD
BRANCH  12  14
HETATM   14  C7  UNL     1     102.778  19.584  49.679  1.00  0.00     0.150 C
BRANCH  14  15
HETATM   15  C8  UNL     1     103.463  20.876  49.951  1.00  0.00     0.251 C
BRANCH  15  16
HETATM   16  N3  UNL     1     104.156  20.809  51.213  1.00  0.00    -0.074 N
ATOM     17  H32 UNL     1     103.777  21.468  51.893  1.00  0.00     0.277 HD
ATOM     18  H31 UNL     1     103.955  19.945  51.715  1.00  0.00     0.277 HD
BRANCH  16  19
HETATM   19  C9  UNL     1     105.573  20.999  51.007  1.00  0.00     0.234 C
BRANCH  19  20
HETATM   20  C10 UNL     1     106.248  19.842  51.763  1.00  0.00     0.047 C
BRANCH  20  21
HETATM   21  C11 UNL     1     106.946  18.962  50.765  1.00  0.00     0.124 C
BRANCH  21  22
HETATM   22  N4  UNL     1     106.803  17.577  51.175  1.00  0.00    -0.365 N
HETATM   23  C12 UNL     1     106.960  16.584  50.178  1.00  0.00     0.181 C
HETATM   24  N5  UNL     1     108.144  16.244  49.806  1.00  0.00    -0.374 N
HETATM   25  N6  UNL     1     105.798  16.000  49.627  1.00  0.00    -0.064 NA
ATOM     26  H52 UNL     1     108.983  16.666  50.204  1.00  0.00     0.158 HD
ATOM     27  H51 UNL     1     108.257  15.529  49.088  1.00  0.00     0.158 HD
ATOM     28  H4  UNL     1     106.597  17.329  52.144  1.00  0.00     0.162 HD
ENDBRANCH  21  22
ENDBRANCH  20  21
ENDBRANCH  19  20
ENDBRANCH  16  19
ENDBRANCH  15  16
ENDBRANCH  14  15
ENDBRANCH  12  14
ENDBRANCH   9  10
ENDBRANCH   8   9
ENDBRANCH   4   8
BRANCH   6  29
HETATM   29  O2  UNL     1     103.382  15.451  41.770  1.00  0.00    -0.392 OA
ATOM     30  H2  UNL     1     103.532  14.541  41.994  1.00  0.00     0.210 HD
ENDBRANCH   6  29
ENDBRANCH   3   4
TORSDOF 12
ENDMDL