MODEL 1
REMARK VINA RESULT: -7.891513959      0.000      0.000
REMARK  12 active torsions:
REMARK  status: ('A' for Active; 'I' for Inactive)
REMARK    1  A    between atoms: N3_4  and  C2_6
REMARK    2  A    between atoms: C2_6  and  C3_7
REMARK    3  A    between atoms: C3_7  and  C4_8
REMARK    4  A    between atoms: C4_8  and  N4_9
REMARK       I    between atoms: C5_11  and  N6_13
REMARK    5  A    between atoms: N6_13  and  C6_15
REMARK    6  A    between atoms: C6_15  and  C7_16
REMARK    7  A    between atoms: C7_16  and  C8_17
REMARK    8  A    between atoms: C8_17  and  C9_18
REMARK       I    between atoms: C9_18  and  N7_20
REMARK    9  A    between atoms: N7_20  and  C10_22
REMARK   10  A    between atoms: C10_22  and  C11_23
REMARK   11  A    between atoms: C11_23  and  N8_24
REMARK   12  A    between atoms: C12_26  and  O2_28
ROOT
HETATM    1  C6  UNL     1     107.744  18.113  50.054  1.00  0.00     0.122 C
ENDROOT
BRANCH   1   2
HETATM    2  N6  UNL     1     107.567  17.043  49.093  1.00  0.00    -0.365 N
HETATM    3  C5  UNL     1     106.720  15.931  49.311  1.00  0.00     0.183 C
HETATM    4  N4  UNL     1     107.042  14.931  50.076  1.00  0.00    -0.365 N
HETATM    5  N5  UNL     1     105.445  15.847  48.691  1.00  0.00    -0.064 NA
ATOM      6  H4  UNL     1     106.383  14.161  50.189  1.00  0.00     0.162 HD
ATOM      7  H6  UNL     1     108.080  17.095  48.212  1.00  0.00     0.162 HD
BRANCH   4   8
HETATM    8  C4  UNL     1     108.296  14.883  50.765  1.00  0.00     0.123 C
BRANCH   8   9
HETATM    9  C3  UNL     1     109.217  13.810  50.215  1.00  0.00     0.039 C
BRANCH   9  10
HETATM   10  C2  UNL     1     108.517  12.469  50.341  1.00  0.00     0.123 C
BRANCH  10  11
HETATM   11  N3  UNL     1     108.996  11.607  49.279  1.00  0.00    -0.367 N
HETATM   12  C1  UNL     1     108.296  11.472  48.205  1.00  0.00     0.196 C
HETATM   13  N1  UNL     1     107.065  12.159  48.060  1.00  0.00    -0.067 NA
HETATM   14  N2  UNL     1     108.733  10.637  47.146  1.00  0.00    -0.067 NA
ATOM     15  H3  UNL     1     109.880  11.111  49.380  1.00  0.00     0.161 HD
ENDBRANCH  10  11
ENDBRANCH   9  10
ENDBRANCH   8   9
ENDBRANCH   4   8
ENDBRANCH   1   2
BRANCH   1  16
HETATM   16  C7  UNL     1     106.614  18.202  51.027  1.00  0.00     0.029 C
BRANCH  16  17
HETATM   17  C8  UNL     1     106.487  19.499  51.759  1.00  0.00     0.104 C
BRANCH  17  18
HETATM   18  C9  UNL     1     105.563  20.468  51.153  1.00  0.00     0.217 C
HETATM   19  O1  UNL     1     105.913  21.654  51.023  1.00  0.00    -0.274 OA
HETATM   20  N7  UNL     1     104.286  20.026  50.731  1.00  0.00    -0.360 N
ATOM     21  H7  UNL     1     104.051  19.042  50.867  1.00  0.00     0.162 HD
BRANCH  20  22
HETATM   22  C10 UNL     1     103.299  20.878  50.123  1.00  0.00     0.142 C
BRANCH  22  23
HETATM   23  C11 UNL     1     102.025  20.138  49.787  1.00  0.00     0.142 C
BRANCH  23  24
HETATM   24  N8  UNL     1     102.052  19.744  48.379  1.00  0.00    -0.357 N
HETATM   25  C12 UNL     1     102.416  18.567  48.009  1.00  0.00     0.225 C
HETATM   26  N9  UNL     1     102.413  18.271  46.624  1.00  0.00    -0.057 NA
ATOM     27  H8  UNL     1     101.773  20.422  47.670  1.00  0.00     0.162 HD
BRANCH  25  28
HETATM   28  O2  UNL     1     102.804  17.602  48.925  1.00  0.00    -0.335 OA
ATOM     29  H2  UNL     1     103.708  17.318  49.000  1.00  0.00     0.220 HD
ENDBRANCH  25  28
ENDBRANCH  23  24
ENDBRANCH  22  23
ENDBRANCH  20  22
ENDBRANCH  17  18
ENDBRANCH  16  17
ENDBRANCH   1  16
TORSDOF 12
ENDMDL