MODEL 4
REMARK VINA RESULT: -6.215664762      2.944      6.811
REMARK  11 active torsions:
REMARK  status: ('A' for Active; 'I' for Inactive)
REMARK    1  A    between atoms: C2_2  and  C3_3
REMARK    2  A    between atoms: C3_3  and  N1_4
REMARK    3  A    between atoms: N1_4  and  C4_5
REMARK    4  A    between atoms: N1_4  and  C10_20
REMARK    5  A    between atoms: C4_5  and  C5_6
REMARK    6  A    between atoms: C5_6  and  C6_7
REMARK    7  A    between atoms: C6_7  and  N2_8
REMARK    8  A    between atoms: N2_8  and  C7_10
REMARK    9  A    between atoms: C7_10  and  C8_14
REMARK   10  A    between atoms: C8_14  and  N4_15
REMARK   11  A    between atoms: C10_20  and  C11_21
ROOT
HETATM    1  C4  UNL     1     102.350  19.656  47.973  1.00  0.00     0.123 C
ENDROOT
BRANCH   1   2
HETATM    2  N1  UNL     1     101.896  19.819  49.302  1.00  0.00    -0.389 N
BRANCH   2   3
HETATM    3  C3  UNL     1     101.291  18.626  49.864  1.00  0.00     0.148 C
BRANCH   3   4
HETATM    4  C2  UNL     1      99.925  18.893  50.385  1.00  0.00    -0.018 C
HETATM    5  C1  UNL     1      99.304  17.967  51.100  1.00  0.00     0.008 C
ENDBRANCH   3   4
ENDBRANCH   2   3
BRANCH   2   6
HETATM    6  C10 UNL     1     102.683  20.545  50.216  1.00  0.00     0.073 C
BRANCH   6   7
HETATM    7  C11 UNL     1     104.122  20.600  49.765  1.00  0.00     0.121 C
HETATM    8  C12 UNL     1     104.750  21.923  50.065  1.00  0.00     0.141 C
HETATM    9  N7  UNL     1     105.743  21.725  51.076  1.00  0.00    -0.353 N
HETATM   10  C13 UNL     1     105.766  20.378  51.466  1.00  0.00     0.288 C
ATOM     11  H7  UNL     1     106.345  22.455  51.457  1.00  0.00     0.162 HD
HETATM   12  O1  UNL     1     106.455  19.873  52.415  1.00  0.00    -0.264 OA
HETATM   13  C14 UNL     1     104.877  19.603  50.626  1.00  0.00     0.227 C
HETATM   14  O2  UNL     1     104.726  18.357  50.582  1.00  0.00    -0.286 OA
ENDBRANCH   6   7
ENDBRANCH   2   6
ENDBRANCH   1   2
BRANCH   1  15
HETATM   15  C5  UNL     1     102.536  18.194  47.568  1.00  0.00     0.039 C
BRANCH  15  16
HETATM   16  C6  UNL     1     102.312  18.107  46.061  1.00  0.00     0.122 C
BRANCH  16  17
HETATM   17  N2  UNL     1     102.737  16.799  45.636  1.00  0.00    -0.379 N
ATOM     18  H2  UNL     1     103.695  16.509  45.837  1.00  0.00     0.160 HD
BRANCH  17  19
HETATM   19  C7  UNL     1     101.884  15.892  44.950  1.00  0.00     0.088 C
HETATM   20  N3  UNL     1     101.486  14.772  45.483  1.00  0.00    -0.388 N
ATOM     21  H32 UNL     1     101.781  14.514  46.425  1.00  0.00     0.157 HD
ATOM     22  H31 UNL     1     100.874  14.122  44.990  1.00  0.00     0.157 HD
BRANCH  19  23
HETATM   23  C8  UNL     1     101.452  16.271  43.568  1.00  0.00     0.197 C
BRANCH  23  24
HETATM   24  N4  UNL     1     102.419  15.698  42.668  1.00  0.00    -0.360 N
HETATM   25  C9  UNL     1     102.070  14.813  41.824  1.00  0.00     0.197 C
HETATM   26  N5  UNL     1     100.728  14.373  41.749  1.00  0.00    -0.067 NA
HETATM   27  N6  UNL     1     103.062  14.289  40.967  1.00  0.00    -0.067 NA
ATOM     28  H4  UNL     1     103.391  16.004  42.708  1.00  0.00     0.162 HD
ENDBRANCH  23  24
ENDBRANCH  19  23
ENDBRANCH  17  19
ENDBRANCH  16  17
ENDBRANCH  15  16
ENDBRANCH   1  15
TORSDOF 11
ENDMDL