MODEL 4
REMARK VINA RESULT: -6.047122733      5.762      8.860
REMARK  14 active torsions:
REMARK  status: ('A' for Active; 'I' for Inactive)
REMARK    1  A    between atoms: C1_4  and  C2_5
REMARK    2  A    between atoms: C1_4  and  N3_17
REMARK    3  A    between atoms: C2_5  and  C3_6
REMARK    4  A    between atoms: C3_6  and  O1_7
REMARK    5  A    between atoms: C3_6  and  C4_9
REMARK    6  A    between atoms: C4_9  and  N2_10
REMARK    7  A    between atoms: C4_9  and  C5_14
REMARK    8  A    between atoms: C5_14  and  O2_15
REMARK    9  A    between atoms: N3_17  and  C6_19
REMARK   10  A    between atoms: C6_19  and  C7_20
REMARK   11  A    between atoms: C7_20  and  C8_21
REMARK   12  A    between atoms: C8_21  and  N4_22
REMARK   13  A    between atoms: C13_27  and  N5_28
REMARK   14  A    between atoms: N5_28  and  C14_30
ROOT
HETATM    1  N1  UNL     1     108.620  14.520  51.735  1.00  0.00    -0.389 N
ATOM      2  H11 UNL     1     108.742  15.222  52.465  1.00  0.00     0.157 HD
ATOM      3  H12 UNL     1     108.726  13.547  52.025  1.00  0.00     0.157 HD
HETATM    4  C1  UNL     1     108.341  14.846  50.548  1.00  0.00     0.072 C
ENDROOT
BRANCH   4   5
HETATM    5  C2  UNL     1     108.165  13.830  49.492  1.00  0.00     0.109 C
BRANCH   5   6
HETATM    6  C3  UNL     1     108.810  12.528  49.810  1.00  0.00     0.157 C
BRANCH   6   7
HETATM    7  O1  UNL     1     108.107  11.843  50.792  1.00  0.00    -0.393 OA
ATOM      8  H1  UNL     1     108.659  11.207  51.231  1.00  0.00     0.210 HD
ENDBRANCH   6   7
BRANCH   6   9
HETATM    9  C4  UNL     1     108.867  11.709  48.519  1.00  0.00     0.235 C
BRANCH   9  10
HETATM   10  N2  UNL     1     107.560  11.743  47.929  1.00  0.00    -0.071 N
ATOM     11  H23 UNL     1     106.884  11.163  48.426  1.00  0.00     0.274 HD
ATOM     12  H22 UNL     1     107.088  12.638  48.059  1.00  0.00     0.274 HD
ATOM     13  H21 UNL     1     107.660  11.485  46.947  1.00  0.00     0.274 HD
ENDBRANCH   9  10
BRANCH   9  14
HETATM   14  C5  UNL     1     109.189  10.275  48.919  1.00  0.00     0.199 C
BRANCH  14  15
HETATM   15  O2  UNL     1     110.188  10.256  49.883  1.00  0.00    -0.399 OA
ATOM     16  H2  UNL     1     110.950   9.790  49.560  1.00  0.00     0.209 HD
ENDBRANCH  14  15
ENDBRANCH   9  14
ENDBRANCH   6   9
ENDBRANCH   5   6
ENDBRANCH   4   5
BRANCH   4  17
HETATM   17  N3  UNL     1     108.193  16.207  50.142  1.00  0.00    -0.380 N
ATOM     18  H3  UNL     1     108.930  16.665  49.607  1.00  0.00     0.160 HD
BRANCH  17  19
HETATM   19  C6  UNL     1     106.993  16.933  50.494  1.00  0.00     0.122 C
BRANCH  19  20
HETATM   20  C7  UNL     1     107.297  18.412  50.247  1.00  0.00     0.047 C
BRANCH  20  21
HETATM   21  C8  UNL     1     106.561  19.209  51.300  1.00  0.00     0.239 C
BRANCH  21  22
HETATM   22  N4  UNL     1     105.719  20.221  50.784  1.00  0.00    -0.065 N
HETATM   23  C9  UNL     1     105.963  21.553  51.250  1.00  0.00     0.238 C
HETATM   24  C10 UNL     1     105.382  22.496  50.198  1.00  0.00     0.036 C
HETATM   25  C11 UNL     1     104.821  21.522  49.208  1.00  0.00     0.038 C
HETATM   26  C12 UNL     1     105.865  20.396  49.326  1.00  0.00     0.244 C
HETATM   27  C13 UNL     1     103.644  20.835  49.850  1.00  0.00     0.115 C
HETATM   28  C15 UNL     1     104.309  19.928  50.867  1.00  0.00     0.263 C
BRANCH  27  29
HETATM   29  N5  UNL     1     102.849  20.097  48.901  1.00  0.00    -0.362 N
ATOM     30  H5  UNL     1     103.029  20.262  47.910  1.00  0.00     0.162 HD
BRANCH  29  31
HETATM   31  C14 UNL     1     101.853  19.175  49.227  1.00  0.00     0.348 C
HETATM   32  O3  UNL     1     100.806  19.552  49.799  1.00  0.00    -0.284 OA
ENDBRANCH  29  31
ENDBRANCH  27  29
ENDBRANCH  21  22
ENDBRANCH  20  21
ENDBRANCH  19  20
ENDBRANCH  17  19
ENDBRANCH   4  17
TORSDOF 14
ENDMDL