MODEL 5
REMARK VINA RESULT: -7.715396817      1.474      2.000
REMARK  12 active torsions:
REMARK  status: ('A' for Active; 'I' for Inactive)
REMARK    1  A    between atoms: C2_5  and  C3_6
REMARK    2  A    between atoms: C2_5  and  N8_21
REMARK    3  A    between atoms: C3_6  and  C4_7
REMARK    4  A    between atoms: C4_7  and  C5_8
REMARK    5  A    between atoms: C5_8  and  C6_9
REMARK    6  A    between atoms: C6_9  and  N3_10
REMARK       I    between atoms: C7_12  and  N5_14
REMARK    7  A    between atoms: N5_14  and  N6_16
REMARK    8  A    between atoms: N8_21  and  C8_23
REMARK    9  A    between atoms: C8_23  and  C9_24
REMARK   10  A    between atoms: C9_24  and  C10_25
REMARK   11  A    between atoms: C10_25  and  C11_26
REMARK   12  A    between atoms: C11_26  and  N9_27
ROOT
HETATM    1  N1  UNL     1     106.310  24.110  50.292  1.00  0.00    -0.172 NA
HETATM    2  C1  UNL     1     105.434  23.361  50.308  1.00  0.00     0.183 C
HETATM    3  N2  UNL     1     104.373  22.463  50.350  1.00  0.00    -0.283 N
ATOM      4  H2  UNL     1     103.413  22.803  50.282  1.00  0.00     0.179 HD
HETATM    5  C2  UNL     1     104.598  21.212  50.473  1.00  0.00     0.086 C
ENDROOT
BRANCH   5   6
HETATM    6  C3  UNL     1     103.602  20.141  50.532  1.00  0.00     0.077 C
BRANCH   6   7
HETATM    7  C4  UNL     1     102.312  20.422  49.828  1.00  0.00     0.013 C
BRANCH   7   8
HETATM    8  C5  UNL     1     102.258  19.822  48.442  1.00  0.00     0.045 C
BRANCH   8   9
HETATM    9  C6  UNL     1     102.161  18.313  48.509  1.00  0.00     0.063 C
BRANCH   9  10
HETATM   10  N3  UNL     1     102.374  17.719  47.260  1.00  0.00    -0.343 N
HETATM   11  C7  UNL     1     103.242  17.045  46.700  1.00  0.00     0.207 C
HETATM   12  N4  UNL     1     104.445  16.642  47.303  1.00  0.00    -0.062 NA
HETATM   13  N5  UNL     1     103.063  16.612  45.330  1.00  0.00    -0.259 N
ATOM     14  H5  UNL     1     103.853  16.489  44.697  1.00  0.00     0.191 HD
ATOM     15  H3  UNL     1     101.587  17.893  46.634  1.00  0.00     0.167 HD
BRANCH  13  16
HETATM   16  N6  UNL     1     101.761  16.372  44.925  1.00  0.00    -0.247 N
HETATM   17  N7  UNL     1     101.235  15.253  45.141  1.00  0.00    -0.331 N
ATOM     18  H72 UNL     1     101.779  14.532  45.614  1.00  0.00     0.178 HD
ATOM     19  H71 UNL     1     100.276  15.076  44.842  1.00  0.00     0.178 HD
ATOM     20  H6  UNL     1     101.229  17.104  44.453  1.00  0.00     0.207 HD
ENDBRANCH  13  16
ENDBRANCH   9  10
ENDBRANCH   8   9
ENDBRANCH   7   8
ENDBRANCH   6   7
ENDBRANCH   5   6
BRANCH   5  21
HETATM   21  N8  UNL     1     105.984  20.811  50.589  1.00  0.00    -0.379 N
ATOM     22  H8  UNL     1     106.685  21.095  49.903  1.00  0.00     0.160 HD
BRANCH  21  23
HETATM   23  C8  UNL     1     106.322  19.987  51.725  1.00  0.00     0.121 C
BRANCH  23  24
HETATM   24  C9  UNL     1     106.659  18.596  51.263  1.00  0.00     0.021 C
BRANCH  24  25
HETATM   25  C10 UNL     1     107.596  18.559  50.087  1.00  0.00     0.021 C
BRANCH  25  26
HETATM   26  C11 UNL     1     107.466  17.233  49.390  1.00  0.00     0.122 C
BRANCH  26  27
HETATM   27  N9  UNL     1     108.311  17.147  48.214  1.00  0.00    -0.367 N
HETATM   28  C12 UNL     1     108.027  17.825  47.141  1.00  0.00     0.196 C
HETATM   29  N10 UNL     1     106.892  18.675  47.058  1.00  0.00    -0.067 NA
HETATM   30  N11 UNL     1     108.866  17.722  46.012  1.00  0.00    -0.067 NA
ATOM     31  H9  UNL     1     109.136  16.547  48.229  1.00  0.00     0.161 HD
ENDBRANCH  26  27
ENDBRANCH  25  26
ENDBRANCH  24  25
ENDBRANCH  23  24
ENDBRANCH  21  23
ENDBRANCH   5  21
TORSDOF 12
ENDMDL