MODEL 3
REMARK VINA RESULT: -5.662413533      1.322      2.407
REMARK  15 active torsions:
REMARK  status: ('A' for Active; 'I' for Inactive)
REMARK    1  A    between atoms: N1_1  and  N2_4
REMARK    2  A    between atoms: N2_4  and  C1_5
REMARK    3  A    between atoms: C1_5  and  C2_6
REMARK    4  A    between atoms: C3_7  and  C4_8
REMARK    5  A    between atoms: C4_8  and  N3_9
REMARK    6  A    between atoms: N3_9  and  C5_11
REMARK    7  A    between atoms: C6_12  and  C14_31
REMARK    8  A    between atoms: C7_16  and  N5_17
REMARK    9  A    between atoms: N5_17  and  C8_18
REMARK   10  A    between atoms: C8_18  and  C9_19
REMARK   11  A    between atoms: C9_19  and  C10_20
REMARK   12  A    between atoms: C10_20  and  N6_21
REMARK   13  A    between atoms: N6_21  and  C11_23
REMARK   14  A    between atoms: C12_25  and  O2_26
REMARK   15  A    between atoms: C13_28  and  O3_29
ROOT
HETATM    1  C5  UNL     1     102.374  17.755  46.247  1.00  0.00     0.173 C
HETATM    2  C6  UNL     1     103.177  18.281  45.140  1.00  0.00     0.248 C
HETATM    3  N4  UNL     1     104.328  17.714  45.805  1.00  0.00    -0.035 N
ATOM      4  H41 UNL     1     104.838  18.196  46.546  1.00  0.00     0.280 HD
ATOM      5  H42 UNL     1     105.233  17.596  45.350  1.00  0.00     0.280 HD
HETATM    6  C7  UNL     1     103.400  16.594  46.060  1.00  0.00     0.415 C
ENDROOT
BRANCH   1   7
HETATM    7  N3  UNL     1     102.516  18.185  47.571  1.00  0.00    -0.388 N
ATOM      8  H3  UNL     1     102.882  17.517  48.250  1.00  0.00     0.159 HD
BRANCH   7   9
HETATM    9  C4  UNL     1     102.194  19.456  48.027  1.00  0.00     0.083 C
BRANCH   9  10
HETATM   10  C3  UNL     1     102.052  19.703  49.464  1.00  0.00     0.014 C
HETATM   11  C2  UNL     1     102.855  20.414  50.230  1.00  0.00    -0.008 C
BRANCH  11  12
HETATM   12  C1  UNL     1     104.074  21.131  49.858  1.00  0.00     0.161 C
BRANCH  12  13
HETATM   13  N2  UNL     1     104.751  21.560  51.094  1.00  0.00    -0.145 NA
BRANCH  13  14
HETATM   14  N1  UNL     1     105.404  22.780  50.808  1.00  0.00    -0.348 N
ATOM     15  H12 UNL     1     104.948  23.645  50.516  1.00  0.00     0.172 HD
ATOM     16  H11 UNL     1     106.402  22.626  50.949  1.00  0.00     0.172 HD
ENDBRANCH  13  14
ENDBRANCH  12  13
ENDBRANCH  11  12
ENDBRANCH   9  10
ENDBRANCH   7   9
ENDBRANCH   1   7
BRANCH   2  17
HETATM   17  C14 UNL     1     103.029  17.291  44.002  1.00  0.00     0.261 C
HETATM   18  N5  UNL     1     101.879  17.939  43.308  1.00  0.00     0.001 N
HETATM   19  C12 UNL     1     102.678  17.990  42.149  1.00  0.00     0.357 C
HETATM   20  C13 UNL     1     103.934  17.512  42.842  1.00  0.00     0.208 C
BRANCH  18  21
HETATM   21  C8  UNL     1     100.736  17.084  43.244  1.00  0.00     0.245 C
BRANCH  21  22
HETATM   22  C9  UNL     1      99.801  17.450  42.137  1.00  0.00     0.048 C
BRANCH  22  23
HETATM   23  C10 UNL     1      99.098  18.757  42.277  1.00  0.00     0.123 C
BRANCH  23  24
HETATM   24  N6  UNL     1      99.626  19.697  41.315  1.00  0.00    -0.368 N
ATOM     25  H6  UNL     1      99.714  19.377  40.351  1.00  0.00     0.161 HD
BRANCH  24  26
HETATM   26  C11 UNL     1     100.026  21.004  41.592  1.00  0.00     0.348 C
HETATM   27  O1  UNL     1     100.965  21.339  42.373  1.00  0.00    -0.284 OA
ENDBRANCH  24  26
ENDBRANCH  23  24
ENDBRANCH  22  23
ENDBRANCH  21  22
ENDBRANCH  18  21
BRANCH  19  28
HETATM   28  O2  UNL     1     102.806  19.159  41.438  1.00  0.00    -0.367 OA
ATOM     29  H2  UNL     1     103.327  19.188  40.644  1.00  0.00     0.212 HD
ENDBRANCH  19  28
BRANCH  20  30
HETATM   30  O3  UNL     1     104.431  16.278  42.405  1.00  0.00    -0.389 OA
ATOM     31  H3  UNL     1     103.894  15.824  41.767  1.00  0.00     0.210 HD
ENDBRANCH  20  30
ENDBRANCH   2  17
TORSDOF 15
ENDMDL