MODEL 2
REMARK VINA RESULT: -5.229178086      1.031      1.031
REMARK  3 active torsions:
REMARK  status: ('A' for Active; 'I' for Inactive)
REMARK    1  A    between atoms: N2_11  and  C9_12
REMARK    2  A    between atoms: C9_12  and  O2_13
REMARK    3  A    between atoms: C9_12  and  C10_15
ROOT
HETATM    1  C1  UNL     1     -35.144 -58.147  66.438  1.00  0.00     0.310 C
HETATM    2  N1  UNL     1     -36.314 -57.546  65.880  1.00  0.00     0.086 N
HETATM    3  C2  UNL     1     -36.580 -56.212  66.374  1.00  0.00     0.298 C
HETATM    4  C3  UNL     1     -37.639 -55.605  65.500  1.00  0.00     0.199 C
HETATM    5  O1  UNL     1     -38.756 -56.345  65.312  1.00  0.00    -0.377 OA
HETATM    6  C4  UNL     1     -39.374 -56.856  66.455  1.00  0.00     0.078 C
HETATM    7  C5  UNL     1     -39.705 -55.803  67.430  1.00  0.00     0.040 C
HETATM    8  C6  UNL     1     -39.913 -56.165  68.846  1.00  0.00     0.004 C
HETATM    9  C7  UNL     1     -41.000 -57.035  69.255  1.00  0.00     0.020 C
HETATM   10  C8  UNL     1     -41.759 -57.782  68.214  1.00  0.00     0.125 C
HETATM   11  N2  UNL     1     -41.756 -57.236  66.908  1.00  0.00    -0.358 N
HETATM   12  C11 UNL     1     -40.652 -57.485  65.949  1.00  0.00     0.163 C
HETATM   13  C12 UNL     1     -38.477 -57.956  66.975  1.00  0.00     0.070 C
HETATM   14  C13 UNL     1     -37.477 -58.389  65.892  1.00  0.00     0.275 C
ENDROOT
BRANCH  11  15
HETATM   15  C9  UNL     1     -42.790 -56.420  66.432  1.00  0.00     0.151 C
BRANCH  15  16
HETATM   16  O2  UNL     1     -43.307 -55.648  67.365  1.00  0.00    -0.345 OA
ATOM     17  H2  UNL     1     -43.494 -54.770  67.057  1.00  0.00     0.219 HD
ENDBRANCH  15  16
BRANCH  15  18
HETATM   18  C10 UNL     1     -43.383 -56.279  65.110  1.00  0.00     0.155 C
HETATM   19  N3  UNL     1     -44.776 -56.280  64.952  1.00  0.00    -0.111 NA
ENDBRANCH  15  18
ENDBRANCH  11  15
TORSDOF 3
ENDMDL