MODEL 1
REMARK VINA RESULT: -4.916536477      0.000      0.000
REMARK  1 active torsions:
REMARK  status: ('A' for Active; 'I' for Inactive)
REMARK       I    between atoms: N2_5  and  C4_6
REMARK       I    between atoms: C4_6  and  N3_8
REMARK    1  A    between atoms: N3_8  and  C5_10
ROOT
HETATM    1  C1  UNL     1     -42.971 -56.385  63.664  1.00  0.00     0.146 C
HETATM    2  N1  UNL     1     -42.784 -56.883  64.997  1.00  0.00    -0.173 NA
HETATM    3  C2  UNL     1     -43.708 -56.284  65.951  1.00  0.00     0.145 C
HETATM    4  C3  UNL     1     -42.981 -56.585  67.266  1.00  0.00     0.180 C
HETATM    5  N2  UNL     1     -41.684 -56.973  66.781  1.00  0.00    -0.187 N
HETATM    6  C4  UNL     1     -40.714 -57.692  67.496  1.00  0.00     0.344 C
HETATM    7  O1  UNL     1     -39.619 -57.947  66.905  1.00  0.00    -0.245 OA
HETATM    8  N3  UNL     1     -40.940 -58.130  68.845  1.00  0.00    -0.337 N
ATOM      9  H3  UNL     1     -41.819 -57.926  69.322  1.00  0.00     0.164 HD
HETATM   10  O3  UNL     1     -41.581 -56.518  65.530  1.00  0.00    -0.176 OA
ENDROOT
BRANCH   8  11
HETATM   11  C5  UNL     1     -39.888 -58.866  69.508  1.00  0.00     0.087 C
HETATM   12  C6  UNL     1     -40.491 -60.158  69.994  1.00  0.00     0.032 C
HETATM   13  C7  UNL     1     -39.624 -60.856  71.020  1.00  0.00     0.012 C
HETATM   14  C8  UNL     1     -38.301 -61.156  70.359  1.00  0.00     0.172 C
HETATM   15  C11 UNL     1     -39.482 -59.910  72.191  1.00  0.00     0.013 C
HETATM   16  O2  UNL     1     -37.227 -60.631  71.039  1.00  0.00    -0.390 OA
HETATM   17  C9  UNL     1     -37.277 -59.277  71.240  1.00  0.00     0.172 C
HETATM   18  C10 UNL     1     -38.610 -58.757  71.672  1.00  0.00     0.012 C
HETATM   19  C12 UNL     1     -39.342 -58.007  70.602  1.00  0.00     0.032 C
ENDBRANCH   8  11
TORSDOF 1
ENDMDL