MODEL 5
REMARK VINA RESULT: -5.822116098      1.660      2.270
REMARK  4 active torsions:
REMARK  status: ('A' for Active; 'I' for Inactive)
REMARK    1  A    between atoms: C3_3  and  C4_4
REMARK    2  A    between atoms: C5_5  and  C6_6
REMARK    3  A    between atoms: C6_6  and  N1_7
REMARK    4  A    between atoms: C10_12  and  O1_14
ROOT
HETATM    1  C1  UNL     1     -43.076 -56.371  63.775  1.00  0.00     0.013 C
HETATM    2  C2  UNL     1     -43.009 -56.430  64.964  1.00  0.00    -0.105 C
HETATM    3  C3  UNL     1     -42.925 -56.506  66.417  1.00  0.00     0.187 C
ENDROOT
BRANCH   3   4
HETATM    4  C4  UNL     1     -41.699 -55.865  66.934  1.00  0.00    -0.088 C
HETATM    5  C5  UNL     1     -40.689 -55.331  67.337  1.00  0.00    -0.060 C
BRANCH   5   6
HETATM    6  C6  UNL     1     -39.458 -54.681  67.797  1.00  0.00     0.155 C
BRANCH   6   7
HETATM    7  N1  UNL     1     -38.311 -55.353  67.336  1.00  0.00    -0.359 N
HETATM    8  C7  UNL     1     -38.036 -56.622  67.869  1.00  0.00     0.094 C
HETATM    9  C8  UNL     1     -37.596 -57.648  66.890  1.00  0.00     0.317 C
HETATM   10  N2  UNL     1     -36.631 -57.148  65.968  1.00  0.00     0.103 N
HETATM   11  C9  UNL     1     -36.760 -57.664  64.643  1.00  0.00     0.312 C
HETATM   12  C14 UNL     1     -36.502 -55.745  65.868  1.00  0.00     0.262 C
HETATM   13  C10 UNL     1     -35.796 -56.841  63.836  1.00  0.00     0.099 C
HETATM   14  C11 UNL     1     -36.209 -56.780  62.379  1.00  0.00     0.049 C
HETATM   15  C12 UNL     1     -35.881 -55.505  64.519  1.00  0.00     0.163 C
HETATM   16  C13 UNL     1     -34.541 -54.918  64.714  1.00  0.00     0.069 C
HETATM   17  N3  UNL     1     -33.482 -54.460  64.885  1.00  0.00    -0.197 NA
HETATM   18  C15 UNL     1     -37.841 -55.046  66.034  1.00  0.00     0.165 C
BRANCH  13  19
HETATM   19  O1  UNL     1     -34.497 -57.291  63.955  1.00  0.00    -0.387 OA
ATOM     20  H1  UNL     1     -33.930 -56.942  63.277  1.00  0.00     0.210 HD
ENDBRANCH  13  19
ENDBRANCH   6   7
ENDBRANCH   5   6
ENDBRANCH   3   4
TORSDOF 4
ENDMDL