MODEL 3
REMARK VINA RESULT: -5.762598559      1.165      1.372
REMARK  4 active torsions:
REMARK  status: ('A' for Active; 'I' for Inactive)
REMARK    1  A    between atoms: C4_5  and  N2_6
REMARK    2  A    between atoms: N2_6  and  C5_8
REMARK    3  A    between atoms: C5_8  and  C7_11
REMARK    4  A    between atoms: C8_12  and  C9_13
ROOT
HETATM    1  C5  UNL     1     -37.540 -56.650  65.871  1.00  0.00     0.266 C
HETATM    2  C6  UNL     1     -37.176 -57.346  67.167  1.00  0.00     0.097 C
HETATM    3  N3  UNL     1     -36.884 -57.889  68.131  1.00  0.00    -0.194 NA
ENDROOT
BRANCH   1   4
HETATM    4  N2  UNL     1     -37.042 -57.436  64.797  1.00  0.00    -0.391 N
ATOM      5  H2  UNL     1     -37.494 -58.324  64.574  1.00  0.00     0.155 HD
BRANCH   4   6
HETATM    6  C4  UNL     1     -35.952 -57.018  64.044  1.00  0.00     0.108 C
HETATM    7  C3  UNL     1     -35.902 -55.481  64.084  1.00  0.00     0.056 C
HETATM    8  C2  UNL     1     -34.465 -55.210  63.797  1.00  0.00     0.274 C
HETATM    9  N1  UNL     1     -33.806 -56.189  64.616  1.00  0.00     0.086 N
HETATM   10  C1  UNL     1     -33.906 -55.752  66.006  1.00  0.00     0.310 C
HETATM   11  C15 UNL     1     -34.601 -57.400  64.500  1.00  0.00     0.296 C
ENDBRANCH   4   6
ENDBRANCH   1   4
BRANCH   1  12
HETATM   12  C7  UNL     1     -39.024 -56.794  65.786  1.00  0.00    -0.064 C
HETATM   13  C8  UNL     1     -40.217 -56.892  65.663  1.00  0.00    -0.067 C
BRANCH  13  14
HETATM   14  C9  UNL     1     -41.635 -57.009  65.450  1.00  0.00     0.300 C
HETATM   15  C10 UNL     1     -42.140 -56.222  64.320  1.00  0.00     0.049 C
HETATM   16  C11 UNL     1     -43.654 -56.402  64.198  1.00  0.00     0.005 C
HETATM   17  C12 UNL     1     -44.388 -56.286  65.485  1.00  0.00     0.030 C
HETATM   18  C13 UNL     1     -43.661 -56.778  66.704  1.00  0.00     0.273 C
HETATM   19  N4  UNL     1     -42.270 -56.526  66.688  1.00  0.00     0.100 N
HETATM   20  C14 UNL     1     -41.611 -57.254  67.756  1.00  0.00     0.311 C
ENDBRANCH  13  14
ENDBRANCH   1  12
TORSDOF 4
ENDMDL