MODEL 1
REMARK VINA RESULT: -5.633913489      0.000      0.000
REMARK  1 active torsions:
REMARK  status: ('A' for Active; 'I' for Inactive)
REMARK    1  A    between atoms: C9_11  and  O1_12
ROOT
HETATM    1  C1  UNL     1     -38.769 -53.486  65.758  1.00  0.00     0.144 C
HETATM    2  N1  UNL     1     -38.880 -54.708  66.496  1.00  0.00    -0.404 N
HETATM    3  C2  UNL     1     -38.188 -55.780  66.007  1.00  0.00     0.120 C
HETATM    4  C3  UNL     1     -37.155 -56.215  67.064  1.00  0.00     0.149 C
HETATM    5  N2  UNL     1     -38.172 -57.108  67.504  1.00  0.00    -0.384 N
HETATM    6  C4  UNL     1     -38.481 -57.242  68.810  1.00  0.00     0.064 C
HETATM    7  C5  UNL     1     -39.883 -56.843  68.963  1.00  0.00     0.038 A
HETATM    8  C6  UNL     1     -39.706 -55.465  68.719  1.00  0.00     0.026 A
HETATM    9  C7  UNL     1     -39.904 -54.777  67.435  1.00  0.00     0.092 C
HETATM   10  C8  UNL     1     -41.169 -55.262  66.833  1.00  0.00     0.052 C
HETATM   11  C9  UNL     1     -41.902 -55.803  68.021  1.00  0.00     0.069 C
HETATM   12  C10 UNL     1     -42.223 -57.183  67.569  1.00  0.00     0.044 C
HETATM   13  C11 UNL     1     -41.376 -57.651  66.473  1.00  0.00     0.004 A
HETATM   14  C12 UNL     1     -40.135 -57.354  65.842  1.00  0.00     0.024 A
HETATM   15  C13 UNL     1     -38.773 -57.170  66.305  1.00  0.00     0.112 C
HETATM   16  C14 UNL     1     -41.113 -56.293  65.790  1.00  0.00    -0.025 A
HETATM   17  C15 UNL     1     -42.102 -56.097  64.628  1.00  0.00     0.016 C
HETATM   18  C16 UNL     1     -40.897 -55.898  69.188  1.00  0.00     0.036 A
ENDROOT
BRANCH  11  19
HETATM   19  O1  UNL     1     -42.988 -55.047  68.408  1.00  0.00    -0.389 OA
ATOM     20  H1  UNL     1     -42.776 -54.330  68.993  1.00  0.00     0.210 HD
ENDBRANCH  11  19
TORSDOF 1
ENDMDL