MODEL 4
REMARK VINA RESULT: -5.224855191      0.825      1.173
REMARK  3 active torsions:
REMARK  status: ('A' for Active; 'I' for Inactive)
REMARK    1  A    between atoms: C2_2  and  N1_4
REMARK    2  A    between atoms: N1_4  and  C4_6
REMARK    3  A    between atoms: C4_6  and  N2_8
ROOT
HETATM    1  N2  UNL     1     -38.259 -56.700  65.765  1.00  0.00    -0.334 N
HETATM    2  C5  UNL     1     -37.630 -57.781  65.012  1.00  0.00     0.298 C
HETATM    3  O1  UNL     1     -36.930 -57.362  63.910  1.00  0.00    -0.340 OA
HETATM    4  C6  UNL     1     -35.983 -56.406  64.294  1.00  0.00     0.292 C
HETATM    5  O2  UNL     1     -35.050 -56.154  63.303  1.00  0.00    -0.356 OA
HETATM    6  C7  UNL     1     -35.092 -54.858  62.829  1.00  0.00     0.202 C
HETATM    7  C8  UNL     1     -35.076 -53.816  63.909  1.00  0.00     0.142 C
HETATM    8  C9  UNL     1     -33.716 -53.551  64.473  1.00  0.00     0.042 C
HETATM    9  O3  UNL     1     -35.961 -54.085  64.942  1.00  0.00    -0.372 OA
HETATM   10  C10 UNL     1     -36.764 -55.179  64.682  1.00  0.00     0.195 C
HETATM   11  C11 UNL     1     -37.479 -55.518  66.001  1.00  0.00     0.164 C
ENDROOT
BRANCH   1  12
HETATM   12  C4  UNL     1     -39.578 -56.790  66.248  1.00  0.00     0.171 C
HETATM   13  S1  UNL     1     -39.791 -57.763  67.566  1.00  0.00    -0.041 SA
BRANCH  12  14
HETATM   14  N1  UNL     1     -40.682 -56.114  65.681  1.00  0.00    -0.363 N
ATOM     15  H1  UNL     1     -40.567 -55.149  65.368  1.00  0.00     0.162 HD
BRANCH  14  16
HETATM   16  C2  UNL     1     -41.982 -56.758  65.532  1.00  0.00     0.075 C
HETATM   17  C1  UNL     1     -42.593 -56.507  64.193  1.00  0.00     0.032 C
HETATM   18  C3  UNL     1     -42.949 -56.314  66.599  1.00  0.00     0.032 C
ENDBRANCH  14  16
ENDBRANCH  12  14
ENDBRANCH   1  12
TORSDOF 3
ENDMDL