MODEL 3
REMARK VINA RESULT: -4.640892669      0.931      1.520
REMARK  3 active torsions:
REMARK  status: ('A' for Active; 'I' for Inactive)
REMARK    1  A    between atoms: N2_5  and  C4_6
REMARK    2  A    between atoms: C4_6  and  N3_8
REMARK    3  A    between atoms: N3_8  and  N4_10
ROOT
HETATM    1  C4  UNL     1     -38.347 -56.067  66.067  1.00  0.00     0.184 C
HETATM    2  S1  UNL     1     -38.351 -54.828  67.162  1.00  0.00    -0.040 SA
ENDROOT
BRANCH   1   3
HETATM    3  N2  UNL     1     -37.230 -56.142  65.186  1.00  0.00    -0.354 N
HETATM    4  C3  UNL     1     -36.939 -57.411  64.555  1.00  0.00     0.155 C
HETATM    5  C2  UNL     1     -35.510 -57.274  64.014  1.00  0.00     0.291 C
HETATM    6  N1  UNL     1     -34.737 -56.739  65.117  1.00  0.00     0.087 N
HETATM    7  C1  UNL     1     -33.349 -57.092  65.056  1.00  0.00     0.310 C
HETATM    8  C11 UNL     1     -34.940 -55.304  65.144  1.00  0.00     0.291 C
HETATM    9  C10 UNL     1     -36.382 -55.014  64.898  1.00  0.00     0.155 C
ENDBRANCH   1   3
BRANCH   1  10
HETATM   10  N3  UNL     1     -39.395 -57.008  65.999  1.00  0.00    -0.295 N
ATOM     11  H3  UNL     1     -39.126 -57.978  65.831  1.00  0.00     0.183 HD
BRANCH  10  12
HETATM   12  N4  UNL     1     -40.738 -56.759  66.134  1.00  0.00    -0.227 NA
HETATM   13  C5  UNL     1     -41.450 -57.201  64.973  1.00  0.00     0.116 C
HETATM   14  C6  UNL     1     -42.566 -56.240  64.592  1.00  0.00     0.042 C
HETATM   15  C7  UNL     1     -43.634 -56.382  65.655  1.00  0.00     0.169 C
HETATM   16  O1  UNL     1     -43.118 -55.870  66.842  1.00  0.00    -0.390 OA
HETATM   17  C8  UNL     1     -42.685 -56.944  67.609  1.00  0.00     0.183 C
HETATM   18  C9  UNL     1     -41.213 -57.231  67.386  1.00  0.00     0.139 C
ENDBRANCH  10  12
ENDBRANCH   1  10
TORSDOF 3
ENDMDL