MODEL 1
REMARK VINA RESULT: -5.644453006      0.000      0.000
REMARK  3 active torsions:
REMARK  status: ('A' for Active; 'I' for Inactive)
REMARK    1  A    between atoms: C2_2  and  O1_3
REMARK    2  A    between atoms: O1_3  and  C3_4
REMARK    3  A    between atoms: C11_13  and  O3_14
REMARK       I    between atoms: N1_16  and  C12_17
ROOT
HETATM    1  C3  UNL     1     -40.172 -55.828  66.306  1.00  0.00     0.172 C
HETATM    2  C4  UNL     1     -39.344 -54.580  65.974  1.00  0.00     0.051 A
HETATM    3  C5  UNL     1     -37.896 -54.564  66.061  1.00  0.00     0.017 A
HETATM    4  C6  UNL     1     -38.605 -54.226  67.283  1.00  0.00     0.021 A
HETATM    5  C7  UNL     1     -39.203 -55.135  68.256  1.00  0.00     0.127 C
HETATM    6  C8  UNL     1     -38.572 -56.391  68.623  1.00  0.00     0.183 A
HETATM    7  O2  UNL     1     -37.497 -56.948  67.957  1.00  0.00    -0.364 OA
HETATM    8  C9  UNL     1     -38.747 -57.439  67.660  1.00  0.00     0.116 A
HETATM    9  C10 UNL     1     -38.950 -58.858  68.228  1.00  0.00     0.052 C
HETATM   10  C11 UNL     1     -39.402 -57.092  66.370  1.00  0.00     0.211 C
HETATM   11  N1  UNL     1     -40.545 -55.431  67.669  1.00  0.00    -0.310 N
HETATM   12  C12 UNL     1     -41.761 -55.261  68.340  1.00  0.00     0.218 C
HETATM   13  C13 UNL     1     -41.707 -54.881  69.790  1.00  0.00     0.117 C
HETATM   14  O4  UNL     1     -42.883 -55.389  67.871  1.00  0.00    -0.274 OA
ENDROOT
BRANCH   1  15
HETATM   15  O1  UNL     1     -41.174 -55.823  65.390  1.00  0.00    -0.358 OA
BRANCH  15  16
HETATM   16  C2  UNL     1     -41.864 -56.890  65.029  1.00  0.00     0.166 C
HETATM   17  C1  UNL     1     -42.924 -56.419  64.002  1.00  0.00     0.033 C
ENDBRANCH  15  16
ENDBRANCH   1  15
BRANCH  10  18
HETATM   18  O3  UNL     1     -38.576 -57.314  65.240  1.00  0.00    -0.387 OA
ATOM     19  H3  UNL     1     -37.835 -57.882  65.415  1.00  0.00     0.210 HD
ENDBRANCH  10  18
TORSDOF 3
ENDMDL