MODEL 1
REMARK VINA RESULT: -4.729488814      0.000      0.000
REMARK  2 active torsions:
REMARK  status: ('A' for Active; 'I' for Inactive)
REMARK    1  A    between atoms: C1_2  and  C2_3
REMARK    2  A    between atoms: C6_7  and  N1_8
ROOT
HETATM    1  C2  UNL     1     -39.327 -56.961  69.474  1.00  0.00     0.240 C
HETATM    2  C3  UNL     1     -40.535 -57.660  68.813  1.00  0.00     0.062 A
HETATM    3  C4  UNL     1     -39.522 -57.318  67.689  1.00  0.00     0.237 A
HETATM    4  C5  UNL     1     -40.762 -57.844  67.372  1.00  0.00     0.058 A
HETATM    5  C6  UNL     1     -41.482 -56.782  66.520  1.00  0.00     0.096 C
HETATM    6  C7  UNL     1     -42.934 -56.664  66.944  1.00  0.00     0.199 C
HETATM    7  O1  UNL     1     -42.591 -55.501  67.634  1.00  0.00    -0.380 OA
HETATM    8  C8  UNL     1     -41.316 -55.416  67.025  1.00  0.00     0.177 C
HETATM    9  C9  UNL     1     -40.266 -55.122  68.046  1.00  0.00     0.307 C
HETATM   10  N2  UNL     1     -39.337 -56.087  68.384  1.00  0.00     0.102 N
ENDROOT
BRANCH   1  11
HETATM   11  C1  UNL     1     -39.472 -56.593  70.867  1.00  0.00     0.122 C
HETATM   12  S1  UNL     1     -38.931 -57.722  72.133  1.00  0.00    -0.095 SA
ENDBRANCH   1  11
BRANCH   5  13
HETATM   13  N1  UNL     1     -41.372 -57.020  65.117  1.00  0.00    -0.154 NA
HETATM   14 BR1  UNL     1     -42.889 -56.427  64.199  1.00  0.00     0.030 Br
ENDBRANCH   5  13
TORSDOF 2
ENDMDL