MODEL 1
REMARK VINA RESULT: -5.032426248      0.000      0.000
REMARK  1 active torsions:
REMARK  status: ('A' for Active; 'I' for Inactive)
REMARK    1  A    between atoms: C2_2  and  N2_5
REMARK       I    between atoms: N2_5  and  C4_7
REMARK       I    between atoms: C4_7  and  N3_9
ROOT
HETATM    1  C1  UNL     1     -42.901 -56.294  67.089  1.00  0.00     0.048 C
HETATM    2  C2  UNL     1     -41.983 -56.806  65.994  1.00  0.00     0.189 C
HETATM    3  C3  UNL     1     -42.592 -56.524  64.673  1.00  0.00     0.084 C
HETATM    4  N1  UNL     1     -43.085 -56.311  63.649  1.00  0.00    -0.195 NA
ENDROOT
BRANCH   2   5
HETATM    5  N2  UNL     1     -40.735 -56.099  66.037  1.00  0.00    -0.326 N
HETATM    6  C4  UNL     1     -39.534 -56.758  65.670  1.00  0.00     0.319 C
HETATM    7  O1  UNL     1     -39.592 -57.961  65.311  1.00  0.00    -0.247 OA
HETATM    8  N3  UNL     1     -38.268 -56.100  65.695  1.00  0.00    -0.333 N
HETATM    9  C5  UNL     1     -38.089 -54.728  66.089  1.00  0.00     0.129 C
HETATM   10  C13 UNL     1     -37.004 -56.705  65.336  1.00  0.00     0.144 C
HETATM   11  C6  UNL     1     -36.784 -54.369  65.375  1.00  0.00     0.038 C
HETATM   12  C7  UNL     1     -35.982 -55.617  65.573  1.00  0.00     0.031 C
HETATM   13  C8  UNL     1     -35.385 -55.697  66.961  1.00  0.00     0.184 C
HETATM   14  C12 UNL     1     -34.825 -55.719  64.594  1.00  0.00     0.076 C
HETATM   15  O2  UNL     1     -34.707 -54.536  67.225  1.00  0.00    -0.385 OA
HETATM   16  C9  UNL     1     -33.545 -54.355  66.538  1.00  0.00     0.212 C
HETATM   17  C10 UNL     1     -32.896 -55.613  66.044  1.00  0.00     0.088 C
HETATM   18  N4  UNL     1     -33.723 -56.342  65.194  1.00  0.00    -0.375 N
HETATM   19  C11 UNL     1     -33.441 -57.676  64.914  1.00  0.00     0.154 C
ATOM     20  H2  UNL     1     -40.712 -55.123  66.332  1.00  0.00     0.165 HD
ENDBRANCH   2   5
TORSDOF 1
ENDMDL