MODEL 4
REMARK VINA RESULT: -5.766062869      7.845      9.352
REMARK  3 active torsions:
REMARK  status: ('A' for Active; 'I' for Inactive)
REMARK    1  A    between atoms: O1_1  and  C1_3
REMARK    2  A    between atoms: C1_3  and  C2_4
REMARK    3  A    between atoms: C2_4  and  N1_5
ROOT
HETATM    1  N1  UNL     1      14.522  15.752  48.496  1.00  0.00    -0.348 N
HETATM    2  C3  UNL     1      13.433  15.798  47.606  1.00  0.00     0.098 C
HETATM    3  C4  UNL     1      12.168  15.243  48.203  1.00  0.00     0.318 C
HETATM    4  N2  UNL     1      12.305  14.024  48.903  1.00  0.00     0.102 N
HETATM    5  C5  UNL     1      11.386  13.839  49.995  1.00  0.00     0.273 C
HETATM    6  C6  UNL     1      11.950  12.576  50.644  1.00  0.00     0.033 C
HETATM    7  C7  UNL     1      13.442  12.936  50.637  1.00  0.00     0.043 C
HETATM    8  C8  UNL     1      13.598  13.618  49.294  1.00  0.00     0.262 C
HETATM    9  C9  UNL     1      14.598  14.732  49.452  1.00  0.00     0.103 C
ENDROOT
BRANCH   1  10
HETATM   10  C2  UNL     1      15.676  16.466  48.122  1.00  0.00     0.094 C
BRANCH  10  11
HETATM   11  C1  UNL     1      16.778  16.468  49.150  1.00  0.00     0.209 C
BRANCH  11  12
HETATM   12  O1  UNL     1      17.702  15.486  48.743  1.00  0.00    -0.396 OA
ATOM     13  H1  UNL     1      18.553  15.909  48.728  1.00  0.00     0.209 HD
ENDBRANCH  11  12
ENDBRANCH  10  11
ENDBRANCH   1  10
TORSDOF 3
ENDMDL