MODEL 2
REMARK VINA RESULT: -6.118202007      0.482      1.484
REMARK  3 active torsions:
REMARK  status: ('A' for Active; 'I' for Inactive)
REMARK    1  A    between atoms: O1_1  and  C1_3
REMARK    2  A    between atoms: C1_3  and  C2_4
REMARK    3  A    between atoms: N1_7  and  C5_8
ROOT
HETATM    1  C2  UNL     1      12.222  13.046  50.294  1.00  0.00     0.012 C
HETATM    2  C3  UNL     1      12.329  13.368  48.826  1.00  0.00     0.026 C
HETATM    3  C4  UNL     1      12.718  14.848  48.728  1.00  0.00     0.118 C
HETATM    4  N1  UNL     1      13.979  15.000  49.285  1.00  0.00    -0.404 N
HETATM    5  C8  UNL     1      14.566  13.895  49.966  1.00  0.00     0.118 C
HETATM    6  C9  UNL     1      13.592  13.220  50.911  1.00  0.00     0.026 C
ENDROOT
BRANCH   4   7
HETATM    7  C5  UNL     1      14.874  15.988  48.897  1.00  0.00     0.126 C
HETATM    8  C6  UNL     1      14.446  17.091  47.984  1.00  0.00     0.194 C
HETATM    9  O2  UNL     1      15.689  17.008  47.360  1.00  0.00    -0.387 OA
HETATM   10  C7  UNL     1      15.897  15.718  47.847  1.00  0.00     0.194 C
ENDBRANCH   4   7
BRANCH   1  11
HETATM   11  C1  UNL     1      11.794  11.619  50.543  1.00  0.00     0.168 C
BRANCH  11  12
HETATM   12  O1  UNL     1      11.385  10.941  49.419  1.00  0.00    -0.400 OA
ATOM     13  H1  UNL     1      11.637  11.349  48.599  1.00  0.00     0.209 HD
ENDBRANCH  11  12
ENDBRANCH   1  11
TORSDOF 3
ENDMDL