MODEL 2
REMARK VINA RESULT: -5.691143940      7.386      8.460
REMARK  2 active torsions:
REMARK  status: ('A' for Active; 'I' for Inactive)
REMARK    1  A    between atoms: C2_2  and  C3_3
REMARK    2  A    between atoms: C5_6  and  N1_7
ROOT
HETATM    1  N1  UNL     1      18.891  12.636  54.768  1.00  0.00     0.101 N
HETATM    2  C6  UNL     1      18.159  12.659  53.487  1.00  0.00     0.300 C
HETATM    3  C7  UNL     1      16.694  12.439  53.704  1.00  0.00     0.262 C
HETATM    4  N2  UNL     1      16.465  11.044  54.058  1.00  0.00    -0.072 N
ATOM      5  H21 UNL     1      16.118  10.494  53.272  1.00  0.00     0.277 HD
ATOM      6  H22 UNL     1      15.664  10.925  54.678  1.00  0.00     0.277 HD
HETATM    7  C8  UNL     1      17.678  10.503  54.616  1.00  0.00     0.262 C
HETATM    8  C9  UNL     1      18.377  11.549  55.496  1.00  0.00     0.300 C
ENDROOT
BRANCH   1   9
HETATM    9  C5  UNL     1      20.259  12.701  54.452  1.00  0.00     0.279 C
HETATM   10  C3  UNL     1      21.220  13.556  55.153  1.00  0.00     0.179 C
HETATM   11  O1  UNL     1      20.581  14.669  54.609  1.00  0.00    -0.378 OA
HETATM   12  C4  UNL     1      20.453  13.860  53.449  1.00  0.00     0.207 C
BRANCH  10  13
HETATM   13  C2  UNL     1      21.418  13.518  56.578  1.00  0.00    -0.003 C
HETATM   14  C1  UNL     1      22.123  14.450  57.199  1.00  0.00     0.009 C
ENDBRANCH  10  13
ENDBRANCH   1   9
TORSDOF 2
ENDMDL