MODEL 4
REMARK VINA RESULT: -5.919334859      2.221      3.207
REMARK  4 active torsions:
REMARK  status: ('A' for Active; 'I' for Inactive)
REMARK    1  A    between atoms: N1_3  and  O1_4
REMARK    2  A    between atoms: N1_3  and  C3_6
REMARK    3  A    between atoms: C3_6  and  C4_7
REMARK    4  A    between atoms: C8_12  and  O3_13
ROOT
HETATM    1  C1  UNL     1      19.383  12.484  57.170  1.00  0.00     0.125 C
HETATM    2  C2  UNL     1      19.387  12.007  55.952  1.00  0.00    -0.050 C
HETATM    3  N1  UNL     1      19.355  11.554  54.767  1.00  0.00    -0.229 N
ENDROOT
BRANCH   3   4
HETATM    4  O1  UNL     1      20.534  11.101  54.302  1.00  0.00    -0.281 OA
ATOM      5  H1  UNL     1      20.908  11.612  53.594  1.00  0.00     0.245 HD
ENDBRANCH   3   4
BRANCH   3   6
HETATM    6  C3  UNL     1      18.105  11.589  54.107  1.00  0.00     0.172 C
BRANCH   6   7
HETATM    7  C4  UNL     1      17.832  10.233  53.496  1.00  0.00     0.039 C
HETATM    8  C5  UNL     1      16.698   9.522  54.230  1.00  0.00     0.035 C
HETATM    9  C6  UNL     1      16.603   8.161  53.532  1.00  0.00     0.168 C
HETATM   10  O2  UNL     1      16.079   8.388  52.285  1.00  0.00    -0.389 OA
HETATM   11  C7  UNL     1      16.838   9.162  51.456  1.00  0.00     0.199 C
HETATM   12  C8  UNL     1      17.382  10.412  52.078  1.00  0.00     0.147 C
BRANCH  12  13
HETATM   13  O3  UNL     1      16.449  11.451  52.018  1.00  0.00    -0.393 OA
ATOM     14  H3  UNL     1      16.596  11.959  51.228  1.00  0.00     0.210 HD
ENDBRANCH  12  13
ENDBRANCH   6   7
ENDBRANCH   3   6
TORSDOF 4
ENDMDL