MODEL 3
REMARK VINA RESULT: -6.161112008      1.755      1.990
REMARK  4 active torsions:
REMARK  status: ('A' for Active; 'I' for Inactive)
REMARK    1  A    between atoms: N1_1  and  N2_4
REMARK    2  A    between atoms: N3_6  and  C1_8
REMARK    3  A    between atoms: C1_8  and  C2_9
REMARK    4  A    between atoms: C2_9  and  O1_10
ROOT
HETATM    1  C2  UNL     1      17.998  10.745  53.554  1.00  0.00     0.087 C
HETATM    2  C3  UNL     1      18.929  10.754  54.707  1.00  0.00     0.068 C
HETATM    3  C4  UNL     1      19.959  11.837  54.692  1.00  0.00     0.188 C
HETATM    4  O2  UNL     1      19.482  13.105  54.601  1.00  0.00    -0.320 OA
HETATM    5  S1  UNL     1      18.303  13.364  53.419  1.00  0.00    -0.009 SA
HETATM    6  C5  UNL     1      17.099  11.990  53.596  1.00  0.00     0.144 C
ENDROOT
BRANCH   1   7
HETATM    7  C1  UNL     1      17.063   9.566  53.698  1.00  0.00     0.179 C
BRANCH   7   8
HETATM    8  N3  UNL     1      16.939   8.997  52.374  1.00  0.00    -0.320 N
HETATM    9  N2  UNL     1      17.683   8.072  52.062  1.00  0.00    -0.254 N
ATOM     10  H2  UNL     1      17.649   7.478  52.889  1.00  0.00     0.207 HD
ATOM     11  H3  UNL     1      16.247   9.356  51.715  1.00  0.00     0.181 HD
BRANCH   9  12
HETATM   12  N1  UNL     1      18.457   7.441  51.315  1.00  0.00    -0.331 N
ATOM     13  H12 UNL     1      19.010   6.950  52.018  1.00  0.00     0.178 HD
ATOM     14  H11 UNL     1      18.845   7.142  50.421  1.00  0.00     0.178 HD
ENDBRANCH   9  12
ENDBRANCH   7   8
ENDBRANCH   1   7
BRANCH   1  15
HETATM   15  O1  UNL     1      18.659  10.704  52.349  1.00  0.00    -0.387 OA
ATOM     16  H1  UNL     1      18.182  11.187  51.684  1.00  0.00     0.210 HD
ENDBRANCH   1  15
TORSDOF 4
ENDMDL