MODEL 5
REMARK VINA RESULT: -5.906071162      7.109      7.896
REMARK  2 active torsions:
REMARK  status: ('A' for Active; 'I' for Inactive)
REMARK    1  A    between atoms: C2_3  and  C3_4
REMARK    2  A    between atoms: C3_4  and  N2_5
ROOT
HETATM    1  N1  UNL     1      16.455   7.371  51.770  1.00  0.00    -0.197 NA
HETATM    2  C1  UNL     1      16.747   8.200  52.511  1.00  0.00     0.060 C
HETATM    3  C2  UNL     1      17.106   9.272  53.477  1.00  0.00     0.154 C
ENDROOT
BRANCH   3   4
HETATM    4  C3  UNL     1      17.829  10.355  52.728  1.00  0.00     0.286 C
BRANCH   4   5
HETATM    5  N2  UNL     1      17.988  11.545  53.491  1.00  0.00     0.090 N
HETATM    6  C4  UNL     1      19.315  12.140  53.346  1.00  0.00     0.279 C
HETATM    7  C5  UNL     1      19.227  13.254  54.347  1.00  0.00     0.047 C
HETATM    8  C6  UNL     1      20.559  13.702  54.888  1.00  0.00     0.239 C
HETATM    9  C8  UNL     1      18.562  12.547  55.516  1.00  0.00     0.047 C
HETATM   10  N3  UNL     1      20.653  13.270  56.265  1.00  0.00    -0.074 N
HETATM   11  C7  UNL     1      19.691  12.222  56.451  1.00  0.00     0.239 C
ATOM     12  H32 UNL     1      21.597  12.996  56.533  1.00  0.00     0.277 HD
ATOM     13  H31 UNL     1      20.542  14.035  56.931  1.00  0.00     0.277 HD
HETATM   14  C9  UNL     1      17.953  11.292  54.910  1.00  0.00     0.279 C
ENDBRANCH   4   5
ENDBRANCH   3   4
TORSDOF 2
ENDMDL