MODEL 5
REMARK VINA RESULT: -6.354775881      2.142      2.625
REMARK  5 active torsions:
REMARK  status: ('A' for Active; 'I' for Inactive)
REMARK    1  A    between atoms: C2_2  and  C3_3
REMARK    2  A    between atoms: C4_4  and  C5_5
REMARK    3  A    between atoms: C6_6  and  C7_7
REMARK    4  A    between atoms: C8_11  and  C9_12
REMARK    5  A    between atoms: C9_12  and  O1_13
ROOT
HETATM    1  C7  UNL     1      16.300  12.675  52.535  1.00  0.00     0.350 C
HETATM    2  N1  UNL     1      16.008  12.713  53.955  1.00  0.00    -0.017 N
ATOM      3  H11 UNL     1      15.063  12.828  54.321  1.00  0.00     0.283 HD
ATOM      4  H12 UNL     1      16.273  13.497  54.552  1.00  0.00     0.283 HD
HETATM    5  C8  UNL     1      16.707  11.444  53.975  1.00  0.00     0.350 C
HETATM    6  O2  UNL     1      16.435  11.304  52.628  1.00  0.00    -0.321 OA
ENDROOT
BRANCH   1   7
HETATM    7  C6  UNL     1      15.151  13.076  51.677  1.00  0.00     0.042 C
HETATM    8  C5  UNL     1      15.294  13.902  50.659  1.00  0.00     0.064 C
BRANCH   8   9
HETATM    9  C4  UNL     1      14.135  14.238  49.881  1.00  0.00    -0.079 C
HETATM   10  C3  UNL     1      13.169  14.525  49.210  1.00  0.00    -0.102 C
BRANCH  10  11
HETATM   11  C2  UNL     1      12.015  14.890  48.384  1.00  0.00     0.090 C
HETATM   12  C1  UNL     1      12.334  16.157  47.628  1.00  0.00     0.018 C
ENDBRANCH  10  11
ENDBRANCH   8   9
ENDBRANCH   1   7
BRANCH   5  13
HETATM   13  C9  UNL     1      18.190  11.649  54.201  1.00  0.00     0.225 C
BRANCH  13  14
HETATM   14  O1  UNL     1      18.868  10.425  54.123  1.00  0.00    -0.397 OA
ATOM     15  H1  UNL     1      19.806  10.564  54.181  1.00  0.00     0.209 HD
ENDBRANCH  13  14
ENDBRANCH   5  13
TORSDOF 5
ENDMDL