MODEL 3
REMARK VINA RESULT: -5.971520600      5.608      8.037
REMARK  3 active torsions:
REMARK  status: ('A' for Active; 'I' for Inactive)
REMARK    1  A    between atoms: C3_3  and  C5_5
REMARK    2  A    between atoms: C7_8  and  C8_9
REMARK    3  A    between atoms: C8_9  and  O2_10
ROOT
HETATM    1  C1  UNL     1      21.681  14.608  55.897  1.00  0.00     0.097 C
HETATM    2  C2  UNL     1      20.916  13.648  55.956  1.00  0.00    -0.182 C
HETATM    3  C3  UNL     1      20.027  12.498  56.055  1.00  0.00     0.059 C
HETATM    4  C4  UNL     1      19.281  12.493  57.364  1.00  0.00     0.023 C
ENDROOT
BRANCH   3   5
HETATM    5  C5  UNL     1      19.202  12.320  54.859  1.00  0.00     0.087 C
HETATM    6  C6  UNL     1      19.551  11.307  53.823  1.00  0.00     0.268 C
HETATM    7  O1  UNL     1      18.517  11.427  52.878  1.00  0.00    -0.351 OA
HETATM    8  O3  UNL     1      19.118  10.337  54.725  1.00  0.00    -0.352 OA
HETATM    9  C7  UNL     1      17.389  11.281  53.723  1.00  0.00     0.177 C
HETATM   10  C9  UNL     1      18.122  11.289  55.039  1.00  0.00     0.165 C
BRANCH   9  11
HETATM   11  C8  UNL     1      16.432  12.427  53.566  1.00  0.00     0.198 C
BRANCH  11  12
HETATM   12  O2  UNL     1      15.974  12.386  52.228  1.00  0.00    -0.398 OA
ATOM     13  H2  UNL     1      15.965  11.471  51.974  1.00  0.00     0.209 HD
ENDBRANCH  11  12
ENDBRANCH   9  11
ENDBRANCH   3   5
TORSDOF 3
ENDMDL