MODEL 2
REMARK VINA RESULT: -5.297345630      1.548      3.407
REMARK  2 active torsions:
REMARK  status: ('A' for Active; 'I' for Inactive)
REMARK    1  A    between atoms: C3_5  and  C4_6
REMARK    2  A    between atoms: C4_6  and  O2_7
ROOT
HETATM    1  C1  UNL     1      17.730  10.550  53.225  1.00  0.00     0.357 C
HETATM    2  N1  UNL     1      18.672  11.273  54.056  1.00  0.00     0.017 N
HETATM    3  O1  UNL     1      19.351  10.324  54.780  1.00  0.00    -0.064 OA
HETATM    4  C2  UNL     1      19.679  11.949  53.260  1.00  0.00     0.352 C
HETATM    5  C3  UNL     1      20.068  13.093  54.176  1.00  0.00     0.116 C
HETATM    6  C5  UNL     1      18.660  13.605  54.509  1.00  0.00     0.085 C
HETATM    7  C6  UNL     1      18.046  12.251  54.898  1.00  0.00     0.259 C
HETATM    8  C7  UNL     1      18.600  12.027  56.313  1.00  0.00     0.068 C
HETATM    9  C8  UNL     1      20.000  12.512  56.420  1.00  0.00     0.171 C
HETATM   10  O3  UNL     1      20.706  12.571  55.254  1.00  0.00    -0.376 OA
ENDROOT
BRANCH   5  11
HETATM   11  C4  UNL     1      20.821  14.180  53.466  1.00  0.00     0.204 C
BRANCH  11  12
HETATM   12  O2  UNL     1      21.130  15.213  54.331  1.00  0.00    -0.398 OA
ATOM     13  H2  UNL     1      21.827  14.962  54.925  1.00  0.00     0.209 HD
ENDBRANCH  11  12
ENDBRANCH   5  11
TORSDOF 2
ENDMDL