MODEL 1
REMARK VINA RESULT: -5.869947627      0.000      0.000
REMARK  3 active torsions:
REMARK  status: ('A' for Active; 'I' for Inactive)
REMARK    1  A    between atoms: C1_2  and  C2_3
REMARK    2  A    between atoms: C5_6  and  C6_7
REMARK    3  A    between atoms: C6_7  and  O2_8
ROOT
HETATM    1  C2  UNL     1      19.456  12.091  55.752  1.00  0.00     0.119 A
HETATM    2  C3  UNL     1      18.622  10.799  55.771  1.00  0.00     0.054 A
HETATM    3  C4  UNL     1      18.051  12.063  55.303  1.00  0.00     0.041 A
HETATM    4  C5  UNL     1      17.928  12.435  53.864  1.00  0.00    -0.007 C
HETATM    5  C7  UNL     1      18.889  11.704  52.970  1.00  0.00     0.044 C
HETATM    6  C8  UNL     1      19.964  12.633  53.551  1.00  0.00     0.124 C
HETATM    7  C9  UNL     1      18.830  13.661  53.666  1.00  0.00     0.044 C
HETATM    8  O3  UNL     1      20.403  12.208  54.768  1.00  0.00    -0.367 OA
ENDROOT
BRANCH   4   9
HETATM    9  C6  UNL     1      16.535  12.599  53.335  1.00  0.00     0.174 C
BRANCH   9  10
HETATM   10  O2  UNL     1      16.391  11.722  52.263  1.00  0.00    -0.400 OA
ATOM     11  H2  UNL     1      16.197  12.243  51.493  1.00  0.00     0.209 HD
ENDBRANCH   9  10
ENDBRANCH   4   9
BRANCH   1  12
HETATM   12  C1  UNL     1      19.821  12.548  57.117  1.00  0.00     0.269 C
HETATM   13  O1  UNL     1      20.994  12.770  57.356  1.00  0.00    -0.304 OA
ENDBRANCH   1  12
TORSDOF 3
ENDMDL