MODEL 1
REMARK VINA RESULT: -6.766688417      0.000      0.000
REMARK  14 active torsions:
REMARK  status: ('A' for Active; 'I' for Inactive)
REMARK    1  A    between atoms: C2_2  and  C4_4
REMARK    2  A    between atoms: C7_7  and  C8_8
REMARK    3  A    between atoms: C8_8  and  O1_9
REMARK    4  A    between atoms: C10_13  and  O2_14
REMARK    5  A    between atoms: C13_18  and  O3_19
REMARK    6  A    between atoms: C17_25  and  C18_26
REMARK    7  A    between atoms: C18_26  and  O6_28
REMARK    8  A    between atoms: C20_30  and  C21_31
REMARK    9  A    between atoms: C21_31  and  C22_32
REMARK   10  A    between atoms: C22_32  and  C24_34
REMARK   11  A    between atoms: C24_34  and  C25_35
REMARK   12  A    between atoms: C25_35  and  C26_36
REMARK   13  A    between atoms: C26_36  and  C27_37
REMARK   14  A    between atoms: C30_40  and  O7_41
ROOT
HETATM    1  C4  UNL     1      -7.688 -17.966  -7.103  1.00  0.00     0.048 C
HETATM    2  C5  UNL     1      -7.818 -17.165  -5.893  1.00  0.00     0.039 C
HETATM    3  C6  UNL     1      -9.044 -17.187  -5.083  1.00  0.00    -0.020 C
HETATM    4  C7  UNL     1     -10.139 -16.433  -5.115  1.00  0.00    -0.043 C
HETATM    5  C9  UNL     1     -10.436 -15.320  -6.076  1.00  0.00     0.126 C
HETATM    6 BR1  UNL     1     -12.111 -14.529  -5.548  1.00  0.00    -0.083 Br
HETATM    7  C10 UNL     1     -10.360 -15.771  -7.506  1.00  0.00     0.106 C
HETATM    8  C11 UNL     1      -9.216 -15.156  -8.131  1.00  0.00     0.051 C
HETATM    9  C12 UNL     1      -8.698 -13.833  -7.525  1.00  0.00     0.016 C
HETATM   10  C13 UNL     1      -8.027 -15.886  -8.579  1.00  0.00     0.154 C
HETATM   11  C14 UNL     1      -7.979 -17.369  -8.458  1.00  0.00     0.159 C
HETATM   12  O4  UNL     1      -8.924 -18.050  -9.103  1.00  0.00    -0.377 OA
HETATM   13  C15 UNL     1      -9.650 -17.797 -10.131  1.00  0.00     0.132 C
HETATM   14  C16 UNL     1      -8.725 -17.923 -11.378  1.00  0.00     0.040 C
HETATM   15  C17 UNL     1     -10.558 -16.711 -10.462  1.00  0.00     0.120 C
HETATM   16  C20 UNL     1     -11.689 -16.233  -9.654  1.00  0.00     0.034 C
HETATM   17  C30 UNL     1     -11.595 -15.528  -8.371  1.00  0.00     0.159 C
ENDROOT
BRANCH  16  18
HETATM   18  C21 UNL     1     -12.318 -15.157 -10.627  1.00  0.00     0.016 C
BRANCH  18  19
HETATM   19  C22 UNL     1     -13.647 -15.433 -11.113  1.00  0.00     0.004 C
HETATM   20  C23 UNL     1     -14.110 -14.502 -12.248  1.00  0.00     0.014 C
BRANCH  19  21
HETATM   21  C24 UNL     1     -14.673 -15.379 -10.054  1.00  0.00    -0.022 C
BRANCH  21  22
HETATM   22  C25 UNL     1     -15.425 -16.545  -9.603  1.00  0.00    -0.003 C
BRANCH  22  23
HETATM   23  C26 UNL     1     -15.001 -17.904  -9.857  1.00  0.00     0.002 C
BRANCH  23  24
HETATM   24  C27 UNL     1     -15.675 -18.603 -10.805  1.00  0.00    -0.088 C
HETATM   25  C28 UNL     1     -15.205 -18.625 -12.219  1.00  0.00     0.043 C
HETATM   26  C29 UNL     1     -16.902 -19.369 -10.473  1.00  0.00     0.043 C
ENDBRANCH  23  24
ENDBRANCH  22  23
ENDBRANCH  21  22
ENDBRANCH  19  21
ENDBRANCH  18  19
ENDBRANCH  16  18
BRANCH  15  27
HETATM   27  C18 UNL     1     -11.241 -17.348 -11.702  1.00  0.00     0.265 C
HETATM   28  O5  UNL     1     -11.939 -18.406 -11.502  1.00  0.00    -0.265 OA
BRANCH  27  29
HETATM   29  O6  UNL     1     -11.161 -16.887 -12.964  1.00  0.00    -0.326 OA
HETATM   30  C19 UNL     1     -12.029 -17.275 -13.988  1.00  0.00     0.213 C
ENDBRANCH  27  29
ENDBRANCH  15  27
BRANCH  17  31
HETATM   31  O7  UNL     1     -12.688 -15.980  -7.643  1.00  0.00    -0.392 OA
ATOM     32  H7  UNL     1     -13.296 -16.355  -8.269  1.00  0.00     0.210 HD
ENDBRANCH  17  31
BRANCH   7  33
HETATM   33  O2  UNL     1     -10.568 -17.097  -7.319  1.00  0.00    -0.385 OA
ATOM     34  H2  UNL     1     -11.037 -17.288  -8.122  1.00  0.00     0.210 HD
ENDBRANCH   7  33
BRANCH   4  35
HETATM   35  C8  UNL     1     -11.211 -16.733  -4.123  1.00  0.00     0.199 C
BRANCH  35  36
HETATM   36  O1  UNL     1     -12.046 -17.796  -4.555  1.00  0.00    -0.397 OA
ATOM     37  H1  UNL     1     -12.202 -17.763  -5.492  1.00  0.00     0.209 HD
ENDBRANCH  35  36
ENDBRANCH   4  35
BRANCH  10  38
HETATM   38  O3  UNL     1      -6.797 -15.379  -8.161  1.00  0.00    -0.393 OA
ATOM     39  H3  UNL     1      -6.145 -16.018  -7.900  1.00  0.00     0.210 HD
ENDBRANCH  10  38
BRANCH   1  40
HETATM   40  C2  UNL     1      -6.342 -18.655  -7.085  1.00  0.00    -0.086 C
HETATM   41  C1  UNL     1      -5.396 -18.148  -6.315  1.00  0.00     0.014 C
HETATM   42  C3  UNL     1      -6.076 -19.858  -7.897  1.00  0.00     0.043 C
ENDBRANCH   1  40
TORSDOF 14
ENDMDL