MODEL 1
REMARK VINA RESULT: -9.454664007      0.000      0.000
REMARK  13 active torsions:
REMARK  status: ('A' for Active; 'I' for Inactive)
REMARK    1  A    between atoms: C4_6  and  C5_7
REMARK    2  A    between atoms: C5_7  and  O1_8
REMARK    3  A    between atoms: C5_7  and  C6_10
REMARK    4  A    between atoms: C6_10  and  C7_11
REMARK    5  A    between atoms: C7_11  and  O2_12
REMARK    6  A    between atoms: C7_11  and  C8_14
REMARK    7  A    between atoms: C8_14  and  C9_15
REMARK    8  A    between atoms: C15_21  and  O3_22
REMARK    9  A    between atoms: C18_27  and  O5_28
REMARK   10  A    between atoms: C18_27  and  N2_30
REMARK   11  A    between atoms: N2_30  and  C19_32
REMARK   12  A    between atoms: C19_32  and  C20_33
REMARK   13  A    between atoms: C20_33  and  C21_34
ROOT
HETATM    1  C9  UNL     1     -11.750 -15.485  -7.398  1.00  0.00    -0.030 C
HETATM    2  C10 UNL     1     -11.624 -16.764  -8.090  1.00  0.00     0.042 C
HETATM    3  C11 UNL     1     -10.421 -16.924  -8.996  1.00  0.00     0.130 C
HETATM    4  C12 UNL     1     -10.733 -16.477 -10.415  1.00  0.00     0.067 C
HETATM    5  C13 UNL     1     -10.471 -15.064 -10.740  1.00  0.00    -0.061 C
HETATM    6  C14 UNL     1      -9.529 -14.372  -9.772  1.00  0.00     0.103 C
HETATM    7  C15 UNL     1      -9.452 -14.979  -8.413  1.00  0.00     0.166 C
HETATM    8  C16 UNL     1     -10.481 -14.626  -7.425  1.00  0.00     0.078 C
HETATM    9  O4  UNL     1      -9.274 -16.348  -8.564  1.00  0.00    -0.349 OA
HETATM   10  C17 UNL     1     -11.603 -14.177 -11.161  1.00  0.00    -0.000 C
HETATM   11  C18 UNL     1     -12.053 -14.415 -12.513  1.00  0.00     0.146 C
HETATM   12  C27 UNL     1     -12.564 -13.711 -10.144  1.00  0.00     0.027 C
HETATM   13  C28 UNL     1     -13.429 -12.619 -10.798  1.00  0.00     0.010 C
HETATM   14  C29 UNL     1     -13.946 -11.764  -9.645  1.00  0.00     0.001 C
HETATM   15  C30 UNL     1     -14.823 -12.692  -8.820  1.00  0.00     0.000 C
HETATM   16  C31 UNL     1     -14.780 -14.098  -9.290  1.00  0.00     0.005 C
HETATM   17  C32 UNL     1     -13.314 -14.659  -9.301  1.00  0.00    -0.005 C
HETATM   18  C33 UNL     1     -12.933 -14.641  -7.881  1.00  0.00     0.015 C
ENDROOT
BRANCH   1  19
HETATM   19  C8  UNL     1     -12.081 -15.621  -5.945  1.00  0.00     0.041 C
BRANCH  19  20
HETATM   20  C7  UNL     1     -11.341 -16.527  -5.045  1.00  0.00     0.121 C
BRANCH  20  21
HETATM   21  C6  UNL     1     -11.047 -15.876  -3.719  1.00  0.00     0.071 C
BRANCH  21  22
HETATM   22  C5  UNL     1     -11.999 -15.914  -2.608  1.00  0.00     0.188 C
BRANCH  22  23
HETATM   23  C4  UNL     1     -12.511 -14.669  -2.016  1.00  0.00     0.110 A
HETATM   24  N1  UNL     1     -12.047 -13.493  -2.501  1.00  0.00    -0.353 N
HETATM   25  C3  UNL     1     -12.515 -12.326  -2.034  1.00  0.00     0.097 A
ATOM     26  H1  UNL     1     -11.334 -13.494  -3.229  1.00  0.00     0.166 HD
HETATM   27  C2  UNL     1     -13.479 -12.302  -1.049  1.00  0.00    -0.031 A
HETATM   28  C1  UNL     1     -14.006 -11.009  -0.524  1.00  0.00     0.051 C
HETATM   29  C34 UNL     1     -13.932 -13.524  -0.575  1.00  0.00     0.097 A
HETATM   30  N3  UNL     1     -13.452 -14.666  -1.055  1.00  0.00    -0.353 N
ATOM     31  H3  UNL     1     -13.801 -15.552  -0.690  1.00  0.00     0.166 HD
ENDBRANCH  22  23
BRANCH  22  32
HETATM   32  O1  UNL     1     -13.212 -16.567  -3.072  1.00  0.00    -0.388 OA
ATOM     33  H1  UNL     1     -13.189 -16.408  -4.008  1.00  0.00     0.210 HD
ENDBRANCH  22  32
ENDBRANCH  21  22
ENDBRANCH  20  21
BRANCH  20  34
HETATM   34  O2  UNL     1     -11.941 -17.721  -4.876  1.00  0.00    -0.395 OA
ATOM     35  H2  UNL     1     -11.363 -18.335  -4.440  1.00  0.00     0.210 HD
ENDBRANCH  20  34
ENDBRANCH  19  20
ENDBRANCH   1  19
BRANCH   7  36
HETATM   36  O3  UNL     1      -8.195 -14.549  -7.884  1.00  0.00    -0.365 OA
ATOM     37  H3  UNL     1      -8.377 -13.719  -7.458  1.00  0.00     0.213 HD
ENDBRANCH   7  36
BRANCH  11  38
HETATM   38  O5  UNL     1     -12.088 -13.390 -13.324  1.00  0.00    -0.346 OA
ATOM     39  H5  UNL     1     -12.399 -13.543 -14.209  1.00  0.00     0.219 HD
ENDBRANCH  11  38
BRANCH  11  40
HETATM   40  N2  UNL     1     -12.486 -15.564 -13.186  1.00  0.00    -0.347 N
ATOM     41  H2  UNL     1     -11.904 -15.872 -13.965  1.00  0.00     0.167 HD
BRANCH  40  42
HETATM   42  C19 UNL     1     -13.627 -16.349 -12.921  1.00  0.00     0.091 C
BRANCH  42  43
HETATM   43  C20 UNL     1     -13.617 -17.578 -12.153  1.00  0.00     0.031 C
BRANCH  43  44
HETATM   44  C21 UNL     1     -14.728 -18.008 -11.344  1.00  0.00     0.004 A
HETATM   45  C22 UNL     1     -14.772 -17.639  -9.982  1.00  0.00     0.014 A
HETATM   46  C23 UNL     1     -15.795 -18.064  -9.175  1.00  0.00     0.001 A
HETATM   47  C24 UNL     1     -16.823 -18.860  -9.642  1.00  0.00     0.003 A
HETATM   48  C25 UNL     1     -16.785 -19.220 -10.961  1.00  0.00     0.043 A
HETATM   49  C26 UNL     1     -15.740 -18.793 -11.812  1.00  0.00     0.126 A
HETATM   50  F1  UNL     1     -15.860 -19.193 -13.105  1.00  0.00    -0.205 F
ENDBRANCH  43  44
ENDBRANCH  42  43
ENDBRANCH  40  42
ENDBRANCH  11  40
TORSDOF 13
ENDMDL