MODEL 1
REMARK VINA RESULT: -8.998981652      0.000      0.000
REMARK  12 active torsions:
REMARK  status: ('A' for Active; 'I' for Inactive)
REMARK    1  A    between atoms: C2_2  and  C4_4
REMARK    2  A    between atoms: C4_4  and  N1_5
REMARK       I    between atoms: N1_5  and  C5_6
REMARK    3  A    between atoms: N1_5  and  C25_37
REMARK    4  A    between atoms: C5_6  and  O2_8
REMARK    5  A    between atoms: O2_8  and  C6_9
REMARK    6  A    between atoms: C10_13  and  N2_14
REMARK       I    between atoms: N2_14  and  C11_16
REMARK    7  A    between atoms: C11_16  and  O4_18
REMARK    8  A    between atoms: O4_18  and  C12_19
REMARK    9  A    between atoms: C16_23  and  N3_24
REMARK       I    between atoms: N3_24  and  C17_26
REMARK   10  A    between atoms: C17_26  and  C18_28
REMARK   11  A    between atoms: C24_34  and  O6_35
REMARK   12  A    between atoms: C28_40  and  C29_41
ROOT
HETATM    1  C6  UNL     1      -7.468 -17.811  -7.265  1.00  0.00     0.156 C
HETATM    2  C7  UNL     1      -6.370 -17.418  -6.270  1.00  0.00     0.035 C
HETATM    3  C8  UNL     1      -5.223 -18.360  -6.549  1.00  0.00     0.005 C
HETATM    4  C9  UNL     1      -5.330 -18.522  -8.073  1.00  0.00     0.028 C
HETATM    5  C10 UNL     1      -6.840 -18.813  -8.166  1.00  0.00     0.116 C
ENDROOT
BRANCH   5   6
HETATM    6  N2  UNL     1      -7.189 -18.676  -9.565  1.00  0.00    -0.330 N
HETATM    7  C11 UNL     1      -7.366 -19.842 -10.381  1.00  0.00     0.361 C
HETATM    8  O3  UNL     1      -7.212 -20.980  -9.866  1.00  0.00    -0.238 OA
ATOM      9  H2  UNL     1      -7.309 -17.748  -9.971  1.00  0.00     0.165 HD
BRANCH   7  10
HETATM   10  O4  UNL     1      -7.700 -19.792 -11.723  1.00  0.00    -0.296 OA
BRANCH  10  11
HETATM   11  C12 UNL     1      -8.622 -18.850 -12.228  1.00  0.00     0.164 C
HETATM   12  C13 UNL     1      -8.799 -18.944 -13.716  1.00  0.00     0.035 C
HETATM   13  C14 UNL     1      -9.357 -17.599 -14.183  1.00  0.00     0.005 C
HETATM   14  C15 UNL     1     -10.522 -17.215 -13.318  1.00  0.00     0.028 C
HETATM   15  C16 UNL     1     -11.027 -18.371 -12.484  1.00  0.00     0.115 C
HETATM   16  C24 UNL     1      -9.960 -18.916 -11.569  1.00  0.00     0.170 C
BRANCH  15  17
HETATM   17  N3  UNL     1     -12.235 -17.988 -11.803  1.00  0.00    -0.354 N
HETATM   18  C17 UNL     1     -13.530 -18.375 -12.257  1.00  0.00     0.222 C
HETATM   19  O5  UNL     1     -13.622 -19.087 -13.306  1.00  0.00    -0.273 OA
ATOM     20  H3  UNL     1     -12.161 -17.417 -10.961  1.00  0.00     0.163 HD
BRANCH  18  21
HETATM   21  C18 UNL     1     -14.772 -17.991 -11.572  1.00  0.00     0.078 C
HETATM   22  C19 UNL     1     -14.537 -16.953 -10.516  1.00  0.00     0.014 C
HETATM   23  C20 UNL     1     -14.755 -17.493  -9.111  1.00  0.00     0.001 C
HETATM   24  C21 UNL     1     -16.170 -17.988  -8.915  1.00  0.00     0.000 C
HETATM   25  C22 UNL     1     -16.621 -18.726 -10.170  1.00  0.00     0.001 C
HETATM   26  C23 UNL     1     -15.402 -19.207 -10.923  1.00  0.00     0.014 C
ENDBRANCH  18  21
ENDBRANCH  15  17
BRANCH  16  27
HETATM   27  O6  UNL     1      -9.979 -18.098 -10.416  1.00  0.00    -0.391 OA
ATOM     28  H6  UNL     1      -9.579 -18.551  -9.683  1.00  0.00     0.210 HD
ENDBRANCH  16  27
ENDBRANCH  10  11
ENDBRANCH   7  10
ENDBRANCH   5   6
BRANCH   1  29
HETATM   29  O2  UNL     1      -8.567 -18.281  -6.516  1.00  0.00    -0.296 OA
BRANCH  29  30
HETATM   30  C5  UNL     1      -9.227 -17.482  -5.584  1.00  0.00     0.368 C
HETATM   31  N1  UNL     1     -10.342 -16.669  -5.847  1.00  0.00    -0.290 N
HETATM   32  O1  UNL     1      -8.748 -17.527  -4.426  1.00  0.00    -0.238 OA
BRANCH  31  33
HETATM   33  C4  UNL     1     -10.832 -16.576  -7.195  1.00  0.00     0.138 C
BRANCH  33  34
HETATM   34  C2  UNL     1     -10.780 -15.238  -7.832  1.00  0.00    -0.004 C
HETATM   35  C1  UNL     1     -11.788 -15.047  -8.943  1.00  0.00     0.011 C
HETATM   36  C3  UNL     1      -9.418 -14.810  -8.313  1.00  0.00     0.011 C
ENDBRANCH  33  34
ENDBRANCH  31  33
BRANCH  31  37
HETATM   37  C25 UNL     1     -10.940 -15.955  -4.800  1.00  0.00     0.078 A
HETATM   38  C26 UNL     1     -12.010 -16.512  -4.132  1.00  0.00     0.034 A
HETATM   39  C27 UNL     1     -12.653 -15.885  -3.096  1.00  0.00     0.017 A
HETATM   40  C28 UNL     1     -12.236 -14.626  -2.672  1.00  0.00     0.008 A
HETATM   41  C30 UNL     1     -11.175 -14.058  -3.323  1.00  0.00     0.059 A
HETATM   42  C31 UNL     1     -10.540 -14.714  -4.369  1.00  0.00     0.144 A
HETATM   43  F1  UNL     1      -9.504 -14.125  -4.985  1.00  0.00    -0.204 F
BRANCH  40  44
HETATM   44  C29 UNL     1     -12.944 -13.979  -1.562  1.00  0.00     0.120 C
HETATM   45  N4  UNL     1     -13.581 -14.687  -0.722  1.00  0.00    -0.387 N
ATOM     46  H42 UNL     1     -13.598 -15.702  -0.822  1.00  0.00     0.157 HD
ATOM     47  H41 UNL     1     -14.073 -14.237   0.050  1.00  0.00     0.157 HD
HETATM   48  N5  UNL     1     -12.922 -12.573  -1.423  1.00  0.00    -0.082 NA
ENDBRANCH  40  44
ENDBRANCH  31  37
ENDBRANCH  29  30
ENDBRANCH   1  29
TORSDOF 12
ENDMDL