MODEL 5
REMARK VINA RESULT: -8.513785597      2.307      6.825
REMARK  11 active torsions:
REMARK  status: ('A' for Active; 'I' for Inactive)
REMARK       I    between atoms: N1_5  and  C5_7
REMARK    1  A    between atoms: C5_7  and  C6_9
REMARK    2  A    between atoms: C6_9  and  N2_10
REMARK    3  A    between atoms: C6_9  and  C24_45
REMARK       I    between atoms: N2_10  and  C7_12
REMARK    4  A    between atoms: C7_12  and  C8_14
REMARK    5  A    between atoms: C8_14  and  C9_15
REMARK    6  A    between atoms: C8_14  and  C13_19
REMARK    7  A    between atoms: C9_15  and  C10_16
REMARK    8  A    between atoms: C14_23  and  C15_24
REMARK    9  A    between atoms: C18_28  and  C19_29
REMARK   10  A    between atoms: N5_35  and  C23_37
REMARK   11  A    between atoms: C23_37  and  O3_41
ROOT
HETATM    1  C8  UNL     1      -6.677 -18.291 -10.766  1.00  0.00     0.168 C
ENDROOT
BRANCH   1   2
HETATM    2  C7  UNL     1      -6.935 -18.453  -9.349  1.00  0.00     0.233 C
HETATM    3  N2  UNL     1      -6.984 -17.392  -8.419  1.00  0.00    -0.346 N
ATOM      4  H2  UNL     1      -6.869 -16.440  -8.766  1.00  0.00     0.163 HD
HETATM    5  O2  UNL     1      -7.114 -19.651  -8.931  1.00  0.00    -0.272 OA
BRANCH   3   6
HETATM    6  C6  UNL     1      -7.188 -17.582  -7.003  1.00  0.00     0.181 C
BRANCH   6   7
HETATM    7  C5  UNL     1      -8.261 -16.777  -6.395  1.00  0.00     0.246 C
HETATM    8  N1  UNL     1      -9.035 -17.201  -5.312  1.00  0.00    -0.310 N
HETATM    9  C4  UNL     1      -9.799 -16.539  -4.560  1.00  0.00     0.130 A
ATOM     10  H1  UNL     1      -8.972 -18.196  -5.098  1.00  0.00     0.170 HD
HETATM   11  C3  UNL     1     -10.158 -15.210  -4.511  1.00  0.00     0.084 A
HETATM   12  N8  UNL     1     -10.481 -17.126  -3.530  1.00  0.00    -0.245 N
HETATM   13  C2  UNL     1     -11.041 -15.041  -3.457  1.00  0.00     0.076 A
HETATM   14  C1  UNL     1     -11.713 -13.813  -2.991  1.00  0.00     0.079 C
HETATM   15  O4  UNL     1     -11.184 -16.228  -2.921  1.00  0.00    -0.241 OA
ATOM     16  H8  UNL     1     -10.441 -18.115  -3.282  1.00  0.00     0.196 HD
HETATM   17  O1  UNL     1      -8.510 -15.644  -6.862  1.00  0.00    -0.271 OA
ENDBRANCH   6   7
BRANCH   6  18
HETATM   18  C24 UNL     1      -5.925 -17.573  -6.213  1.00  0.00     0.018 C
HETATM   19  C25 UNL     1      -5.494 -18.963  -5.916  1.00  0.00     0.007 C
HETATM   20  C26 UNL     1      -3.965 -19.123  -6.047  1.00  0.00     0.000 C
HETATM   21  C27 UNL     1      -3.385 -17.999  -5.237  1.00  0.00     0.000 C
HETATM   22  C28 UNL     1      -3.563 -16.738  -6.042  1.00  0.00     0.000 C
HETATM   23  C29 UNL     1      -4.860 -16.686  -6.789  1.00  0.00     0.007 C
ENDBRANCH   6  18
ENDBRANCH   3   6
ENDBRANCH   1   2
BRANCH   1  24
HETATM   24  C9  UNL     1      -5.548 -17.575 -11.328  1.00  0.00    -0.003 C
BRANCH  24  25
HETATM   25  C10 UNL     1      -4.692 -16.650 -10.581  1.00  0.00    -0.090 C
HETATM   26  C11 UNL     1      -5.141 -15.209 -10.533  1.00  0.00     0.042 C
HETATM   27  C12 UNL     1      -3.252 -16.832 -10.791  1.00  0.00     0.042 C
ENDBRANCH  24  25
ENDBRANCH   1  24
BRANCH   1  28
HETATM   28  C13 UNL     1      -7.947 -17.652 -11.408  1.00  0.00     0.105 A
HETATM   29  N3  UNL     1      -7.787 -16.792 -12.414  1.00  0.00    -0.313 N
HETATM   30  S1  UNL     1      -9.376 -16.355 -12.777  1.00  0.00     0.006 SA
ATOM     31  H3  UNL     1      -6.922 -16.476 -12.853  1.00  0.00     0.175 HD
HETATM   32  C14 UNL     1     -10.177 -17.322 -11.591  1.00  0.00     0.109 A
HETATM   33  N7  UNL     1      -9.138 -17.914 -11.001  1.00  0.00    -0.337 N
ATOM     34  H7  UNL     1      -9.287 -18.569 -10.233  1.00  0.00     0.168 HD
BRANCH  32  35
HETATM   35  C15 UNL     1     -11.601 -17.463 -11.310  1.00  0.00     0.082 A
HETATM   36  C16 UNL     1     -12.463 -17.957 -12.242  1.00  0.00     0.135 A
HETATM   37  F1  UNL     1     -12.070 -18.380 -13.469  1.00  0.00    -0.205 F
HETATM   38  C17 UNL     1     -13.819 -18.043 -11.940  1.00  0.00     0.068 A
HETATM   39  C18 UNL     1     -14.285 -17.628 -10.698  1.00  0.00     0.018 A
HETATM   40  N4  UNL     1     -13.398 -17.156  -9.827  1.00  0.00    -0.345 N
HETATM   41  C22 UNL     1     -12.074 -17.057 -10.088  1.00  0.00     0.124 A
ATOM     42  H4  UNL     1     -13.733 -16.853  -8.914  1.00  0.00     0.167 HD
HETATM   43  N5  UNL     1     -11.301 -16.584  -9.167  1.00  0.00    -0.308 N
ATOM     44  H5  UNL     1     -10.302 -16.511  -9.360  1.00  0.00     0.171 HD
BRANCH  39  45
HETATM   45  C19 UNL     1     -15.713 -17.712 -10.357  1.00  0.00     0.036 A
HETATM   46  C20 UNL     1     -16.096 -18.072  -8.957  1.00  0.00     0.011 A
HETATM   47  C21 UNL     1     -16.345 -19.040 -10.071  1.00  0.00     0.011 A
ENDBRANCH  39  45
BRANCH  43  48
HETATM   48  C23 UNL     1     -11.775 -16.163  -7.909  1.00  0.00     0.216 C
HETATM   49  N6  UNL     1     -11.645 -14.927  -7.568  1.00  0.00    -0.365 N
ATOM     50  H62 UNL     1     -11.197 -14.293  -8.229  1.00  0.00     0.159 HD
ATOM     51  H61 UNL     1     -11.988 -14.623  -6.658  1.00  0.00     0.159 HD
BRANCH  48  52
HETATM   52  O3  UNL     1     -12.386 -17.029  -7.008  1.00  0.00    -0.333 OA
ATOM     53  H3  UNL     1     -12.203 -17.013  -6.076  1.00  0.00     0.220 HD
ENDBRANCH  48  52
ENDBRANCH  43  48
ENDBRANCH  32  35
ENDBRANCH   1  28
TORSDOF 11
ENDMDL