MODEL 3
REMARK VINA RESULT: -7.398815881      2.202      5.505
REMARK  13 active torsions:
REMARK  status: ('A' for Active; 'I' for Inactive)
REMARK    1  A    between atoms: C2_2  and  C5_6
REMARK    2  A    between atoms: C3_3  and  C4_4
REMARK    3  A    between atoms: C5_6  and  C6_7
REMARK    4  A    between atoms: C6_7  and  C7_8
REMARK    5  A    between atoms: C8_9  and  C10_11
REMARK    6  A    between atoms: C10_11  and  C11_12
REMARK    7  A    between atoms: C11_12  and  C12_13
REMARK    8  A    between atoms: C12_13  and  C13_15
REMARK    9  A    between atoms: C13_15  and  C14_17
REMARK   10  A    between atoms: C15_18  and  O3_19
REMARK   11  A    between atoms: C16_21  and  O4_22
REMARK   12  A    between atoms: C20_27  and  O5_28
REMARK   13  A    between atoms: C21_30  and  O6_31
ROOT
HETATM    1  C14 UNL     1      -8.232 -17.405 -10.376  1.00  0.00     0.010 C
HETATM    2  C15 UNL     1      -8.193 -18.617 -11.200  1.00  0.00     0.180 C
HETATM    3  C16 UNL     1      -8.018 -19.899 -10.459  1.00  0.00     0.152 C
HETATM    4  C17 UNL     1      -7.561 -19.731  -9.072  1.00  0.00     0.047 C
HETATM    5  C18 UNL     1      -6.689 -18.530  -8.770  1.00  0.00    -0.005 C
HETATM    6  C19 UNL     1      -5.422 -18.590  -9.677  1.00  0.00     0.019 C
HETATM    7  C20 UNL     1      -6.127 -18.804  -7.450  1.00  0.00     0.155 C
HETATM    8  C21 UNL     1      -6.293 -17.924  -6.298  1.00  0.00     0.148 C
HETATM    9  C22 UNL     1      -7.773 -17.834  -6.031  1.00  0.00     0.040 C
HETATM   10  C23 UNL     1      -8.159 -16.602  -6.720  1.00  0.00     0.005 C
HETATM   11  C24 UNL     1      -8.122 -16.477  -8.158  1.00  0.00     0.003 C
HETATM   12  C25 UNL     1      -7.748 -14.976  -8.289  1.00  0.00     0.033 C
HETATM   13  C26 UNL     1      -8.846 -14.205  -7.582  1.00  0.00    -0.022 C
HETATM   14  C27 UNL     1      -9.603 -14.661  -6.631  1.00  0.00    -0.068 C
HETATM   15  C28 UNL     1     -10.679 -13.863  -5.965  1.00  0.00     0.113 C
HETATM   16  C29 UNL     1     -11.893 -14.753  -5.875  1.00  0.00     0.130 C
HETATM   17  O7  UNL     1     -12.983 -14.196  -5.990  1.00  0.00    -0.298 OA
HETATM   18  C30 UNL     1     -11.789 -16.218  -5.660  1.00  0.00     0.079 C
HETATM   19  C31 UNL     1     -10.696 -16.761  -6.599  1.00  0.00     0.021 C
HETATM   20  C32 UNL     1      -9.434 -16.053  -6.157  1.00  0.00    -0.016 C
HETATM   21  C33 UNL     1      -9.333 -16.027  -4.641  1.00  0.00     0.020 C
HETATM   22  C34 UNL     1      -7.370 -17.271  -9.123  1.00  0.00     0.037 C
ENDROOT
BRANCH   1  23
HETATM   23  C13 UNL     1      -8.321 -16.217 -11.245  1.00  0.00     0.222 C
HETATM   24  O2  UNL     1      -7.329 -15.789 -11.952  1.00  0.00    -0.284 OA
BRANCH  23  25
HETATM   25  C12 UNL     1      -9.468 -15.357 -11.451  1.00  0.00     0.199 C
HETATM   26  O1  UNL     1      -9.268 -14.222 -11.933  1.00  0.00    -0.289 OA
BRANCH  25  27
HETATM   27  C11 UNL     1     -10.875 -15.685 -11.147  1.00  0.00     0.091 C
BRANCH  27  28
HETATM   28  C10 UNL     1     -11.382 -14.664 -10.150  1.00  0.00     0.041 C
BRANCH  28  29
HETATM   29  C8  UNL     1     -12.671 -15.096  -9.513  1.00  0.00    -0.087 C
HETATM   30  C7  UNL     1     -12.794 -16.365  -9.214  1.00  0.00    -0.024 C
HETATM   31  C9  UNL     1     -13.691 -14.060  -9.318  1.00  0.00     0.043 C
BRANCH  30  32
HETATM   32  C6  UNL     1     -13.851 -17.170  -8.657  1.00  0.00     0.031 C
BRANCH  32  33
HETATM   33  C5  UNL     1     -15.143 -17.339  -9.364  1.00  0.00     0.037 C
BRANCH  33  34
HETATM   34  C2  UNL     1     -15.061 -18.028 -10.680  1.00  0.00    -0.086 C
HETATM   35  C1  UNL     1     -15.845 -19.299 -10.813  1.00  0.00     0.043 C
HETATM   36  C3  UNL     1     -14.358 -17.636 -11.724  1.00  0.00    -0.010 C
BRANCH  36  37
HETATM   37  C4  UNL     1     -14.328 -18.407 -12.989  1.00  0.00     0.142 C
HETATM   38 CL1  UNL     1     -12.636 -18.774 -13.416  1.00  0.00    -0.126 Cl
ENDBRANCH  36  37
ENDBRANCH  33  34
ENDBRANCH  32  33
ENDBRANCH  30  32
ENDBRANCH  28  29
ENDBRANCH  27  28
ENDBRANCH  25  27
ENDBRANCH  23  25
ENDBRANCH   1  23
BRANCH   2  39
HETATM   39  O3  UNL     1      -9.413 -18.780 -11.924  1.00  0.00    -0.388 OA
ATOM     40  H3  UNL     1      -9.279 -19.317 -12.696  1.00  0.00     0.210 HD
ENDBRANCH   2  39
BRANCH   3  41
HETATM   41  O4  UNL     1      -7.154 -20.731 -11.151  1.00  0.00    -0.393 OA
ATOM     42  H4  UNL     1      -7.368 -21.639 -10.975  1.00  0.00     0.210 HD
ENDBRANCH   3  41
BRANCH   7  43
HETATM   43  O5  UNL     1      -6.418 -20.127  -6.958  1.00  0.00    -0.392 OA
ATOM     44  H5  UNL     1      -6.680 -20.147  -6.045  1.00  0.00     0.210 HD
ENDBRANCH   7  43
BRANCH   8  45
HETATM   45  O6  UNL     1      -5.647 -18.442  -5.170  1.00  0.00    -0.393 OA
ATOM     46  H6  UNL     1      -4.706 -18.464  -5.294  1.00  0.00     0.210 HD
ENDBRANCH   8  45
TORSDOF 13
ENDMDL