MODEL 5
REMARK VINA RESULT: -7.779209900      4.809      7.524
REMARK  10 active torsions:
REMARK  status: ('A' for Active; 'I' for Inactive)
REMARK    1  A    between atoms: C4_4  and  N1_5
REMARK    2  A    between atoms: N1_5  and  S1_7
REMARK    3  A    between atoms: C7_12  and  C8_13
REMARK    4  A    between atoms: C18_26  and  N3_27
REMARK    5  A    between atoms: N3_27  and  C19_28
REMARK    6  A    between atoms: C22_35  and  C23_36
REMARK    7  A    between atoms: C23_36  and  N6_38
REMARK    8  A    between atoms: N6_38  and  C25_40
REMARK    9  A    between atoms: C25_40  and  C26_41
REMARK   10  A    between atoms: C26_41  and  N7_42
ROOT
HETATM    1  C1  UNL     1     -12.462 -13.283  -5.982  1.00  0.00     0.052 C
HETATM    2  C2  UNL     1     -12.016 -14.471  -6.766  1.00  0.00    -0.018 A
HETATM    3  C3  UNL     1     -11.305 -15.484  -6.215  1.00  0.00     0.040 A
HETATM    4  C4  UNL     1     -10.923 -16.557  -7.014  1.00  0.00     0.043 A
HETATM    5  C6  UNL     1     -11.275 -16.555  -8.313  1.00  0.00     0.047 A
HETATM    6  C7  UNL     1     -12.019 -15.505  -8.929  1.00  0.00     0.034 A
HETATM    7  C18 UNL     1     -12.410 -14.437  -8.150  1.00  0.00     0.129 A
ENDROOT
BRANCH   7   8
HETATM    8  N3  UNL     1     -13.193 -13.465  -8.476  1.00  0.00    -0.370 NA
BRANCH   8   9
HETATM    9  C19 UNL     1     -13.962 -12.600  -8.823  1.00  0.00     0.260 A
HETATM   10  N4  UNL     1     -13.931 -11.808  -9.884  1.00  0.00    -0.313 N
HETATM   11  C20 UNL     1     -15.019 -11.041  -9.894  1.00  0.00     0.078 A
ATOM     12  H4  UNL     1     -13.190 -11.790 -10.585  1.00  0.00     0.170 HD
HETATM   13  C21 UNL     1     -15.508 -10.064 -10.757  1.00  0.00     0.120 A
HETATM   14  C30 UNL     1     -15.775 -11.356  -8.794  1.00  0.00     0.066 A
HETATM   15  N5  UNL     1     -16.697  -9.456 -10.503  1.00  0.00    -0.365 N
HETATM   16  C22 UNL     1     -17.442  -9.748  -9.445  1.00  0.00     0.033 A
ATOM     17  H5  UNL     1     -17.031  -8.745 -11.154  1.00  0.00     0.165 HD
HETATM   18  C29 UNL     1     -16.998 -10.698  -8.573  1.00  0.00     0.059 A
HETATM   19  N8  UNL     1     -15.119 -12.306  -8.150  1.00  0.00    -0.314 N
ATOM     20  H8  UNL     1     -15.426 -12.752  -7.286  1.00  0.00     0.170 HD
BRANCH  16  21
HETATM   21  C23 UNL     1     -18.764  -9.036  -9.286  1.00  0.00     0.126 C
HETATM   22  C24 UNL     1     -19.854 -10.074  -9.291  1.00  0.00     0.039 C
BRANCH  21  23
HETATM   23  N6  UNL     1     -18.774  -8.158  -8.211  1.00  0.00    -0.391 N
ATOM     24  H6  UNL     1     -19.358  -8.350  -7.397  1.00  0.00     0.159 HD
BRANCH  23  25
HETATM   25  C25 UNL     1     -17.979  -7.012  -8.253  1.00  0.00     0.086 C
BRANCH  25  26
HETATM   26  C26 UNL     1     -16.920  -6.784  -7.236  1.00  0.00     0.315 C
BRANCH  26  27
HETATM   27  N7  UNL     1     -15.627  -6.495  -7.918  1.00  0.00     0.084 N
HETATM   28  C27 UNL     1     -14.826  -7.686  -7.785  1.00  0.00     0.309 C
HETATM   29  C28 UNL     1     -15.831  -6.205  -9.302  1.00  0.00     0.309 C
ENDBRANCH  26  27
ENDBRANCH  25  26
ENDBRANCH  23  25
ENDBRANCH  21  23
ENDBRANCH  16  21
ENDBRANCH   8   9
ENDBRANCH   7   8
BRANCH   6  30
HETATM   30  C8  UNL     1     -12.368 -15.778 -10.285  1.00  0.00     0.048 C
HETATM   31  N2  UNL     1     -12.312 -14.825 -11.233  1.00  0.00    -0.389 N
HETATM   32  C9  UNL     1     -12.702 -15.288 -12.549  1.00  0.00     0.120 C
ATOM     33  H2  UNL     1     -12.021 -13.866 -11.043  1.00  0.00     0.159 HD
HETATM   34  C10 UNL     1     -12.036 -16.575 -12.973  1.00  0.00     0.024 C
HETATM   35  C11 UNL     1     -12.315 -17.687 -11.958  1.00  0.00     0.043 C
HETATM   36  C12 UNL     1     -12.980 -16.989 -10.767  1.00  0.00    -0.025 C
HETATM   37  C13 UNL     1     -14.121 -17.409 -10.274  1.00  0.00    -0.038 C
HETATM   38  C14 UNL     1     -14.744 -18.658 -10.775  1.00  0.00     0.038 C
HETATM   39  C17 UNL     1     -14.995 -16.822  -9.266  1.00  0.00     0.200 C
HETATM   40  C15 UNL     1     -15.906 -18.935  -9.902  1.00  0.00     0.007 C
HETATM   41  C16 UNL     1     -16.335 -17.556  -9.409  1.00  0.00     0.042 C
HETATM   42  F1  UNL     1     -15.219 -15.461  -9.518  1.00  0.00    -0.245 F
ENDBRANCH   6  30
BRANCH   4  43
HETATM   43  N1  UNL     1     -10.152 -17.540  -6.345  1.00  0.00    -0.285 N
ATOM     44  H1  UNL     1     -10.629 -18.201  -5.731  1.00  0.00     0.178 HD
BRANCH  43  45
HETATM   45  S1  UNL     1      -8.457 -17.665  -6.524  1.00  0.00     0.227 S
HETATM   46  C5  UNL     1      -8.070 -18.662  -7.932  1.00  0.00     0.186 C
HETATM   47  O1  UNL     1      -7.820 -18.222  -5.271  1.00  0.00    -0.206 OA
HETATM   48  O2  UNL     1      -7.883 -16.265  -6.756  1.00  0.00    -0.206 OA
ENDBRANCH  43  45
ENDBRANCH   4  43
TORSDOF 10
ENDMDL