MODEL 2
REMARK VINA RESULT: -7.953904096      1.355      1.725
REMARK  11 active torsions:
REMARK  status: ('A' for Active; 'I' for Inactive)
REMARK    1  A    between atoms: O1_2  and  C2_3
REMARK    2  A    between atoms: C2_3  and  C3_4
REMARK    3  A    between atoms: C3_4  and  C4_5
REMARK    4  A    between atoms: C4_5  and  N1_6
REMARK       I    between atoms: N1_6  and  C5_8
REMARK    5  A    between atoms: C5_8  and  C6_10
REMARK    6  A    between atoms: C9_13  and  C10_14
REMARK    7  A    between atoms: C10_14  and  C11_16
REMARK    8  A    between atoms: C12_17  and  O4_18
REMARK    9  A    between atoms: C12_17  and  C13_20
REMARK   10  A    between atoms: C13_20  and  O5_23
REMARK   11  A    between atoms: C29_39  and  O7_40
ROOT
HETATM    1  C6  UNL     1     -13.480 -12.006  -9.456  1.00  0.00     0.096 C
HETATM    2  C7  UNL     1     -14.567 -12.857  -8.832  1.00  0.00     0.043 C
HETATM    3  C8  UNL     1     -14.283 -14.223  -9.335  1.00  0.00    -0.010 C
HETATM    4  C9  UNL     1     -13.006 -14.668  -9.292  1.00  0.00     0.014 C
HETATM    5  C16 UNL     1     -11.961 -13.780  -8.678  1.00  0.00    -0.046 C
HETATM    6  C17 UNL     1     -11.609 -14.060  -7.269  1.00  0.00    -0.015 C
HETATM    7  C18 UNL     1     -10.176 -14.542  -7.224  1.00  0.00     0.020 C
HETATM    8  C19 UNL     1     -12.444 -15.106  -6.576  1.00  0.00     0.015 C
HETATM    9  C20 UNL     1     -11.870 -15.459  -5.205  1.00  0.00     0.018 C
HETATM   10  C21 UNL     1     -11.522 -14.324  -4.346  1.00  0.00     0.021 C
HETATM   11  C22 UNL     1     -10.137 -14.277  -3.774  1.00  0.00     0.024 C
HETATM   12  C23 UNL     1     -12.380 -14.194  -3.088  1.00  0.00     0.135 C
HETATM   13  O6  UNL     1     -13.032 -15.058  -2.592  1.00  0.00    -0.297 OA
HETATM   14  C24 UNL     1     -12.157 -12.765  -2.709  1.00  0.00     0.079 C
HETATM   15  C25 UNL     1     -11.591 -12.073  -3.974  1.00  0.00     0.013 C
HETATM   16  C26 UNL     1     -12.017 -13.065  -4.985  1.00  0.00     0.007 C
HETATM   17  C27 UNL     1     -11.824 -12.836  -6.409  1.00  0.00     0.006 C
HETATM   18  C28 UNL     1     -10.864 -11.787  -6.884  1.00  0.00     0.039 C
HETATM   19  C29 UNL     1     -11.400 -11.341  -8.228  1.00  0.00     0.132 C
HETATM   20  C30 UNL     1     -12.063 -12.339  -9.090  1.00  0.00     0.019 C
HETATM   21  C31 UNL     1     -11.309 -12.244 -10.454  1.00  0.00     0.023 C
ENDROOT
BRANCH   4  22
HETATM   22  C10 UNL     1     -12.820 -16.003  -9.812  1.00  0.00     0.184 C
HETATM   23  O3  UNL     1     -11.666 -16.350 -10.175  1.00  0.00    -0.287 OA
BRANCH  22  24
HETATM   24  C11 UNL     1     -13.850 -17.004  -9.951  1.00  0.00     0.092 C
HETATM   25  C12 UNL     1     -14.307 -17.623 -10.989  1.00  0.00     0.100 C
BRANCH  25  26
HETATM   26  O4  UNL     1     -15.368 -18.569 -10.649  1.00  0.00    -0.267 OA
HETATM   27  S1  UNL     1     -16.416 -18.139  -9.314  1.00  0.00     0.099 SA
ENDBRANCH  25  26
BRANCH  25  28
HETATM   28  C13 UNL     1     -14.054 -17.635 -12.408  1.00  0.00     0.100 C
HETATM   29  C14 UNL     1     -15.197 -18.502 -13.025  1.00  0.00     0.053 C
HETATM   30  C15 UNL     1     -12.762 -18.408 -12.741  1.00  0.00     0.053 C
BRANCH  28  31
HETATM   31  O5  UNL     1     -14.026 -16.508 -13.144  1.00  0.00    -0.384 OA
ATOM     32  H5  UNL     1     -14.018 -16.522 -14.094  1.00  0.00     0.211 HD
ENDBRANCH  28  31
ENDBRANCH  25  28
ENDBRANCH  22  24
ENDBRANCH   4  22
BRANCH   1  33
HETATM   33  C5  UNL     1     -13.883 -10.611  -9.316  1.00  0.00     0.223 C
HETATM   34  N1  UNL     1     -14.613 -10.180  -8.198  1.00  0.00    -0.361 N
ATOM     35  H1  UNL     1     -14.844 -10.885  -7.498  1.00  0.00     0.162 HD
HETATM   36  O2  UNL     1     -13.586  -9.778 -10.189  1.00  0.00    -0.273 OA
BRANCH  34  37
HETATM   37  C4  UNL     1     -15.069  -8.833  -7.945  1.00  0.00     0.124 C
BRANCH  37  38
HETATM   38  C3  UNL     1     -16.465  -8.889  -7.386  1.00  0.00     0.046 C
BRANCH  38  39
HETATM   39  C2  UNL     1     -17.401  -9.097  -8.555  1.00  0.00     0.168 C
BRANCH  39  40
HETATM   40  O1  UNL     1     -17.512 -10.434  -8.849  1.00  0.00    -0.396 OA
HETATM   41  C1  UNL     1     -17.576 -10.744 -10.188  1.00  0.00     0.201 C
ENDBRANCH  39  40
ENDBRANCH  38  39
ENDBRANCH  37  38
ENDBRANCH  34  37
ENDBRANCH   1  33
BRANCH  19  42
HETATM   42  O7  UNL     1     -10.343 -10.661  -8.815  1.00  0.00    -0.394 OA
ATOM     43  H7  UNL     1     -10.470  -9.756  -8.557  1.00  0.00     0.210 HD
ENDBRANCH  19  42
TORSDOF 11
ENDMDL