MODEL 1
REMARK VINA RESULT: -7.546961090      0.000      0.000
REMARK  12 active torsions:
REMARK  status: ('A' for Active; 'I' for Inactive)
REMARK    1  A    between atoms: C2_2  and  N1_3
REMARK       I    between atoms: N1_3  and  C3_5
REMARK    2  A    between atoms: C3_5  and  C4_7
REMARK    3  A    between atoms: C4_7  and  C5_8
REMARK    4  A    between atoms: C7_10  and  O2_11
REMARK    5  A    between atoms: O2_11  and  C8_12
REMARK    6  A    between atoms: C15_20  and  C16_21
REMARK    7  A    between atoms: C16_21  and  C17_22
REMARK    8  A    between atoms: C17_22  and  C18_23
REMARK    9  A    between atoms: C18_23  and  C20_25
REMARK   10  A    between atoms: C20_25  and  O4_27
REMARK   11  A    between atoms: C24_31  and  O5_32
REMARK   12  A    between atoms: C33_43  and  O7_44
ROOT
HETATM    1  C8  UNL     1     -10.527 -14.230  -7.790  1.00  0.00     0.150 C
HETATM    2  C9  UNL     1      -9.315 -13.636  -8.542  1.00  0.00     0.040 C
HETATM    3  C10 UNL     1      -8.247 -14.654  -8.584  1.00  0.00     0.046 C
HETATM    4  C11 UNL     1      -7.171 -14.537  -9.585  1.00  0.00     0.103 C
HETATM    5  C12 UNL     1      -7.465 -13.885 -10.887  1.00  0.00     0.052 C
HETATM    6  F1  UNL     1      -6.251 -13.624  -8.995  1.00  0.00    -0.243 F
HETATM    7  C13 UNL     1      -6.348 -15.789  -9.700  1.00  0.00     0.025 C
HETATM    8  C14 UNL     1      -5.650 -15.937  -8.348  1.00  0.00     0.014 C
HETATM    9  C15 UNL     1      -6.944 -17.073 -10.040  1.00  0.00    -0.002 C
HETATM   10  C22 UNL     1      -8.086 -17.251 -10.943  1.00  0.00     0.015 C
HETATM   11  C23 UNL     1      -7.802 -18.001 -12.247  1.00  0.00     0.013 C
HETATM   12  C24 UNL     1      -9.223 -18.118 -10.336  1.00  0.00     0.129 C
HETATM   13  C25 UNL     1     -10.562 -17.774 -10.923  1.00  0.00     0.111 C
HETATM   14  C26 UNL     1     -11.350 -16.790 -10.135  1.00  0.00     0.136 C
HETATM   15  O6  UNL     1     -11.899 -17.173  -9.123  1.00  0.00    -0.297 OA
HETATM   16  C27 UNL     1     -11.460 -15.377 -10.586  1.00  0.00     0.074 C
HETATM   17  C28 UNL     1     -12.138 -15.353 -11.978  1.00  0.00     0.022 C
HETATM   18  C29 UNL     1     -12.165 -14.502  -9.656  1.00  0.00    -0.010 C
HETATM   19  C30 UNL     1     -11.802 -14.011  -8.495  1.00  0.00    -0.058 C
HETATM   20  C31 UNL     1     -12.778 -13.088  -7.766  1.00  0.00     0.046 C
ENDROOT
BRANCH   1  21
HETATM   21  O2  UNL     1     -10.543 -13.723  -6.473  1.00  0.00    -0.376 OA
BRANCH  21  22
HETATM   22  C7  UNL     1      -9.914 -14.519  -5.556  1.00  0.00     0.125 C
HETATM   23  C6  UNL     1     -10.327 -14.048  -4.147  1.00  0.00     0.039 C
HETATM   24  C5  UNL     1     -11.654 -14.727  -3.874  1.00  0.00     0.025 C
HETATM   25  C33 UNL     1     -11.735 -15.898  -4.834  1.00  0.00     0.125 C
HETATM   26  C32 UNL     1     -10.400 -15.964  -5.554  1.00  0.00     0.064 C
BRANCH  24  27
HETATM   27  C4  UNL     1     -11.692 -15.301  -2.463  1.00  0.00     0.110 C
BRANCH  27  28
HETATM   28  C3  UNL     1     -12.817 -14.662  -1.713  1.00  0.00     0.217 C
HETATM   29  N1  UNL     1     -12.768 -13.290  -1.367  1.00  0.00    -0.361 N
ATOM     30  H1  UNL     1     -11.962 -12.721  -1.624  1.00  0.00     0.162 HD
HETATM   31  O1  UNL     1     -13.823 -15.343  -1.382  1.00  0.00    -0.274 OA
BRANCH  29  32
HETATM   32  C2  UNL     1     -13.875 -12.708  -0.645  1.00  0.00     0.118 C
HETATM   33  C1  UNL     1     -13.798 -11.185  -0.664  1.00  0.00     0.026 C
ENDBRANCH  29  32
ENDBRANCH  27  28
ENDBRANCH  24  27
BRANCH  25  34
HETATM   34  O7  UNL     1     -12.751 -15.627  -5.751  1.00  0.00    -0.395 OA
ATOM     35  H7  UNL     1     -13.210 -16.441  -5.923  1.00  0.00     0.210 HD
ENDBRANCH  25  34
ENDBRANCH  21  22
ENDBRANCH   1  21
BRANCH   9  36
HETATM   36  C16 UNL     1      -5.815 -18.075 -10.210  1.00  0.00     0.006 C
BRANCH  36  37
HETATM   37  C17 UNL     1      -5.910 -19.317  -9.422  1.00  0.00     0.014 C
BRANCH  37  38
HETATM   38  C18 UNL     1      -6.161 -19.111  -7.938  1.00  0.00     0.081 C
HETATM   39  C19 UNL     1      -5.024 -19.817  -7.167  1.00  0.00     0.020 C
BRANCH  38  40
HETATM   40  C20 UNL     1      -7.399 -19.686  -7.429  1.00  0.00     0.262 C
HETATM   41  O3  UNL     1      -8.034 -20.620  -8.041  1.00  0.00    -0.265 OA
BRANCH  40  42
HETATM   42  O4  UNL     1      -7.978 -19.271  -6.255  1.00  0.00    -0.326 OA
HETATM   43  C21 UNL     1      -7.706 -17.981  -5.694  1.00  0.00     0.213 C
ENDBRANCH  40  42
ENDBRANCH  38  40
ENDBRANCH  37  38
ENDBRANCH  36  37
ENDBRANCH   9  36
BRANCH  12  44
HETATM   44  O5  UNL     1      -8.900 -19.472 -10.548  1.00  0.00    -0.395 OA
ATOM     45  H5  UNL     1      -8.804 -19.887  -9.699  1.00  0.00     0.210 HD
ENDBRANCH  12  44
TORSDOF 12
ENDMDL