MODEL 3
REMARK VINA RESULT: -8.845469297      2.397      3.084
REMARK  6 active torsions:
REMARK  status: ('A' for Active; 'I' for Inactive)
REMARK    1  A    between atoms: O1_1  and  C1_3
REMARK    2  A    between atoms: C1_3  and  C2_4
REMARK    3  A    between atoms: C1_3  and  C15_18
REMARK    4  A    between atoms: C1_3  and  C19_26
REMARK    5  A    between atoms: C2_4  and  C3_5
REMARK    6  A    between atoms: N1_9  and  C7_10
ROOT
HETATM    1  C1  UNL     1      15.169 227.276  42.134  1.00  0.00     0.136 C
ENDROOT
BRANCH   1   2
HETATM    2  O1  UNL     1      14.552 226.993  43.348  1.00  0.00    -0.378 OA
ATOM      3  H1  UNL     1      13.731 227.448  43.489  1.00  0.00     0.211 HD
ENDBRANCH   1   2
BRANCH   1   4
HETATM    4  C2  UNL     1      16.571 226.856  42.051  1.00  0.00     0.055 C
BRANCH   4   5
HETATM    5  C3  UNL     1      17.026 225.598  42.679  1.00  0.00    -0.009 C
HETATM    6  C4  UNL     1      17.613 224.545  41.814  1.00  0.00     0.006 C
HETATM    7  C5  UNL     1      18.130 223.374  42.624  1.00  0.00     0.031 C
HETATM    8  C6  UNL     1      17.176 223.007  43.723  1.00  0.00     0.273 C
HETATM    9  N1  UNL     1      17.650 223.592  44.939  1.00  0.00     0.093 N
HETATM   10  C13 UNL     1      17.292 224.967  45.077  1.00  0.00     0.273 C
HETATM   11  C14 UNL     1      17.836 225.833  43.945  1.00  0.00     0.035 C
BRANCH   9  12
HETATM   12  C7  UNL     1      17.243 222.858  46.093  1.00  0.00     0.223 C
HETATM   13  C8  UNL     1      17.990 223.333  47.339  1.00  0.00     0.036 C
HETATM   14  C9  UNL     1      17.156 222.885  48.517  1.00  0.00     0.002 C
HETATM   15  C10 UNL     1      16.562 221.515  48.308  1.00  0.00     0.000 C
HETATM   16  C11 UNL     1      17.294 220.690  47.290  1.00  0.00     0.002 C
HETATM   17  C12 UNL     1      17.531 221.381  45.982  1.00  0.00     0.036 C
ENDBRANCH   9  12
ENDBRANCH   4   5
ENDBRANCH   1   4
BRANCH   1  18
HETATM   18  C15 UNL     1      14.909 228.648  41.677  1.00  0.00     0.013 A
HETATM   19  C16 UNL     1      15.589 229.215  40.600  1.00  0.00     0.101 A
HETATM   20  N2  UNL     1      15.366 230.473  40.204  1.00  0.00    -0.361 N
HETATM   21  C17 UNL     1      14.463 231.238  40.846  1.00  0.00     0.180 A
ATOM     22  H2  UNL     1      15.883 230.854  39.412  1.00  0.00     0.166 HD
HETATM   23  N3  UNL     1      13.793 230.726  41.886  1.00  0.00    -0.361 N
HETATM   24  C18 UNL     1      13.988 229.468  42.313  1.00  0.00     0.101 A
ATOM     25  H3  UNL     1      13.110 231.311  42.369  1.00  0.00     0.166 HD
ENDBRANCH   1  18
BRANCH   1  26
HETATM   26  C19 UNL     1      14.406 226.395  41.132  1.00  0.00     0.091 A
HETATM   27  C20 UNL     1      13.179 225.819  41.363  1.00  0.00     0.038 A
HETATM   28  C21 UNL     1      12.852 225.116  40.227  1.00  0.00     0.027 A
HETATM   29  C22 UNL     1      13.893 225.296  39.354  1.00  0.00     0.142 A
HETATM   30  O2  UNL     1      14.790 226.059  39.933  1.00  0.00    -0.324 OA
ENDBRANCH   1  26
TORSDOF 6
ENDMDL