MODEL 4
REMARK VINA RESULT: -8.749466215      0.370      1.560
REMARK  5 active torsions:
REMARK  status: ('A' for Active; 'I' for Inactive)
REMARK    1  A    between atoms: C5_8  and  C6_9
REMARK    2  A    between atoms: C6_9  and  N2_10
REMARK    3  A    between atoms: C8_12  and  C9_13
REMARK    4  A    between atoms: C9_13  and  N3_14
REMARK    5  A    between atoms: N3_14  and  C10_16
ROOT
HETATM    1  N2  UNL     1      18.201 223.809  46.319  1.00  0.00    -0.298 N
HETATM    2  C7  UNL     1      17.826 223.013  45.294  1.00  0.00     0.124 A
HETATM    3  C8  UNL     1      17.603 223.771  44.166  1.00  0.00     0.013 A
HETATM    4  C22 UNL     1      17.860 225.070  44.550  1.00  0.00     0.121 A
HETATM    5  N4  UNL     1      18.211 225.035  45.838  1.00  0.00    -0.309 N
ATOM      6  H4  UNL     1      18.457 225.860  46.386  1.00  0.00     0.186 HD
ENDROOT
BRANCH   3   7
HETATM    7  C9  UNL     1      17.167 223.287  42.808  1.00  0.00     0.097 C
BRANCH   7   8
HETATM    8  N3  UNL     1      17.224 224.316  41.858  1.00  0.00    -0.389 N
ATOM      9  H3  UNL     1      18.067 224.470  41.303  1.00  0.00     0.159 HD
BRANCH   8  10
HETATM   10  C10 UNL     1      16.079 225.138  41.685  1.00  0.00     0.031 C
HETATM   11  C11 UNL     1      16.396 226.613  41.671  1.00  0.00     0.035 C
HETATM   12  C12 UNL     1      15.131 227.423  41.540  1.00  0.00    -0.012 C
HETATM   13  C13 UNL     1      14.487 227.509  42.885  1.00  0.00     0.005 C
HETATM   14  C19 UNL     1      14.232 226.992  40.440  1.00  0.00     0.014 C
HETATM   15  C14 UNL     1      13.390 226.524  43.117  1.00  0.00     0.005 C
HETATM   16  C15 UNL     1      13.712 225.141  42.598  1.00  0.00    -0.012 C
HETATM   17  C16 UNL     1      13.211 224.917  41.195  1.00  0.00     0.014 C
HETATM   18  C21 UNL     1      15.129 224.780  42.809  1.00  0.00     0.035 C
HETATM   19  C17 UNL     1      14.155 225.527  40.196  1.00  0.00    -0.041 C
HETATM   20  C18 UNL     1      13.621 225.238  38.806  1.00  0.00     0.015 C
HETATM   21  C20 UNL     1      15.479 224.817  40.330  1.00  0.00     0.040 C
ENDBRANCH   8  10
ENDBRANCH   7   8
ENDBRANCH   3   7
BRANCH   1  22
HETATM   22  C6  UNL     1      18.517 223.340  47.656  1.00  0.00     0.191 C
BRANCH  22  23
HETATM   23  C5  UNL     1      17.264 223.046  48.391  1.00  0.00     0.017 A
HETATM   24  C2  UNL     1      16.542 221.871  48.335  1.00  0.00     0.039 A
HETATM   25  C1  UNL     1      16.833 220.628  47.551  1.00  0.00     0.071 C
HETATM   26  N1  UNL     1      15.482 222.071  49.165  1.00  0.00    -0.265 N
HETATM   27  O1  UNL     1      15.557 223.262  49.677  1.00  0.00    -0.242 OA
ATOM     28  H1  UNL     1      14.745 221.393  49.355  1.00  0.00     0.194 HD
HETATM   29  C3  UNL     1      16.609 223.914  49.256  1.00  0.00     0.082 A
HETATM   30  C4  UNL     1      17.057 225.295  49.599  1.00  0.00     0.079 C
ENDBRANCH  22  23
ENDBRANCH   1  22
TORSDOF 5
ENDMDL