MODEL 3
REMARK VINA RESULT: -8.463695793      2.732      5.444
REMARK  5 active torsions:
REMARK  status: ('A' for Active; 'I' for Inactive)
REMARK    1  A    between atoms: C5_5  and  N1_6
REMARK    2  A    between atoms: N1_6  and  C6_8
REMARK    3  A    between atoms: C6_8  and  C7_9
REMARK    4  A    between atoms: N2_13  and  C11_14
REMARK    5  A    between atoms: C13_16  and  C14_17
ROOT
HETATM    1  C7  UNL     1      16.373 223.252  48.584  1.00  0.00     0.021 C
HETATM    2  C8  UNL     1      16.174 221.769  48.417  1.00  0.00     0.009 C
HETATM    3  C9  UNL     1      17.292 221.128  47.632  1.00  0.00     0.020 C
HETATM    4  C10 UNL     1      17.597 221.808  46.346  1.00  0.00     0.124 C
HETATM    5  N2  UNL     1      17.649 223.236  46.550  1.00  0.00    -0.367 N
HETATM    6  C21 UNL     1      17.641 223.728  47.909  1.00  0.00     0.130 C
ENDROOT
BRANCH   5   7
HETATM    7  C11 UNL     1      17.709 224.121  45.441  1.00  0.00     0.105 A
HETATM    8  C12 UNL     1      16.814 224.035  44.415  1.00  0.00     0.073 A
HETATM    9  C13 UNL     1      16.884 224.902  43.346  1.00  0.00     0.017 A
HETATM   10  N3  UNL     1      17.875 225.810  43.395  1.00  0.00    -0.355 N
HETATM   11  C20 UNL     1      18.767 225.928  44.372  1.00  0.00     0.182 A
ATOM     12  H3  UNL     1      17.949 226.464  42.615  1.00  0.00     0.166 HD
HETATM   13  N4  UNL     1      18.684 225.076  45.409  1.00  0.00    -0.339 N
ATOM     14  H4  UNL     1      19.354 225.143  46.174  1.00  0.00     0.168 HD
BRANCH   9  15
HETATM   15  C14 UNL     1      15.918 224.804  42.249  1.00  0.00     0.036 C
HETATM   16  C15 UNL     1      14.499 225.088  42.687  1.00  0.00     0.011 C
HETATM   17  C16 UNL     1      14.258 226.549  42.941  1.00  0.00     0.001 C
HETATM   18  C17 UNL     1      14.755 227.429  41.839  1.00  0.00     0.000 C
HETATM   19  C18 UNL     1      16.089 227.048  41.291  1.00  0.00     0.001 C
HETATM   20  C19 UNL     1      16.290 225.594  41.036  1.00  0.00     0.011 C
ENDBRANCH   9  15
ENDBRANCH   5   7
BRANCH   1  21
HETATM   21  C6  UNL     1      16.321 223.646  50.035  1.00  0.00     0.126 C
BRANCH  21  22
HETATM   22  N1  UNL     1      15.574 224.851  50.261  1.00  0.00    -0.388 N
ATOM     23  H1  UNL     1      15.965 225.739  49.947  1.00  0.00     0.159 HD
BRANCH  22  24
HETATM   24  C5  UNL     1      14.313 224.849  50.903  1.00  0.00     0.043 A
HETATM   25  C4  UNL     1      14.095 224.226  52.116  1.00  0.00     0.032 A
HETATM   26  C3  UNL     1      12.840 224.265  52.682  1.00  0.00     0.027 A
HETATM   27  C2  UNL     1      11.773 224.911  52.077  1.00  0.00     0.005 A
HETATM   28  C1  UNL     1      10.416 224.956  52.686  1.00  0.00     0.068 C
HETATM   29  N5  UNL     1      12.036 225.503  50.898  1.00  0.00    -0.367 N
HETATM   30  C22 UNL     1      13.238 225.488  50.317  1.00  0.00     0.117 A
ATOM     31  H5  UNL     1      11.276 225.990  50.423  1.00  0.00     0.165 HD
ENDBRANCH  22  24
ENDBRANCH  21  22
ENDBRANCH   1  21
TORSDOF 5
ENDMDL