MODEL 5
REMARK VINA RESULT: -7.832586713      1.331      3.256
REMARK  5 active torsions:
REMARK  status: ('A' for Active; 'I' for Inactive)
REMARK       I    between atoms: C1_2  and  N1_3
REMARK    1  A    between atoms: C1_2  and  C7_10
REMARK    2  A    between atoms: N1_3  and  C2_5
REMARK    3  A    between atoms: N2_13  and  C10_14
REMARK    4  A    between atoms: C10_14  and  C11_15
REMARK    5  A    between atoms: C10_14  and  C14_21
ROOT
HETATM    1  C7  UNL     1      16.674 224.737  43.784  1.00  0.00     0.107 C
HETATM    2  C8  UNL     1      17.643 225.779  43.293  1.00  0.00     0.046 C
HETATM    3  C9  UNL     1      17.936 225.435  41.849  1.00  0.00     0.275 C
HETATM    4  N2  UNL     1      16.923 224.510  41.442  1.00  0.00     0.104 N
HETATM    5  C18 UNL     1      16.460 223.814  42.601  1.00  0.00     0.287 C
ENDROOT
BRANCH   4   6
HETATM    6  C10 UNL     1      15.870 225.084  40.670  1.00  0.00     0.312 C
BRANCH   6   7
HETATM    7  C11 UNL     1      16.394 225.217  39.257  1.00  0.00     0.054 A
HETATM    8  C12 UNL     1      15.559 225.290  38.175  1.00  0.00     0.078 A
HETATM    9  S1  UNL     1      16.674 225.426  36.887  1.00  0.00    -0.095 SA
HETATM   10  C13 UNL     1      18.116 225.382  37.791  1.00  0.00     0.138 A
HETATM   11  N3  UNL     1      17.680 225.266  39.027  1.00  0.00    -0.361 N
ATOM     12  H3  UNL     1      18.341 225.215  39.801  1.00  0.00     0.165 HD
ENDBRANCH   6   7
BRANCH   6  13
HETATM   13  C14 UNL     1      15.428 226.411  41.196  1.00  0.00     0.021 A
HETATM   14  C15 UNL     1      15.845 227.664  40.833  1.00  0.00     0.017 A
HETATM   15  C16 UNL     1      15.293 228.705  41.457  1.00  0.00     0.008 A
HETATM   16  C17 UNL     1      14.349 228.445  42.415  1.00  0.00     0.050 A
HETATM   17  S2  UNL     1      14.270 226.740  42.406  1.00  0.00    -0.104 SA
ENDBRANCH   6  13
ENDBRANCH   4   6
BRANCH   1  18
HETATM   18  C1  UNL     1      17.293 223.902  44.867  1.00  0.00     0.223 C
HETATM   19  O1  UNL     1      18.297 224.353  45.444  1.00  0.00    -0.273 OA
HETATM   20  N1  UNL     1      16.755 222.642  45.227  1.00  0.00    -0.356 N
ATOM     21  H1  UNL     1      15.930 222.277  44.749  1.00  0.00     0.162 HD
BRANCH  20  22
HETATM   22  C2  UNL     1      17.383 221.882  46.270  1.00  0.00     0.084 C
HETATM   23  C3  UNL     1      16.832 220.466  46.344  1.00  0.00     0.025 C
HETATM   24  C4  UNL     1      17.330 220.047  47.730  1.00  0.00     0.002 C
HETATM   25  C5  UNL     1      16.885 221.253  48.559  1.00  0.00     0.002 C
HETATM   26  C6  UNL     1      17.056 222.422  47.648  1.00  0.00     0.025 C
ENDBRANCH  20  22
ENDBRANCH   1  18
TORSDOF 5
ENDMDL