MODEL 1
REMARK VINA RESULT: -9.992065239      0.000      0.000
REMARK  5 active torsions:
REMARK  status: ('A' for Active; 'I' for Inactive)
REMARK    1  A    between atoms: C4_6  and  C5_7
REMARK    2  A    between atoms: C5_7  and  N2_8
REMARK    3  A    between atoms: N2_8  and  C6_11
REMARK    4  A    between atoms: C9_14  and  C10_15
REMARK    5  A    between atoms: N5_25  and  C16_26
ROOT
HETATM    1  C6  UNL     1      18.386 226.041  44.202  1.00  0.00     0.186 C
HETATM    2  C7  UNL     1      17.034 226.039  43.609  1.00  0.00     0.037 C
HETATM    3  C8  UNL     1      16.975 226.555  42.159  1.00  0.00     0.040 C
HETATM    4  C9  UNL     1      18.031 225.746  41.444  1.00  0.00    -0.035 C
HETATM    5  C20 UNL     1      19.341 226.277  41.852  1.00  0.00     0.040 C
HETATM    6  C21 UNL     1      19.565 225.878  43.319  1.00  0.00     0.037 C
ENDROOT
BRANCH   4   7
HETATM    7  C10 UNL     1      17.753 225.370  40.068  1.00  0.00     0.112 A
HETATM    8  N3  UNL     1      18.728 225.387  39.101  1.00  0.00    -0.326 N
HETATM    9  C11 UNL     1      18.284 224.929  37.943  1.00  0.00     0.134 A
ATOM     10  H3  UNL     1      19.681 225.715  39.258  1.00  0.00     0.169 HD
HETATM   11  N4  UNL     1      18.872 224.744  36.746  1.00  0.00    -0.350 N
HETATM   12  C15 UNL     1      16.963 224.588  38.119  1.00  0.00     0.081 A
HETATM   13  C12 UNL     1      18.216 224.232  35.694  1.00  0.00     0.090 A
ATOM     14  H4  UNL     1      19.852 225.002  36.635  1.00  0.00     0.166 HD
HETATM   15  C13 UNL     1      16.904 223.882  35.839  1.00  0.00     0.019 A
HETATM   16  C14 UNL     1      16.247 224.047  37.041  1.00  0.00     0.035 A
HETATM   17  N5  UNL     1      16.669 224.871  39.417  1.00  0.00    -0.325 N
BRANCH  17  18
HETATM   18  C16 UNL     1      15.401 224.703  40.056  1.00  0.00     0.092 C
HETATM   19  C17 UNL     1      14.439 225.919  39.928  1.00  0.00     0.026 C
HETATM   20  C18 UNL     1      13.269 224.951  39.770  1.00  0.00     0.004 C
HETATM   21  C19 UNL     1      14.339 223.977  39.242  1.00  0.00     0.026 C
ENDBRANCH  17  18
ENDBRANCH   4   7
BRANCH   1  22
HETATM   22  N2  UNL     1      18.470 224.874  45.131  1.00  0.00    -0.067 N
ATOM     23  H22 UNL     1      18.201 225.122  46.083  1.00  0.00     0.277 HD
ATOM     24  H21 UNL     1      19.435 224.599  45.315  1.00  0.00     0.277 HD
BRANCH  22  25
HETATM   25  C5  UNL     1      17.678 223.771  44.611  1.00  0.00     0.272 C
BRANCH  25  26
HETATM   26  C4  UNL     1      17.312 222.879  45.765  1.00  0.00    -0.017 A
HETATM   27  C3  UNL     1      16.537 221.741  45.521  1.00  0.00     0.096 A
HETATM   28  N1  UNL     1      16.173 220.954  46.535  1.00  0.00    -0.375 N
HETATM   29  C2  UNL     1      16.512 221.188  47.818  1.00  0.00     0.087 A
ATOM     30  H1  UNL     1      15.607 220.131  46.328  1.00  0.00     0.164 HD
HETATM   31  C1  UNL     1      17.272 222.295  48.080  1.00  0.00     0.018 A
HETATM   32  C22 UNL     1      17.674 223.144  47.057  1.00  0.00     0.011 A
ENDBRANCH  25  26
ENDBRANCH  22  25
ENDBRANCH   1  22
TORSDOF 5
ENDMDL