MODEL 3
REMARK VINA RESULT: -7.560268012      3.247      7.116
REMARK  7 active torsions:
REMARK  status: ('A' for Active; 'I' for Inactive)
REMARK    1  A    between atoms: C2_2  and  C3_3
REMARK    2  A    between atoms: C3_3  and  O1_4
REMARK    3  A    between atoms: O1_4  and  C4_5
REMARK    4  A    between atoms: C9_11  and  C10_12
REMARK    5  A    between atoms: C10_12  and  C11_13
REMARK    6  A    between atoms: C13_15  and  N1_16
REMARK    7  A    between atoms: C14_20  and  C15_21
ROOT
HETATM    1  C10 UNL     1      19.324 225.909  40.545  1.00  0.00     0.070 C
ENDROOT
BRANCH   1   2
HETATM    2  C9  UNL     1      18.051 225.642  39.778  1.00  0.00     0.052 A
HETATM    3  S1  UNL     1      17.887 225.215  38.131  1.00  0.00    -0.075 SA
HETATM    4  C8  UNL     1      16.167 225.100  38.071  1.00  0.00     0.036 A
HETATM    5  C7  UNL     1      15.211 224.797  37.093  1.00  0.00     0.021 A
HETATM    6  C21 UNL     1      15.829 225.405  39.351  1.00  0.00     0.084 A
HETATM    7  C6  UNL     1      13.877 224.800  37.409  1.00  0.00     0.004 A
HETATM    8  C5  UNL     1      13.546 225.104  38.684  1.00  0.00     0.039 A
HETATM    9  C4  UNL     1      14.448 225.416  39.709  1.00  0.00     0.096 A
HETATM   10  N2  UNL     1      16.806 225.673  40.188  1.00  0.00    -0.351 N
ATOM     11  H2  UNL     1      16.595 225.906  41.158  1.00  0.00     0.166 HD
BRANCH   9  12
HETATM   12  O1  UNL     1      14.025 225.696  40.909  1.00  0.00    -0.349 OA
BRANCH  12  13
HETATM   13  C3  UNL     1      13.604 225.973  42.091  1.00  0.00     0.175 C
BRANCH  13  14
HETATM   14  C2  UNL     1      14.579 226.867  42.903  1.00  0.00     0.022 C
HETATM   15  C1  UNL     1      14.898 228.082  42.090  1.00  0.00     0.007 C
ENDBRANCH  13  14
ENDBRANCH  12  13
ENDBRANCH   9  12
ENDBRANCH   1   2
BRANCH   1  16
HETATM   16  C11 UNL     1      18.941 225.992  41.976  1.00  0.00    -0.000 C
HETATM   17  C12 UNL     1      20.079 226.568  42.837  1.00  0.00     0.038 C
HETATM   18  C13 UNL     1      19.500 225.676  43.927  1.00  0.00     0.188 C
HETATM   19  C14 UNL     1      19.121 224.749  42.824  1.00  0.00     0.024 C
BRANCH  18  20
HETATM   20  N1  UNL     1      18.476 226.401  44.594  1.00  0.00    -0.075 N
ATOM     21  H13 UNL     1      17.628 225.851  44.728  1.00  0.00     0.274 HD
ATOM     22  H12 UNL     1      18.689 226.568  45.578  1.00  0.00     0.274 HD
ATOM     23  H11 UNL     1      18.308 227.263  44.076  1.00  0.00     0.274 HD
ENDBRANCH  18  20
BRANCH  19  24
HETATM   24  C15 UNL     1      17.930 223.899  42.917  1.00  0.00    -0.008 C
HETATM   25  C16 UNL     1      18.339 222.466  43.186  1.00  0.00     0.005 C
HETATM   26  C17 UNL     1      17.369 221.927  44.212  1.00  0.00     0.005 C
HETATM   27  C18 UNL     1      16.882 223.130  44.982  1.00  0.00    -0.018 C
HETATM   28  C19 UNL     1      17.786 223.489  46.133  1.00  0.00     0.010 C
HETATM   29  C20 UNL     1      16.901 224.190  43.899  1.00  0.00     0.009 C
ENDBRANCH  19  24
ENDBRANCH   1  16
TORSDOF 7
ENDMDL