MODEL 2
REMARK VINA RESULT: -8.017174460      1.693      2.763
REMARK  5 active torsions:
REMARK  status: ('A' for Active; 'I' for Inactive)
REMARK    1  A    between atoms: C2_2  and  N1_3
REMARK    2  A    between atoms: C3_4  and  S1_5
REMARK    3  A    between atoms: S1_5  and  C4_6
REMARK    4  A    between atoms: C4_6  and  C5_7
REMARK       I    between atoms: C5_7  and  N2_9
REMARK    5  A    between atoms: N2_9  and  C6_11
ROOT
HETATM    1  S1  UNL     1      16.771 225.433  42.564  1.00  0.00    -0.103 SA
ENDROOT
BRANCH   1   2
HETATM    2  C3  UNL     1      16.464 225.440  40.815  1.00  0.00     0.075 A
HETATM    3  N1  UNL     1      17.620 225.389  40.061  1.00  0.00    -0.308 N
HETATM    4  C18 UNL     1      17.471 225.347  38.740  1.00  0.00     0.266 A
HETATM    5  C17 UNL     1      16.206 225.354  38.161  1.00  0.00     0.083 A
HETATM    6  O2  UNL     1      18.493 225.300  37.992  1.00  0.00    -0.266 OA
HETATM    7  C14 UNL     1      15.050 225.403  38.880  1.00  0.00    -0.010 A
HETATM    8  S2  UNL     1      15.669 225.296  36.551  1.00  0.00    -0.096 SA
HETATM    9  C13 UNL     1      15.219 225.450  40.286  1.00  0.00     0.050 A
HETATM   10  C15 UNL     1      13.889 225.393  38.181  1.00  0.00     0.020 A
HETATM   11  C16 UNL     1      13.984 225.334  36.816  1.00  0.00     0.051 A
BRANCH   3  12
HETATM   12  C2  UNL     1      18.915 225.376  40.718  1.00  0.00     0.128 C
HETATM   13  C1  UNL     1      19.512 226.752  40.762  1.00  0.00     0.027 C
ENDBRANCH   3  12
ENDBRANCH   1   2
BRANCH   1  14
HETATM   14  C4  UNL     1      15.975 224.042  43.347  1.00  0.00     0.183 C
BRANCH  14  15
HETATM   15  C5  UNL     1      16.893 223.046  43.958  1.00  0.00     0.227 C
HETATM   16  O1  UNL     1      17.872 222.647  43.307  1.00  0.00    -0.273 OA
HETATM   17  N2  UNL     1      16.585 222.632  45.272  1.00  0.00    -0.356 N
ATOM     18  H2  UNL     1      15.739 222.988  45.718  1.00  0.00     0.162 HD
BRANCH  17  19
HETATM   19  C6  UNL     1      17.441 221.709  46.013  1.00  0.00     0.084 C
HETATM   20  C7  UNL     1      18.281 222.658  46.889  1.00  0.00     0.025 C
HETATM   21  C8  UNL     1      17.402 223.595  47.627  1.00  0.00     0.002 C
HETATM   22  C9  UNL     1      17.055 223.101  49.020  1.00  0.00     0.000 C
HETATM   23  C10 UNL     1      16.216 221.854  48.954  1.00  0.00     0.000 C
HETATM   24  C11 UNL     1      16.947 220.716  48.286  1.00  0.00     0.002 C
HETATM   25  C12 UNL     1      16.699 220.714  46.798  1.00  0.00     0.025 C
ENDBRANCH  17  19
ENDBRANCH  14  15
ENDBRANCH   1  14
TORSDOF 5
ENDMDL