MODEL 5
REMARK VINA RESULT: -7.061959685      1.920      5.001
REMARK  5 active torsions:
REMARK  status: ('A' for Active; 'I' for Inactive)
REMARK    1  A    between atoms: C2_2  and  C3_3
REMARK    2  A    between atoms: C4_6  and  C5_7
REMARK    3  A    between atoms: N3_17  and  C13_18
REMARK    4  A    between atoms: C13_18  and  C14_19
REMARK    5  A    between atoms: C14_19  and  N4_20
ROOT
HETATM    1  C3  UNL     1      14.699 224.992  38.412  1.00  0.00     0.084 A
HETATM    2  N1  UNL     1      14.228 225.522  39.537  1.00  0.00    -0.331 N
ATOM      3  H1  UNL     1      13.222 225.556  39.705  1.00  0.00     0.168 HD
HETATM    4  C4  UNL     1      15.106 226.027  40.476  1.00  0.00     0.123 A
HETATM    5  N3  UNL     1      16.416 225.998  40.284  1.00  0.00    -0.307 N
HETATM    6  C20 UNL     1      16.862 225.445  39.120  1.00  0.00     0.181 A
HETATM    7  S1  UNL     1      18.439 225.333  38.750  1.00  0.00    -0.040 SA
HETATM    8  N5  UNL     1      16.006 224.953  38.205  1.00  0.00    -0.322 N
ATOM      9  H5  UNL     1      16.368 224.545  37.343  1.00  0.00     0.169 HD
ENDROOT
BRANCH   4  10
HETATM   10  C5  UNL     1      14.552 226.608  41.693  1.00  0.00     0.036 A
HETATM   11  C6  UNL     1      14.131 225.937  42.818  1.00  0.00     0.104 A
HETATM   12  N2  UNL     1      13.738 226.809  43.761  1.00  0.00    -0.364 N
HETATM   13  C7  UNL     1      13.899 228.067  43.259  1.00  0.00     0.043 A
ATOM     14  H2  UNL     1      13.382 226.572  44.687  1.00  0.00     0.165 HD
HETATM   15  C8  UNL     1      13.663 229.309  43.812  1.00  0.00     0.030 A
HETATM   16  C12 UNL     1      14.407 227.962  41.970  1.00  0.00     0.006 A
HETATM   17  C9  UNL     1      13.935 230.423  43.075  1.00  0.00     0.002 A
HETATM   18  C10 UNL     1      14.439 230.347  41.796  1.00  0.00     0.001 A
HETATM   19  C11 UNL     1      14.678 229.116  41.236  1.00  0.00     0.014 A
ENDBRANCH   4  10
BRANCH   5  20
HETATM   20  C13 UNL     1      17.347 226.562  41.203  1.00  0.00     0.163 C
BRANCH  20  21
HETATM   21  C14 UNL     1      17.217 226.023  42.608  1.00  0.00     0.292 C
BRANCH  21  22
HETATM   22  N4  UNL     1      18.303 225.144  42.945  1.00  0.00     0.090 N
HETATM   23  C15 UNL     1      18.011 223.767  42.561  1.00  0.00     0.272 C
HETATM   24  C16 UNL     1      17.031 223.140  43.523  1.00  0.00     0.030 C
HETATM   25  C17 UNL     1      17.563 223.193  44.914  1.00  0.00     0.003 C
HETATM   26  C18 UNL     1      17.840 224.644  45.302  1.00  0.00     0.030 C
HETATM   27  C19 UNL     1      18.789 225.211  44.275  1.00  0.00     0.272 C
ENDBRANCH  21  22
ENDBRANCH  20  21
ENDBRANCH   5  20
BRANCH   1  28
HETATM   28  C2  UNL     1      13.736 224.441  37.387  1.00  0.00     0.072 C
HETATM   29  C1  UNL     1      13.328 225.591  36.520  1.00  0.00     0.013 C
ENDBRANCH   1  28
TORSDOF 5
ENDMDL