MODEL 1
REMARK VINA RESULT: -7.119662154      0.000      0.000
REMARK  5 active torsions:
REMARK  status: ('A' for Active; 'I' for Inactive)
REMARK    1  A    between atoms: C2_2  and  C4_4
REMARK    2  A    between atoms: C4_4  and  C5_5
REMARK    3  A    between atoms: C5_5  and  N1_6
REMARK       I    between atoms: N1_6  and  C6_8
REMARK    4  A    between atoms: C6_8  and  C7_10
REMARK    5  A    between atoms: C9_14  and  C10_15
ROOT
HETATM    1  C7  UNL     1      17.269 224.996  38.080  1.00  0.00     0.070 C
HETATM    2  C8  UNL     1      18.158 225.198  39.152  1.00  0.00     0.107 C
HETATM    3  N2  UNL     1      17.848 225.430  40.455  1.00  0.00    -0.366 N
ATOM      4  H2  UNL     1      18.591 225.844  41.019  1.00  0.00     0.165 HD
HETATM    5  C9  UNL     1      16.681 225.184  41.110  1.00  0.00     0.042 C
HETATM    6  C16 UNL     1      15.418 225.104  40.569  1.00  0.00     0.084 A
HETATM    7  N3  UNL     1      14.421 224.980  41.435  1.00  0.00    -0.361 N
ATOM      8  H3  UNL     1      14.645 224.946  42.430  1.00  0.00     0.165 HD
HETATM    9  C17 UNL     1      13.138 224.897  41.068  1.00  0.00     0.105 A
HETATM   10  C18 UNL     1      12.789 224.938  39.735  1.00  0.00     0.105 A
HETATM   11  N4  UNL     1      13.785 225.064  38.825  1.00  0.00    -0.361 N
ATOM     12  H4  UNL     1      13.560 225.096  37.831  1.00  0.00     0.165 HD
HETATM   13  C19 UNL     1      15.064 225.146  39.216  1.00  0.00     0.083 A
HETATM   14  C20 UNL     1      15.934 225.279  38.152  1.00  0.00     0.077 C
HETATM   15  S1  UNL     1      15.291 225.881  36.777  1.00  0.00    -0.077 SA
ENDROOT
BRANCH   1  16
HETATM   16  C6  UNL     1      17.837 224.445  36.892  1.00  0.00     0.254 C
HETATM   17  N1  UNL     1      17.266 223.617  35.921  1.00  0.00    -0.357 N
ATOM     18  H1  UNL     1      16.296 223.329  36.046  1.00  0.00     0.162 HD
HETATM   19  O1  UNL     1      19.074 224.753  36.674  1.00  0.00    -0.268 OA
BRANCH  17  20
HETATM   20  C5  UNL     1      17.973 223.142  34.743  1.00  0.00     0.123 C
BRANCH  20  21
HETATM   21  C4  UNL     1      17.392 223.592  33.448  1.00  0.00     0.023 C
BRANCH  21  22
HETATM   22  C2  UNL     1      17.742 222.508  32.417  1.00  0.00    -0.021 C
HETATM   23  C1  UNL     1      16.507 222.016  31.713  1.00  0.00     0.009 C
HETATM   24  C3  UNL     1      18.716 223.055  31.408  1.00  0.00     0.009 C
ENDBRANCH  21  22
ENDBRANCH  20  21
ENDBRANCH  17  20
ENDBRANCH   1  16
BRANCH   5  25
HETATM   25  C10 UNL     1      16.760 224.970  42.556  1.00  0.00     0.038 C
HETATM   26  C11 UNL     1      17.611 226.054  43.233  1.00  0.00     0.011 C
HETATM   27  C12 UNL     1      18.631 225.480  44.177  1.00  0.00     0.001 C
HETATM   28  C13 UNL     1      17.983 224.578  45.196  1.00  0.00     0.000 C
HETATM   29  C14 UNL     1      17.211 223.528  44.465  1.00  0.00     0.001 C
HETATM   30  C15 UNL     1      17.415 223.658  42.955  1.00  0.00     0.011 C
ENDBRANCH   5  25
TORSDOF 5
ENDMDL