MODEL 1
REMARK VINA RESULT: -8.670442407      0.000      0.000
REMARK  5 active torsions:
REMARK  status: ('A' for Active; 'I' for Inactive)
REMARK    1  A    between atoms: C4_5  and  C5_6
REMARK    2  A    between atoms: C7_9  and  C8_10
REMARK    3  A    between atoms: C11_13  and  C12_14
REMARK    4  A    between atoms: C16_20  and  O1_21
REMARK    5  A    between atoms: O1_21  and  C17_22
ROOT
HETATM    1  N1  UNL     1      20.180 226.948  44.839  1.00  0.00    -0.191 NA
HETATM    2  C1  UNL     1      19.278 226.249  44.576  1.00  0.00     0.102 C
HETATM    3  C2  UNL     1      18.163 225.371  44.256  1.00  0.00     0.081 A
HETATM    4  C3  UNL     1      17.433 225.629  43.091  1.00  0.00     0.056 A
HETATM    5  C4  UNL     1      16.390 224.840  42.749  1.00  0.00     0.044 A
HETATM    6  N2  UNL     1      16.138 223.814  43.616  1.00  0.00    -0.362 N
ATOM      7  H2  UNL     1      15.355 223.205  43.378  1.00  0.00     0.165 HD
HETATM    8  C15 UNL     1      16.790 223.518  44.727  1.00  0.00     0.126 A
HETATM    9  C16 UNL     1      17.856 224.332  45.069  1.00  0.00     0.105 A
ENDROOT
BRANCH   9  10
HETATM   10  O1  UNL     1      18.619 224.113  46.209  1.00  0.00    -0.343 OA
BRANCH  10  11
HETATM   11  C17 UNL     1      18.253 223.271  47.237  1.00  0.00     0.132 C
HETATM   12  C18 UNL     1      17.395 222.126  46.643  1.00  0.00     0.060 C
HETATM   13  C19 UNL     1      16.903 221.258  47.799  1.00  0.00     0.235 C
HETATM   14  N3  UNL     1      16.011 222.086  48.587  1.00  0.00    -0.075 N
HETATM   15  C20 UNL     1      16.842 223.068  49.275  1.00  0.00     0.235 C
ATOM     16  H32 UNL     1      15.263 222.508  48.035  1.00  0.00     0.277 HD
ATOM     17  H31 UNL     1      15.417 221.549  49.218  1.00  0.00     0.277 HD
HETATM   18  C21 UNL     1      17.383 224.031  48.228  1.00  0.00     0.060 C
ENDBRANCH  10  11
ENDBRANCH   9  10
BRANCH   5  19
HETATM   19  C5  UNL     1      15.507 224.976  41.554  1.00  0.00     0.005 A
HETATM   20  C6  UNL     1      14.150 225.170  41.823  1.00  0.00     0.064 A
HETATM   21  S1  UNL     1      13.451 225.464  40.333  1.00  0.00    -0.105 SA
HETATM   22  C7  UNL     1      14.855 225.345  39.340  1.00  0.00    -0.006 A
HETATM   23  C11 UNL     1      15.851 225.071  40.244  1.00  0.00    -0.028 A
BRANCH  22  24
HETATM   24  C8  UNL     1      14.844 225.463  37.838  1.00  0.00     0.026 A
HETATM   25  C9  UNL     1      14.539 224.090  37.146  1.00  0.00     0.010 A
HETATM   26  C10 UNL     1      13.562 225.168  37.079  1.00  0.00     0.010 A
ENDBRANCH  22  24
BRANCH  23  27
HETATM   27  C12 UNL     1      17.240 224.694  39.767  1.00  0.00     0.021 A
HETATM   28  C13 UNL     1      18.293 225.787  39.846  1.00  0.00     0.010 A
HETATM   29  C14 UNL     1      17.818 225.287  38.536  1.00  0.00     0.010 A
ENDBRANCH  23  27
ENDBRANCH   5  19
TORSDOF 5
ENDMDL