MODEL 3
REMARK VINA RESULT: -7.541610252      9.262     11.814
REMARK  10 active torsions:
REMARK  status: ('A' for Active; 'I' for Inactive)
REMARK    1  A    between atoms: O1_2  and  C2_3
REMARK    2  A    between atoms: C2_3  and  C3_5
REMARK    3  A    between atoms: N1_7  and  N2_9
REMARK       I    between atoms: N2_9  and  C5_11
REMARK    4  A    between atoms: C5_11  and  C6_13
REMARK    5  A    between atoms: C7_14  and  C8_15
REMARK    6  A    between atoms: C8_15  and  O4_16
REMARK    7  A    between atoms: C8_15  and  O5_18
REMARK    8  A    between atoms: C9_20  and  N3_21
REMARK    9  A    between atoms: C10_23  and  C11_24
REMARK   10  A    between atoms: C11_24  and  N4_25
ROOT
HETATM    1  C6  UNL     1     -41.830   6.135 -19.627  1.00  0.00     0.090 A
HETATM    2  C7  UNL     1     -41.686   7.276 -20.374  1.00  0.00     0.043 A
HETATM    3  C9  UNL     1     -41.581   8.531 -19.731  1.00  0.00     0.059 A
HETATM    4  C12 UNL     1     -41.631   8.538 -18.375  1.00  0.00     0.119 A
HETATM    5  N5  UNL     1     -41.767   7.455 -17.635  1.00  0.00    -0.350 N
ATOM      6  H5  UNL     1     -41.796   7.535 -16.618  1.00  0.00     0.166 HD
HETATM    7  C13 UNL     1     -41.870   6.222 -18.228  1.00  0.00     0.115 A
HETATM    8  N6  UNL     1     -41.941   5.225 -17.458  1.00  0.00    -0.385 N
ATOM      9  H61 UNL     1     -41.970   5.289 -16.440  1.00  0.00     0.157 HD
ATOM     10  H62 UNL     1     -42.017   4.309 -17.899  1.00  0.00     0.157 HD
ENDROOT
BRANCH   1  11
HETATM   11  C5  UNL     1     -41.940   4.807 -20.173  1.00  0.00     0.274 C
HETATM   12  N2  UNL     1     -43.103   4.461 -20.989  1.00  0.00    -0.265 N
ATOM     13  H2  UNL     1     -43.811   5.178 -21.149  1.00  0.00     0.190 HD
HETATM   14  O3  UNL     1     -41.147   3.849 -20.054  1.00  0.00    -0.266 OA
BRANCH  12  15
HETATM   15  N1  UNL     1     -43.292   3.220 -21.553  1.00  0.00    -0.296 N
HETATM   16  C3  UNL     1     -44.414   2.583 -21.566  1.00  0.00     0.097 C
HETATM   17  C4  UNL     1     -45.604   3.199 -20.938  1.00  0.00     0.076 C
ATOM     18  H1  UNL     1     -42.489   2.771 -21.992  1.00  0.00     0.187 HD
BRANCH  16  19
HETATM   19  C2  UNL     1     -44.514   1.278 -22.185  1.00  0.00     0.306 C
HETATM   20  O2  UNL     1     -45.589   0.934 -22.723  1.00  0.00    -0.258 OA
BRANCH  19  21
HETATM   21  O1  UNL     1     -43.449   0.397 -22.197  1.00  0.00    -0.322 OA
HETATM   22  C1  UNL     1     -43.318  -0.586 -23.237  1.00  0.00     0.213 C
ENDBRANCH  19  21
ENDBRANCH  16  19
ENDBRANCH  12  15
ENDBRANCH   1  11
BRANCH   2  23
HETATM   23  C8  UNL     1     -41.628   7.251 -21.849  1.00  0.00     0.291 C
BRANCH  23  24
HETATM   24  O4  UNL     1     -42.700   7.766 -22.516  1.00  0.00    -0.367 OA
ATOM     25  H4  UNL     1     -43.172   7.175 -23.092  1.00  0.00     0.213 HD
ENDBRANCH  23  24
BRANCH  23  26
HETATM   26  O5  UNL     1     -40.407   7.775 -22.316  1.00  0.00    -0.367 OA
ATOM     27  H5  UNL     1     -40.192   7.427 -23.174  1.00  0.00     0.213 HD
ENDBRANCH  23  26
ENDBRANCH   2  23
BRANCH   3  28
HETATM   28  N3  UNL     1     -41.434   9.690 -20.534  1.00  0.00    -0.366 N
HETATM   29  C10 UNL     1     -42.282  10.641 -20.584  1.00  0.00     0.087 C
ATOM     30  H3  UNL     1     -40.596   9.767 -21.109  1.00  0.00     0.165 HD
BRANCH  29  31
HETATM   31  C11 UNL     1     -42.040  11.810 -21.452  1.00  0.00     0.245 C
BRANCH  31  32
HETATM   32  N4  UNL     1     -42.184  11.441 -22.839  1.00  0.00    -0.151 N
HETATM   33  O6  UNL     1     -41.733  10.352 -23.232  1.00  0.00    -0.536 OA
HETATM   34  O7  UNL     1     -42.809  12.249 -23.762  1.00  0.00    -0.536 OA
ENDBRANCH  31  32
ENDBRANCH  29  31
ENDBRANCH   3  28
TORSDOF 10
ENDMDL