MODEL 4
REMARK VINA RESULT: -7.037621085      1.738      2.232
REMARK  10 active torsions:
REMARK  status: ('A' for Active; 'I' for Inactive)
REMARK    1  A    between atoms: C5_9  and  N3_10
REMARK       I    between atoms: N3_10  and  C6_12
REMARK       I    between atoms: C6_12  and  N6_27
REMARK    2  A    between atoms: N4_13  and  C7_15
REMARK    3  A    between atoms: C7_15  and  C8_16
REMARK    4  A    between atoms: C8_16  and  O2_17
REMARK    5  A    between atoms: C8_16  and  C9_19
REMARK    6  A    between atoms: C9_19  and  C10_20
REMARK    7  A    between atoms: C10_20  and  O3_21
REMARK    8  A    between atoms: N5_23  and  O4_25
REMARK    9  A    between atoms: N6_27  and  N7_29
REMARK   10  A    between atoms: C11_32  and  N8_33
ROOT
HETATM    1  N1  UNL     1     -46.084   3.568 -19.269  1.00  0.00    -0.190 NA
HETATM    2  C1  UNL     1     -45.742   4.376 -18.519  1.00  0.00     0.120 C
HETATM    3  C2  UNL     1     -45.328   5.408 -17.579  1.00  0.00     0.152 A
HETATM    4  N2  UNL     1     -46.208   5.993 -16.745  1.00  0.00    -0.313 N
ATOM      5  H2  UNL     1     -47.188   5.713 -16.766  1.00  0.00     0.170 HD
HETATM    6  C3  UNL     1     -45.804   6.948 -15.881  1.00  0.00     0.248 A
HETATM    7  O1  UNL     1     -46.669   7.457 -15.128  1.00  0.00    -0.268 OA
HETATM    8  C4  UNL     1     -44.515   7.368 -15.800  1.00  0.00     0.107 A
HETATM    9  C5  UNL     1     -43.577   6.803 -16.628  1.00  0.00     0.090 A
HETATM   10  C11 UNL     1     -44.010   5.823 -17.512  1.00  0.00     0.167 A
ENDROOT
BRANCH  10  11
HETATM   11  N8  UNL     1     -43.098   5.187 -18.407  1.00  0.00    -0.110 N
HETATM   12  O7  UNL     1     -42.400   4.253 -17.956  1.00  0.00    -0.532 OA
HETATM   13  O8  UNL     1     -42.947   5.536 -19.709  1.00  0.00    -0.532 OA
ENDBRANCH  10  11
BRANCH   9  14
HETATM   14  N3  UNL     1     -42.231   7.181 -16.608  1.00  0.00    -0.188 N
HETATM   15  C6  UNL     1     -41.789   8.205 -17.491  1.00  0.00     0.698 C
HETATM   16  N4  UNL     1     -41.139   7.839 -18.525  1.00  0.00    -0.222 N
HETATM   17  N6  UNL     1     -42.097   9.555 -17.168  1.00  0.00    -0.072 N
ATOM     18  H4  UNL     1     -40.969   6.843 -18.668  1.00  0.00     0.177 HD
ATOM     19  H6  UNL     1     -42.189  10.257 -17.903  1.00  0.00     0.212 HD
ATOM     20  H3  UNL     1     -41.575   6.728 -15.970  1.00  0.00     0.184 HD
BRANCH  16  21
HETATM   21  C7  UNL     1     -40.640   8.764 -19.493  1.00  0.00     0.176 C
BRANCH  21  22
HETATM   22  C8  UNL     1     -39.558   8.082 -20.315  1.00  0.00     0.186 C
BRANCH  22  23
HETATM   23  O2  UNL     1     -38.488   7.836 -19.445  1.00  0.00    -0.388 OA
ATOM     24  H2  UNL     1     -37.713   8.200 -19.858  1.00  0.00     0.210 HD
ENDBRANCH  22  23
BRANCH  22  25
HETATM   25  C9  UNL     1     -40.063   6.822 -20.908  1.00  0.00     0.063 C
HETATM   26  N5  UNL     1     -40.941   6.898 -21.841  1.00  0.00    -0.273 N
ATOM     27  H5  UNL     1     -41.234   7.836 -22.114  1.00  0.00     0.193 HD
BRANCH  25  28
HETATM   28  C10 UNL     1     -39.599   5.492 -20.468  1.00  0.00     0.221 C
BRANCH  28  29
HETATM   29  O3  UNL     1     -39.813   5.297 -19.095  1.00  0.00    -0.395 OA
ATOM     30  H3  UNL     1     -39.434   4.479 -18.794  1.00  0.00     0.209 HD
ENDBRANCH  28  29
ENDBRANCH  25  28
BRANCH  26  31
HETATM   31  O4  UNL     1     -41.517   5.871 -22.500  1.00  0.00    -0.290 OA
ATOM     32  H4  UNL     1     -42.105   5.927 -23.243  1.00  0.00     0.244 HD
ENDBRANCH  26  31
ENDBRANCH  22  25
ENDBRANCH  21  22
ENDBRANCH  16  21
BRANCH  17  33
HETATM   33  N7  UNL     1     -42.271   9.902 -15.823  1.00  0.00    -0.024 N
HETATM   34  O5  UNL     1     -43.184  10.668 -15.481  1.00  0.00    -0.516 OA
HETATM   35  O6  UNL     1     -41.448   9.410 -14.831  1.00  0.00    -0.516 OA
ENDBRANCH  17  33
ENDBRANCH   9  14
TORSDOF 10
ENDMDL