MODEL 4
REMARK VINA RESULT: -8.019312846      5.785      7.977
REMARK  9 active torsions:
REMARK  status: ('A' for Active; 'I' for Inactive)
REMARK    1  A    between atoms: N1_2  and  C2_3
REMARK    2  A    between atoms: N1_2  and  C8_22
REMARK    3  A    between atoms: C2_3  and  C3_4
REMARK       I    between atoms: C3_4  and  N2_6
REMARK    4  A    between atoms: N2_6  and  S1_8
REMARK    5  A    between atoms: S1_8  and  C4_11
REMARK    6  A    between atoms: C7_15  and  O4_16
REMARK    7  A    between atoms: O4_16  and  N3_17
REMARK    8  A    between atoms: C9_25  and  N6_26
REMARK    9  A    between atoms: C10_31  and  N8_32
ROOT
HETATM    1  C2  UNL     1     -44.391   3.198 -17.578  1.00  0.00     0.244 C
ENDROOT
BRANCH   1   2
HETATM    2  N1  UNL     1     -43.739   4.465 -17.676  1.00  0.00    -0.212 N
HETATM    3  C1  UNL     1     -44.213   5.616 -16.924  1.00  0.00     0.169 C
BRANCH   2   4
HETATM    4  C8  UNL     1     -42.602   4.672 -18.497  1.00  0.00     0.709 A
HETATM    5  N5  UNL     1     -42.768   5.136 -19.737  1.00  0.00    -0.022 N
HETATM    6  C9  UNL     1     -41.667   5.327 -20.492  1.00  0.00     0.705 A
ATOM      7  H5  UNL     1     -43.699   5.341 -20.103  1.00  0.00     0.203 HD
HETATM    8  N7  UNL     1     -40.435   5.064 -20.032  1.00  0.00    -0.022 N
HETATM    9  C10 UNL     1     -40.298   4.597 -18.780  1.00  0.00     0.705 A
ATOM     10  H7  UNL     1     -39.617   5.217 -20.622  1.00  0.00     0.203 HD
HETATM   11  N9  UNL     1     -41.382   4.400 -18.011  1.00  0.00    -0.022 N
ATOM     12  H9  UNL     1     -41.277   4.046 -17.060  1.00  0.00     0.203 HD
BRANCH   6  13
HETATM   13  N6  UNL     1     -41.819   5.776 -21.690  1.00  0.00    -0.234 N
ATOM     14  H62 UNL     1     -41.886   6.782 -21.848  1.00  0.00     0.174 HD
ATOM     15  H61 UNL     1     -41.868   5.104 -22.455  1.00  0.00     0.174 HD
ENDBRANCH   6  13
BRANCH   9  16
HETATM   16  N8  UNL     1     -39.148   4.333 -18.296  1.00  0.00    -0.234 N
ATOM     17  H82 UNL     1     -38.670   3.486 -18.604  1.00  0.00     0.174 HD
ATOM     18  H81 UNL     1     -38.707   4.949 -17.613  1.00  0.00     0.174 HD
ENDBRANCH   9  16
ENDBRANCH   2   4
ENDBRANCH   1   2
BRANCH   1  19
HETATM   19  C3  UNL     1     -44.063   2.419 -16.367  1.00  0.00     0.249 C
HETATM   20  O1  UNL     1     -42.844   2.048 -16.285  1.00  0.00    -0.271 OA
HETATM   21  N2  UNL     1     -44.962   2.073 -15.343  1.00  0.00    -0.248 N
ATOM     22  H2  UNL     1     -45.926   2.386 -15.460  1.00  0.00     0.182 HD
BRANCH  21  23
HETATM   23  S1  UNL     1     -44.621   1.189 -13.930  1.00  0.00     0.274 S
HETATM   24  O2  UNL     1     -45.938   0.858 -13.242  1.00  0.00    -0.199 OA
HETATM   25  O3  UNL     1     -43.722   1.935 -12.983  1.00  0.00    -0.199 OA
BRANCH  23  26
HETATM   26  C4  UNL     1     -43.857  -0.368 -14.233  1.00  0.00     0.156 A
HETATM   27  S2  UNL     1     -44.570  -1.762 -14.951  1.00  0.00    -0.086 SA
HETATM   28  C5  UNL     1     -43.241  -2.823 -14.867  1.00  0.00     0.054 A
HETATM   29  C6  UNL     1     -42.271  -2.056 -14.277  1.00  0.00     0.049 A
HETATM   30  C7  UNL     1     -42.591  -0.797 -13.953  1.00  0.00     0.131 A
BRANCH  30  31
HETATM   31  O4  UNL     1     -41.664   0.084 -13.336  1.00  0.00    -0.221 OA
BRANCH  31  32
HETATM   32  N3  UNL     1     -40.918   0.976 -14.025  1.00  0.00    -0.208 N
HETATM   33  N4  UNL     1     -39.789   1.316 -13.593  1.00  0.00    -0.325 N
ATOM     34  H42 UNL     1     -39.449   0.910 -12.721  1.00  0.00     0.178 HD
ATOM     35  H41 UNL     1     -39.225   1.989 -14.113  1.00  0.00     0.178 HD
ATOM     36  H3  UNL     1     -41.271   1.372 -14.897  1.00  0.00     0.215 HD
ENDBRANCH  31  32
ENDBRANCH  30  31
ENDBRANCH  23  26
ENDBRANCH  21  23
ENDBRANCH   1  19
TORSDOF 9
ENDMDL