MODEL 2
REMARK VINA RESULT: -7.599322466      2.400      4.243
REMARK  12 active torsions:
REMARK  status: ('A' for Active; 'I' for Inactive)
REMARK    1  A    between atoms: O1_2  and  C2_3
REMARK    2  A    between atoms: C2_3  and  C3_5
REMARK    3  A    between atoms: C3_5  and  N1_7
REMARK       I    between atoms: N1_7  and  C5_9
REMARK    4  A    between atoms: C5_9  and  C6_11
REMARK    5  A    between atoms: C6_11  and  O4_12
REMARK    6  A    between atoms: O4_12  and  N2_13
REMARK    7  A    between atoms: C9_18  and  N4_19
REMARK    8  A    between atoms: N4_19  and  C10_21
REMARK    9  A    between atoms: C11_24  and  N6_25
REMARK   10  A    between atoms: C12_30  and  N8_31
REMARK   11  A    between atoms: C13_34  and  N9_35
REMARK   12  A    between atoms: N9_35  and  O5_36
ROOT
HETATM    1  N4  UNL     1     -40.977   0.270 -13.103  1.00  0.00    -0.172 N
ATOM      2  H4  UNL     1     -41.055   0.762 -12.212  1.00  0.00     0.186 HD
ENDROOT
BRANCH   1   3
HETATM    3  C9  UNL     1     -42.160  -0.295 -13.646  1.00  0.00     0.701 C
HETATM    4  N2  UNL     1     -43.373   0.406 -13.846  1.00  0.00    -0.086 N
HETATM    5  C7  UNL     1     -44.079  -0.309 -14.894  1.00  0.00     0.195 C
HETATM    6  C8  UNL     1     -43.650  -1.744 -14.535  1.00  0.00     0.161 C
HETATM    7  N3  UNL     1     -42.286  -1.516 -14.027  1.00  0.00    -0.223 N
ATOM      8  H3  UNL     1     -41.552  -2.222 -13.984  1.00  0.00     0.177 HD
BRANCH   4   9
HETATM    9  O4  UNL     1     -43.809   1.534 -13.189  1.00  0.00    -0.255 OA
BRANCH   9  10
HETATM   10  C6  UNL     1     -45.188   1.687 -13.378  1.00  0.00     0.304 C
BRANCH  10  11
HETATM   11  C5  UNL     1     -45.497   2.871 -14.206  1.00  0.00     0.244 C
HETATM   12  N1  UNL     1     -45.987   2.694 -15.518  1.00  0.00    -0.346 N
ATOM     13  H1  UNL     1     -46.123   1.751 -15.884  1.00  0.00     0.163 HD
HETATM   14  O3  UNL     1     -45.327   4.040 -13.750  1.00  0.00    -0.271 OA
BRANCH  12  15
HETATM   15  C3  UNL     1     -46.293   3.819 -16.338  1.00  0.00     0.180 C
HETATM   16  C4  UNL     1     -45.534   3.821 -17.646  1.00  0.00     0.043 C
BRANCH  15  17
HETATM   17  C2  UNL     1     -47.742   3.891 -16.692  1.00  0.00     0.281 C
HETATM   18  O2  UNL     1     -48.207   3.588 -17.815  1.00  0.00    -0.263 OA
BRANCH  17  19
HETATM   19  O1  UNL     1     -48.612   4.323 -15.703  1.00  0.00    -0.325 OA
HETATM   20  C1  UNL     1     -48.378   5.481 -14.950  1.00  0.00     0.213 C
ENDBRANCH  17  19
ENDBRANCH  15  17
ENDBRANCH  12  15
ENDBRANCH  10  11
ENDBRANCH   9  10
ENDBRANCH   4   9
ENDBRANCH   1   3
BRANCH   1  21
HETATM   21  C10 UNL     1     -39.705   0.203 -13.699  1.00  0.00     0.172 A
HETATM   22  N5  UNL     1     -39.268   1.153 -14.547  1.00  0.00    -0.174 N
HETATM   23  C11 UNL     1     -38.028   1.067 -15.113  1.00  0.00     0.679 A
ATOM     24  H5  UNL     1     -39.868   1.947 -14.769  1.00  0.00     0.186 HD
HETATM   25  N7  UNL     1     -37.202   0.035 -14.847  1.00  0.00    -0.175 N
HETATM   26  C12 UNL     1     -37.582  -0.928 -14.021  1.00  0.00     0.150 A
ATOM     27  H7  UNL     1     -36.281  -0.004 -15.284  1.00  0.00     0.186 HD
HETATM   28  C13 UNL     1     -38.842  -0.840 -13.444  1.00  0.00     0.181 A
BRANCH  23  29
HETATM   29  N6  UNL     1     -37.600   1.972 -15.927  1.00  0.00    -0.234 N
ATOM     30  H62 UNL     1     -37.193   2.813 -15.518  1.00  0.00     0.174 HD
ATOM     31  H61 UNL     1     -37.668   1.850 -16.937  1.00  0.00     0.174 HD
ENDBRANCH  23  29
BRANCH  26  32
HETATM   32  N8  UNL     1     -36.826  -1.927 -13.740  1.00  0.00    -0.383 N
ATOM     33  H82 UNL     1     -35.929  -2.027 -14.215  1.00  0.00     0.157 HD
ATOM     34  H81 UNL     1     -37.091  -2.633 -13.052  1.00  0.00     0.157 HD
ENDBRANCH  26  32
BRANCH  28  35
HETATM   35  N9  UNL     1     -39.232  -1.868 -12.570  1.00  0.00    -0.076 N
HETATM   36  F1  UNL     1     -38.917  -1.792 -11.276  1.00  0.00    -0.070 F
BRANCH  35  37
HETATM   37  O5  UNL     1     -39.862  -2.838 -12.991  1.00  0.00    -0.259 OA
ATOM     38  H5  UNL     1     -39.911  -3.637 -12.481  1.00  0.00     0.247 HD
ENDBRANCH  35  37
ENDBRANCH  28  35
ENDBRANCH   1  21
TORSDOF 12
ENDMDL