MODEL 1
REMARK VINA RESULT: -7.293414100      0.000      0.000
REMARK  12 active torsions:
REMARK  status: ('A' for Active; 'I' for Inactive)
REMARK    1  A    between atoms: C3_5  and  N2_6
REMARK    2  A    between atoms: N4_11  and  C4_12
REMARK    3  A    between atoms: C4_12  and  O1_13
REMARK    4  A    between atoms: O1_13  and  C5_14
REMARK    5  A    between atoms: C6_15  and  C7_16
REMARK    6  A    between atoms: C7_16  and  C8_17
REMARK    7  A    between atoms: C8_17  and  C9_18
REMARK    8  A    between atoms: C9_18  and  O2_19
REMARK    9  A    between atoms: C10_21  and  N5_22
REMARK   10  A    between atoms: N5_22  and  N6_23
REMARK   11  A    between atoms: N5_22  and  O3_26
REMARK   12  A    between atoms: C12_34  and  N9_35
ROOT
HETATM    1  C5  UNL     1     -42.005   7.161 -18.847  1.00  0.00     0.123 A
HETATM    2  C6  UNL     1     -41.479   6.156 -19.641  1.00  0.00     0.027 A
HETATM    3  C10 UNL     1     -40.252   6.348 -20.231  1.00  0.00     0.162 A
HETATM    4  N7  UNL     1     -39.550   7.477 -20.065  1.00  0.00    -0.323 N
ATOM      5  H7  UNL     1     -38.641   7.591 -20.516  1.00  0.00     0.169 HD
HETATM    6  C11 UNL     1     -40.050   8.448 -19.305  1.00  0.00     0.137 A
HETATM    7  N8  UNL     1     -39.401   9.568 -19.116  1.00  0.00    -0.383 N
ATOM      8  H81 UNL     1     -39.784  10.312 -18.534  1.00  0.00     0.157 HD
ATOM      9  H82 UNL     1     -38.499   9.638 -19.587  1.00  0.00     0.157 HD
HETATM   10  C12 UNL     1     -41.276   8.353 -18.665  1.00  0.00     0.180 A
ENDROOT
BRANCH   1  11
HETATM   11  O1  UNL     1     -43.181   7.041 -18.232  1.00  0.00    -0.301 OA
BRANCH  11  12
HETATM   12  C4  UNL     1     -43.781   6.617 -17.103  1.00  0.00     0.262 C
BRANCH  12  13
HETATM   13  N4  UNL     1     -43.917   7.505 -15.977  1.00  0.00    -0.193 N
HETATM   14  N3  UNL     1     -43.031   7.497 -15.004  1.00  0.00    -0.121 N
HETATM   15  C3  UNL     1     -43.137   8.314 -13.956  1.00  0.00     0.691 A
ATOM     16  H3  UNL     1     -42.245   6.849 -15.052  1.00  0.00     0.206 HD
HETATM   17  N1  UNL     1     -44.155   9.191 -13.835  1.00  0.00    -0.189 N
HETATM   18  C2  UNL     1     -45.067   9.219 -14.809  1.00  0.00     0.092 A
ATOM     19  H1  UNL     1     -44.226   9.810 -13.027  1.00  0.00     0.184 HD
HETATM   20  C1  UNL     1     -46.209  10.163 -14.728  1.00  0.00     0.075 C
HETATM   21  C13 UNL     1     -44.948   8.372 -15.883  1.00  0.00     0.291 A
HETATM   22  O6  UNL     1     -45.810   8.388 -16.820  1.00  0.00    -0.264 OA
BRANCH  15  23
HETATM   23  N2  UNL     1     -42.271   8.324 -12.980  1.00  0.00    -0.233 N
ATOM     24  H22 UNL     1     -41.781   7.485 -12.670  1.00  0.00     0.174 HD
ATOM     25  H21 UNL     1     -42.118   9.233 -12.543  1.00  0.00     0.174 HD
ENDBRANCH  15  23
ENDBRANCH  12  13
ENDBRANCH  11  12
ENDBRANCH   1  11
BRANCH   2  26
HETATM   26  C7  UNL     1     -42.193   4.907 -19.908  1.00  0.00     0.047 C
BRANCH  26  27
HETATM   27  C8  UNL     1     -42.168   3.875 -18.823  1.00  0.00     0.031 C
BRANCH  27  28
HETATM   28  C9  UNL     1     -42.540   2.549 -19.512  1.00  0.00     0.164 C
BRANCH  28  29
HETATM   29  O2  UNL     1     -41.617   2.286 -20.519  1.00  0.00    -0.401 OA
ATOM     30  H2  UNL     1     -42.052   2.345 -21.361  1.00  0.00     0.209 HD
ENDBRANCH  28  29
ENDBRANCH  27  28
ENDBRANCH  26  27
ENDBRANCH   2  26
BRANCH  10  31
HETATM   31  N9  UNL     1     -41.729   9.419 -17.858  1.00  0.00    -0.109 N
HETATM   32  O4  UNL     1     -41.374   9.548 -16.681  1.00  0.00    -0.532 OA
HETATM   33  O5  UNL     1     -42.586  10.340 -18.392  1.00  0.00    -0.532 OA
ENDBRANCH  10  31
BRANCH   3  34
HETATM   34  N5  UNL     1     -39.647   5.358 -21.050  1.00  0.00    -0.152 N
BRANCH  34  35
HETATM   35  N6  UNL     1     -39.074   4.250 -20.458  1.00  0.00    -0.317 N
ATOM     36  H62 UNL     1     -38.079   4.229 -20.232  1.00  0.00     0.179 HD
ATOM     37  H61 UNL     1     -39.658   3.444 -20.236  1.00  0.00     0.179 HD
ENDBRANCH  34  35
BRANCH  34  38
HETATM   38  O3  UNL     1     -39.633   5.516 -22.371  1.00  0.00    -0.267 OA
ATOM     39  H3  UNL     1     -38.802   5.595 -22.825  1.00  0.00     0.247 HD
ENDBRANCH  34  38
ENDBRANCH   3  34
TORSDOF 12
ENDMDL