MODEL 4
REMARK VINA RESULT: -8.627097685      1.313      2.263
REMARK  11 active torsions:
REMARK  status: ('A' for Active; 'I' for Inactive)
REMARK    1  A    between atoms: C2_2  and  C3_3
REMARK    2  A    between atoms: C3_3  and  C4_4
REMARK    3  A    between atoms: N3_8  and  C5_9
REMARK    4  A    between atoms: C7_11  and  O1_12
REMARK    5  A    between atoms: O1_12  and  C8_13
REMARK    6  A    between atoms: C9_16  and  N5_17
REMARK    7  A    between atoms: C10_22  and  N7_23
REMARK    8  A    between atoms: C11_30  and  N10_31
REMARK    9  A    between atoms: N10_31  and  C12_33
REMARK   10  A    between atoms: C12_33  and  C13_34
REMARK   11  A    between atoms: C13_34  and  O2_35
ROOT
HETATM    1  C5  UNL     1     -43.548   0.141 -14.466  1.00  0.00     0.162 A
HETATM    2  C6  UNL     1     -42.295   0.504 -14.000  1.00  0.00     0.109 A
HETATM    3  C7  UNL     1     -41.369  -0.435 -13.593  1.00  0.00     0.170 A
HETATM    4  N9  UNL     1     -41.730  -1.725 -13.664  1.00  0.00    -0.170 N
ATOM      5  H9  UNL     1     -41.063  -2.438 -13.368  1.00  0.00     0.186 HD
HETATM    6  C11 UNL     1     -42.940  -2.116 -14.112  1.00  0.00     0.681 A
HETATM    7  N11 UNL     1     -43.832  -1.164 -14.507  1.00  0.00    -0.173 N
ATOM      8  H11 UNL     1     -44.749  -1.459 -14.846  1.00  0.00     0.186 HD
ENDROOT
BRANCH   3   9
HETATM    9  O1  UNL     1     -40.163  -0.002 -13.149  1.00  0.00    -0.261 OA
BRANCH   9  10
HETATM   10  C8  UNL     1     -38.953  -0.167 -13.804  1.00  0.00     0.259 A
HETATM   11  N4  UNL     1     -38.535   0.792 -14.649  1.00  0.00    -0.154 N
HETATM   12  C9  UNL     1     -37.360   0.695 -15.323  1.00  0.00     0.693 A
ATOM     13  H4  UNL     1     -39.118   1.618 -14.788  1.00  0.00     0.188 HD
HETATM   14  N6  UNL     1     -36.600  -0.395 -15.134  1.00  0.00    -0.023 N
HETATM   15  C10 UNL     1     -36.987  -1.373 -14.298  1.00  0.00     0.693 A
ATOM     16  H6  UNL     1     -35.714  -0.482 -15.633  1.00  0.00     0.203 HD
HETATM   17  N8  UNL     1     -38.156  -1.237 -13.650  1.00  0.00    -0.154 N
ATOM     18  H8  UNL     1     -38.451  -1.979 -13.015  1.00  0.00     0.188 HD
BRANCH  12  19
HETATM   19  N5  UNL     1     -36.965   1.629 -16.138  1.00  0.00    -0.234 N
ATOM     20  H52 UNL     1     -36.010   1.984 -16.080  1.00  0.00     0.174 HD
ATOM     21  H51 UNL     1     -37.588   2.021 -16.843  1.00  0.00     0.174 HD
ENDBRANCH  12  19
BRANCH  15  22
HETATM   22  N7  UNL     1     -36.241  -2.409 -14.134  1.00  0.00    -0.234 N
ATOM     23  H72 UNL     1     -35.258  -2.408 -14.403  1.00  0.00     0.174 HD
ATOM     24  H71 UNL     1     -36.632  -3.258 -13.725  1.00  0.00     0.174 HD
ENDBRANCH  15  22
ENDBRANCH   9  10
ENDBRANCH   3   9
BRANCH   1  25
HETATM   25  N3  UNL     1     -44.462   1.152 -14.872  1.00  0.00    -0.161 N
HETATM   26  N2  UNL     1     -45.538   1.552 -14.200  1.00  0.00     0.004 NA
HETATM   27  N1  UNL     1     -46.150   2.508 -14.878  1.00  0.00    -0.270 N
HETATM   28  C4  UNL     1     -45.460   2.729 -16.007  1.00  0.00     0.110 A
ATOM     29  H1  UNL     1     -47.001   2.993 -14.591  1.00  0.00     0.185 HD
HETATM   30  N12 UNL     1     -44.423   1.865 -15.959  1.00  0.00    -0.267 N
ATOM     31  H12 UNL     1     -43.706   1.782 -16.679  1.00  0.00     0.190 HD
BRANCH  28  32
HETATM   32  C3  UNL     1     -45.717   3.684 -17.102  1.00  0.00     0.078 C
BRANCH  32  33
HETATM   33  C2  UNL     1     -44.597   3.588 -18.110  1.00  0.00     0.003 C
HETATM   34  C1  UNL     1     -45.082   3.604 -19.525  1.00  0.00     0.005 C
ENDBRANCH  32  33
ENDBRANCH  28  32
ENDBRANCH   1  25
BRANCH   6  35
HETATM   35  N10 UNL     1     -43.265  -3.373 -14.173  1.00  0.00    -0.224 N
ATOM     36  H10 UNL     1     -44.171  -3.619 -14.571  1.00  0.00     0.177 HD
BRANCH  35  37
HETATM   37  C12 UNL     1     -42.416  -4.427 -13.711  1.00  0.00     0.164 C
BRANCH  37  38
HETATM   38  C13 UNL     1     -43.140  -5.169 -12.607  1.00  0.00     0.184 C
BRANCH  38  39
HETATM   39  O2  UNL     1     -42.769  -6.514 -12.603  1.00  0.00    -0.399 OA
ATOM     40  H2  UNL     1     -42.318  -6.730 -11.795  1.00  0.00     0.209 HD
ENDBRANCH  38  39
ENDBRANCH  37  38
ENDBRANCH  35  37
ENDBRANCH   6  35
TORSDOF 11
ENDMDL