MODEL 1
REMARK VINA RESULT: -7.833928896      0.000      0.000
REMARK  9 active torsions:
REMARK  status: ('A' for Active; 'I' for Inactive)
REMARK    1  A    between atoms: O1_2  and  C2_3
REMARK    2  A    between atoms: C2_3  and  O2_4
REMARK    3  A    between atoms: O2_4  and  N1_5
REMARK    4  A    between atoms: N1_5  and  C3_7
REMARK    5  A    between atoms: C4_8  and  C5_9
REMARK    6  A    between atoms: C5_9  and  O3_10
REMARK    7  A    between atoms: C5_9  and  C6_12
REMARK    8  A    between atoms: C6_12  and  N2_13
REMARK    9  A    between atoms: C9_20  and  N5_21
ROOT
HETATM    1  N2  UNL     1     -42.789   2.521 -20.303  1.00  0.00    -0.285 N
HETATM    2  N3  UNL     1     -42.179   1.441 -20.763  1.00  0.00    -0.307 N
ATOM      3  H3  UNL     1     -41.235   1.175 -20.485  1.00  0.00     0.186 HD
HETATM    4  C7  UNL     1     -42.902   0.738 -21.615  1.00  0.00     0.139 A
HETATM    5  C8  UNL     1     -44.100   1.399 -21.738  1.00  0.00     0.097 A
HETATM    6  N4  UNL     1     -45.205   1.134 -22.470  1.00  0.00    -0.188 N
ATOM      7  H4  UNL     1     -45.244   0.310 -23.069  1.00  0.00     0.184 HD
HETATM    8  C9  UNL     1     -46.236   1.964 -22.395  1.00  0.00     0.677 A
HETATM    9  N6  UNL     1     -46.171   3.036 -21.607  1.00  0.00    -0.180 N
ATOM     10  H6  UNL     1     -46.977   3.660 -21.565  1.00  0.00     0.185 HD
HETATM   11  C10 UNL     1     -45.069   3.339 -20.849  1.00  0.00     0.160 A
HETATM   12  C11 UNL     1     -45.080   4.516 -20.026  1.00  0.00     0.120 C
HETATM   13  N7  UNL     1     -45.121   5.493 -19.362  1.00  0.00    -0.190 NA
HETATM   14  C12 UNL     1     -44.005   2.509 -20.910  1.00  0.00     0.117 A
ENDROOT
BRANCH   8  15
HETATM   15  N5  UNL     1     -47.307   1.726 -23.096  1.00  0.00    -0.234 N
ATOM     16  H52 UNL     1     -47.376   0.882 -23.664  1.00  0.00     0.174 HD
ATOM     17  H51 UNL     1     -48.083   2.388 -23.073  1.00  0.00     0.174 HD
ENDBRANCH   8  15
BRANCH   1  18
HETATM   18  C6  UNL     1     -42.250   3.448 -19.370  1.00  0.00     0.187 C
BRANCH  18  19
HETATM   19  C5  UNL     1     -41.382   4.530 -20.018  1.00  0.00     0.190 C
BRANCH  19  20
HETATM   20  C4  UNL     1     -41.417   5.773 -19.221  1.00  0.00     0.078 A
HETATM   21  C3  UNL     1     -40.596   6.854 -19.470  1.00  0.00     0.147 A
HETATM   22  C14 UNL     1     -40.645   7.998 -18.722  1.00  0.00     0.280 A
HETATM   23  N9  UNL     1     -41.508   8.125 -17.694  1.00  0.00    -0.273 N
HETATM   24  O5  UNL     1     -39.896   9.009 -18.933  1.00  0.00    -0.265 OA
HETATM   25  C13 UNL     1     -42.306   7.078 -17.448  1.00  0.00     0.327 A
ATOM     26  H9  UNL     1     -41.552   8.975 -17.133  1.00  0.00     0.173 HD
HETATM   27  N8  UNL     1     -42.275   5.948 -18.167  1.00  0.00    -0.307 N
HETATM   28  O4  UNL     1     -43.125   7.168 -16.490  1.00  0.00    -0.247 OA
ATOM     29  H8  UNL     1     -42.913   5.192 -17.921  1.00  0.00     0.170 HD
BRANCH  21  30
HETATM   30  N1  UNL     1     -39.672   6.781 -20.541  1.00  0.00    -0.257 N
ATOM     31  H1  UNL     1     -38.669   6.839 -20.361  1.00  0.00     0.194 HD
BRANCH  30  32
HETATM   32  O2  UNL     1     -40.131   6.632 -21.807  1.00  0.00    -0.254 OA
BRANCH  32  33
HETATM   33  C2  UNL     1     -40.551   7.924 -22.215  1.00  0.00     0.369 C
BRANCH  33  34
HETATM   34  O1  UNL     1     -41.834   7.832 -22.675  1.00  0.00    -0.369 OA
HETATM   35  C1  UNL     1     -42.715   8.643 -21.995  1.00  0.00     0.204 C
ENDBRANCH  33  34
ENDBRANCH  32  33
ENDBRANCH  30  32
ENDBRANCH  21  30
ENDBRANCH  19  20
BRANCH  19  36
HETATM   36  O3  UNL     1     -40.047   4.047 -20.055  1.00  0.00    -0.388 OA
ATOM     37  H3  UNL     1     -40.053   3.116 -19.870  1.00  0.00     0.210 HD
ENDBRANCH  19  36
ENDBRANCH  18  19
ENDBRANCH   1  18
TORSDOF 9
ENDMDL