MODEL 4
REMARK VINA RESULT: -6.783277241      1.815      2.490
REMARK  12 active torsions:
REMARK  status: ('A' for Active; 'I' for Inactive)
REMARK    1  A    between atoms: C2_2  and  C5_5
REMARK    2  A    between atoms: C5_5  and  O2_7
REMARK    3  A    between atoms: O2_7  and  N1_8
REMARK    4  A    between atoms: N1_8  and  C6_9
REMARK    5  A    between atoms: C6_9  and  N2_10
REMARK    6  A    between atoms: C6_9  and  C10_23
REMARK       I    between atoms: N2_10  and  C7_12
REMARK    7  A    between atoms: C7_12  and  C8_14
REMARK    8  A    between atoms: C8_14  and  N3_15
REMARK    9  A    between atoms: C8_14  and  C9_20
REMARK   10  A    between atoms: C10_23  and  O7_25
REMARK   11  A    between atoms: O7_25  and  C11_26
REMARK   12  A    between atoms: C11_26  and  C12_27
ROOT
HETATM    1  C6  UNL     1     -42.548   7.787 -16.762  1.00  0.00     0.307 C
ENDROOT
BRANCH   1   2
HETATM    2  N1  UNL     1     -41.720   7.585 -15.579  1.00  0.00    -0.055 NA
BRANCH   2   3
HETATM    3  O2  UNL     1     -42.412   7.963 -14.480  1.00  0.00    -0.204 OA
BRANCH   3   4
HETATM    4  C5  UNL     1     -41.854   8.544 -13.345  1.00  0.00     0.284 C
HETATM    5  O1  UNL     1     -41.157   7.874 -12.587  1.00  0.00    -0.263 OA
BRANCH   4   6
HETATM    6  C2  UNL     1     -42.170   9.997 -13.117  1.00  0.00     0.038 C
HETATM    7  C1  UNL     1     -41.453  10.884 -14.080  1.00  0.00     0.025 C
HETATM    8  C3  UNL     1     -43.689  10.166 -13.435  1.00  0.00     0.025 C
HETATM    9  C4  UNL     1     -41.988  10.387 -11.701  1.00  0.00     0.025 C
ENDBRANCH   4   6
ENDBRANCH   3   4
ENDBRANCH   2   3
ENDBRANCH   1   2
BRANCH   1  10
HETATM   10  N2  UNL     1     -42.428   6.718 -17.673  1.00  0.00    -0.329 N
HETATM   11  C7  UNL     1     -43.298   5.606 -17.575  1.00  0.00     0.278 C
HETATM   12  O3  UNL     1     -44.152   5.552 -16.673  1.00  0.00    -0.269 OA
ATOM     13  H2  UNL     1     -41.715   6.746 -18.401  1.00  0.00     0.164 HD
BRANCH  11  14
HETATM   14  C8  UNL     1     -43.179   4.493 -18.567  1.00  0.00     0.346 C
HETATM   15  S1  UNL     1     -42.954   2.954 -17.723  1.00  0.00    -0.034 SA
BRANCH  14  16
HETATM   16  N3  UNL     1     -44.282   4.553 -19.479  1.00  0.00    -0.041 N
ATOM     17  H33 UNL     1     -45.165   4.298 -19.036  1.00  0.00     0.277 HD
ATOM     18  H32 UNL     1     -44.521   5.512 -19.734  1.00  0.00     0.277 HD
ATOM     19  H31 UNL     1     -44.077   3.976 -20.294  1.00  0.00     0.277 HD
ENDBRANCH  14  16
BRANCH  14  20
HETATM   20  C9  UNL     1     -41.921   4.869 -19.348  1.00  0.00     0.232 C
HETATM   21  O4  UNL     1     -41.970   5.421 -20.447  1.00  0.00    -0.645 OA
HETATM   22  O5  UNL     1     -40.677   4.584 -18.813  1.00  0.00    -0.645 OA
ENDBRANCH  14  20
ENDBRANCH  11  14
ENDBRANCH   1  10
BRANCH   1  23
HETATM   23  C10 UNL     1     -42.159   9.098 -17.318  1.00  0.00     0.300 C
HETATM   24  O6  UNL     1     -42.918  10.105 -17.265  1.00  0.00    -0.261 OA
BRANCH  23  25
HETATM   25  O7  UNL     1     -40.929   9.175 -17.885  1.00  0.00    -0.311 OA
BRANCH  25  26
HETATM   26  C11 UNL     1     -40.559   9.408 -19.200  1.00  0.00     0.258 C
BRANCH  26  27
HETATM   27  C12 UNL     1     -40.037   8.248 -19.955  1.00  0.00     0.137 A
HETATM   28  N4  UNL     1     -39.274   7.173 -19.546  1.00  0.00    -0.272 N
HETATM   29  N5  UNL     1     -39.266   6.689 -20.744  1.00  0.00    -0.240 N
ATOM     30  H4  UNL     1     -38.875   6.878 -18.654  1.00  0.00     0.190 HD
HETATM   31  N6  UNL     1     -39.994   7.705 -21.168  1.00  0.00    -0.272 N
ATOM     32  H5  UNL     1     -38.863   5.861 -21.183  1.00  0.00     0.208 HD
ATOM     33  H6  UNL     1     -40.377   7.971 -22.076  1.00  0.00     0.190 HD
ENDBRANCH  26  27
ENDBRANCH  25  26
ENDBRANCH  23  25
ENDBRANCH   1  23
TORSDOF 12
ENDMDL