MODEL 1
REMARK VINA RESULT: -8.022446608      0.000      0.000
REMARK  12 active torsions:
REMARK  status: ('A' for Active; 'I' for Inactive)
REMARK       I    between atoms: C2_2  and  N1_4
REMARK    1  A    between atoms: N1_4  and  C3_6
REMARK    2  A    between atoms: C4_7  and  C5_8
REMARK    3  A    between atoms: C5_8  and  C6_9
REMARK    4  A    between atoms: C5_8  and  C7_15
REMARK    5  A    between atoms: N2_10  and  N3_12
REMARK    6  A    between atoms: C7_15  and  O3_17
REMARK    7  A    between atoms: O3_17  and  C8_18
REMARK    8  A    between atoms: C8_18  and  O4_19
REMARK    9  A    between atoms: O4_19  and  C9_20
REMARK   10  A    between atoms: C9_20  and  C10_22
REMARK   11  A    between atoms: N4_24  and  O6_26
REMARK   12  A    between atoms: C13_34  and  N7_35
ROOT
HETATM    1  C5  UNL     1     -43.383   6.704 -19.573  1.00  0.00     0.177 C
ENDROOT
BRANCH   1   2
HETATM    2  C4  UNL     1     -41.949   6.658 -19.868  1.00  0.00     0.063 A
HETATM    3  C3  UNL     1     -41.249   5.614 -20.390  1.00  0.00     0.103 A
HETATM    4  C13 UNL     1     -39.897   5.726 -20.637  1.00  0.00     0.132 A
HETATM    5  N6  UNL     1     -39.221   6.861 -20.374  1.00  0.00    -0.293 N
HETATM    6  C12 UNL     1     -39.908   7.892 -19.858  1.00  0.00     0.326 A
ATOM      7  H6  UNL     1     -38.221   6.935 -20.560  1.00  0.00     0.172 HD
HETATM    8  N5  UNL     1     -41.206   7.780 -19.622  1.00  0.00    -0.309 N
HETATM    9  O7  UNL     1     -39.303   8.996 -19.590  1.00  0.00    -0.247 OA
ATOM     10  H5  UNL     1     -41.688   8.589 -19.230  1.00  0.00     0.170 HD
BRANCH   3  11
HETATM   11  N1  UNL     1     -41.864   4.389 -20.675  1.00  0.00    -0.323 N
HETATM   12  C2  UNL     1     -41.990   3.304 -19.768  1.00  0.00     0.218 C
HETATM   13  C1  UNL     1     -42.665   2.028 -20.145  1.00  0.00     0.117 C
HETATM   14  O1  UNL     1     -41.544   3.333 -18.576  1.00  0.00    -0.274 OA
ATOM     15  H1  UNL     1     -42.252   4.267 -21.610  1.00  0.00     0.169 HD
ENDBRANCH   3  11
BRANCH   4  16
HETATM   16  N7  UNL     1     -39.211   4.734 -21.143  1.00  0.00    -0.383 N
ATOM     17  H72 UNL     1     -39.090   4.728 -22.156  1.00  0.00     0.157 HD
ATOM     18  H71 UNL     1     -38.818   4.001 -20.552  1.00  0.00     0.157 HD
ENDBRANCH   4  16
ENDBRANCH   1   2
BRANCH   1  19
HETATM   19  C6  UNL     1     -44.238   7.402 -20.539  1.00  0.00     0.100 C
HETATM   20  N2  UNL     1     -45.089   6.756 -21.251  1.00  0.00    -0.321 N
ATOM     21  H2  UNL     1     -45.663   7.278 -21.912  1.00  0.00     0.185 HD
BRANCH  20  22
HETATM   22  N3  UNL     1     -45.267   5.374 -21.166  1.00  0.00    -0.346 N
ATOM     23  H32 UNL     1     -45.315   4.965 -20.233  1.00  0.00     0.176 HD
ATOM     24  H31 UNL     1     -45.350   4.769 -21.984  1.00  0.00     0.176 HD
ENDBRANCH  20  22
ENDBRANCH   1  19
BRANCH   1  25
HETATM   25  C7  UNL     1     -43.651   7.163 -18.169  1.00  0.00     0.276 C
HETATM   26  O2  UNL     1     -44.747   7.712 -17.936  1.00  0.00    -0.264 OA
BRANCH  25  27
HETATM   27  O3  UNL     1     -42.764   7.017 -17.124  1.00  0.00    -0.294 OA
BRANCH  27  28
HETATM   28  C8  UNL     1     -42.463   8.094 -16.297  1.00  0.00     0.358 C
BRANCH  28  29
HETATM   29  O4  UNL     1     -41.768   7.704 -15.118  1.00  0.00    -0.290 OA
BRANCH  29  30
HETATM   30  C9  UNL     1     -42.048   8.231 -13.877  1.00  0.00     0.309 C
HETATM   31  O5  UNL     1     -43.058   7.780 -13.283  1.00  0.00    -0.258 OA
BRANCH  30  32
HETATM   32  C10 UNL     1     -41.260   9.257 -13.230  1.00  0.00     0.103 C
HETATM   33  C11 UNL     1     -41.339  10.654 -13.699  1.00  0.00     0.077 C
HETATM   34  N4  UNL     1     -40.498   8.938 -12.247  1.00  0.00    -0.268 N
ATOM     35  H4  UNL     1     -39.950   9.673 -11.799  1.00  0.00     0.194 HD
BRANCH  34  36
HETATM   36  O6  UNL     1     -40.386   7.665 -11.773  1.00  0.00    -0.290 OA
ATOM     37  H6  UNL     1     -39.699   7.069 -12.043  1.00  0.00     0.244 HD
ENDBRANCH  34  36
ENDBRANCH  30  32
ENDBRANCH  29  30
ENDBRANCH  28  29
ENDBRANCH  27  28
ENDBRANCH  25  27
ENDBRANCH   1  25
TORSDOF 12
ENDMDL