MODEL 5
REMARK VINA RESULT: -7.746710939      2.239      5.929
REMARK  10 active torsions:
REMARK  status: ('A' for Active; 'I' for Inactive)
REMARK    1  A    between atoms: O1_2  and  C2_3
REMARK       I    between atoms: C2_3  and  N1_5
REMARK    2  A    between atoms: N1_5  and  N2_7
REMARK    3  A    between atoms: N2_7  and  C3_9
REMARK    4  A    between atoms: C4_12  and  N4_13
REMARK    5  A    between atoms: N4_13  and  N5_15
REMARK    6  A    between atoms: N6_17  and  N7_19
REMARK    7  A    between atoms: N7_19  and  N8_21
REMARK    8  A    between atoms: N9_26  and  C8_27
REMARK    9  A    between atoms: C8_27  and  C10_29
REMARK   10  A    between atoms: C11_32  and  N10_33
ROOT
HETATM    1  C3  UNL     1     -42.662   3.738 -20.575  1.00  0.00     0.713 C
HETATM    2  N3  UNL     1     -41.362   3.732 -20.199  1.00  0.00    -0.168 N
ATOM      3  H3  UNL     1     -40.897   2.825 -20.203  1.00  0.00     0.186 HD
HETATM    4  C4  UNL     1     -40.613   4.780 -19.821  1.00  0.00     0.206 C
HETATM    5  C7  UNL     1     -40.987   6.119 -19.888  1.00  0.00     0.308 C
HETATM    6  O3  UNL     1     -40.206   6.887 -19.336  1.00  0.00    -0.263 OA
HETATM    7  N9  UNL     1     -42.041   6.709 -20.445  1.00  0.00    -0.129 N
HETATM    8  C11 UNL     1     -43.161   6.088 -20.862  1.00  0.00     0.696 C
HETATM    9  N11 UNL     1     -43.431   4.758 -20.964  1.00  0.00    -0.021 N
ATOM     10  H11 UNL     1     -44.325   4.511 -21.389  1.00  0.00     0.203 HD
ENDROOT
BRANCH   4  11
HETATM   11  N4  UNL     1     -39.446   4.518 -19.355  1.00  0.00    -0.265 N
ATOM     12  H4  UNL     1     -38.664   4.337 -19.985  1.00  0.00     0.190 HD
BRANCH  11  13
HETATM   13  N5  UNL     1     -39.267   4.486 -17.976  1.00  0.00    -0.226 N
HETATM   14  N6  UNL     1     -38.257   3.902 -17.500  1.00  0.00    -0.218 N
ATOM     15  H6  UNL     1     -38.108   3.868 -16.491  1.00  0.00     0.211 HD
ATOM     16  H5  UNL     1     -39.945   4.931 -17.357  1.00  0.00     0.210 HD
BRANCH  14  17
HETATM   17  N7  UNL     1     -37.346   3.304 -18.367  1.00  0.00    -0.247 N
ATOM     18  H7  UNL     1     -37.240   3.629 -19.328  1.00  0.00     0.203 HD
BRANCH  17  19
HETATM   19  N8  UNL     1     -36.585   2.246 -17.874  1.00  0.00    -0.224 NA
HETATM   20  C5  UNL     1     -35.200   2.324 -18.231  1.00  0.00     0.137 C
HETATM   21  C6  UNL     1     -36.822   1.965 -16.485  1.00  0.00     0.137 C
ENDBRANCH  17  19
ENDBRANCH  14  17
ENDBRANCH  11  13
ENDBRANCH   4  11
BRANCH   1  22
HETATM   22  N2  UNL     1     -43.219   2.574 -20.540  1.00  0.00    -0.127 N
ATOM     23  H2  UNL     1     -44.126   2.496 -20.081  1.00  0.00     0.205 HD
BRANCH  22  24
HETATM   24  N1  UNL     1     -42.673   1.432 -21.082  1.00  0.00    -0.231 N
HETATM   25  C2  UNL     1     -43.427   0.661 -22.010  1.00  0.00     0.379 C
HETATM   26  O2  UNL     1     -44.600   1.010 -22.351  1.00  0.00    -0.237 OA
ATOM     27  H1  UNL     1     -41.733   1.139 -20.818  1.00  0.00     0.193 HD
BRANCH  25  28
HETATM   28  O1  UNL     1     -42.946  -0.500 -22.597  1.00  0.00    -0.308 OA
HETATM   29  C1  UNL     1     -43.754  -1.317 -23.448  1.00  0.00     0.215 C
ENDBRANCH  25  28
ENDBRANCH  22  24
ENDBRANCH   1  22
BRANCH   7  30
HETATM   30  C8  UNL     1     -42.012   8.099 -20.629  1.00  0.00     0.208 C
HETATM   31  C9  UNL     1     -43.202   8.893 -20.196  1.00  0.00     0.045 C
BRANCH  30  32
HETATM   32  C10 UNL     1     -41.759   8.473 -22.038  1.00  0.00     0.197 C
HETATM   33  O4  UNL     1     -40.635   8.351 -22.540  1.00  0.00    -0.646 OA
HETATM   34  O5  UNL     1     -42.787   8.965 -22.797  1.00  0.00    -0.646 OA
ENDBRANCH  30  32
ENDBRANCH   7  30
BRANCH   8  35
HETATM   35  N10 UNL     1     -44.114   6.834 -21.214  1.00  0.00    -0.234 N
ATOM     36 2H10 UNL     1     -43.830   7.781 -21.467  1.00  0.00     0.174 HD
ATOM     37 1H10 UNL     1     -45.044   6.414 -21.206  1.00  0.00     0.174 HD
ENDBRANCH   8  35
TORSDOF 10
ENDMDL