MODEL 2
REMARK VINA RESULT: -8.246932102      3.062      4.963
REMARK  18 active torsions:
REMARK  status: ('A' for Active; 'I' for Inactive)
REMARK    1  A    between atoms: O1_2  and  C2_3
REMARK    2  A    between atoms: C2_3  and  C3_5
REMARK    3  A    between atoms: C4_6  and  S1_7
REMARK    4  A    between atoms: S1_7  and  C5_8
REMARK    5  A    between atoms: C5_8  and  C6_9
REMARK    6  A    between atoms: C9_12  and  C10_13
REMARK    7  A    between atoms: C10_13  and  O3_14
REMARK    8  A    between atoms: C10_13  and  C13_23
REMARK    9  A    between atoms: O3_14  and  C11_15
REMARK   10  A    between atoms: N1_17  and  O4_18
REMARK   11  A    between atoms: C16_28  and  O7_29
REMARK   12  A    between atoms: C17_32  and  N4_33
REMARK   13  A    between atoms: C19_42  and  N8_43
REMARK   14  A    between atoms: C20_46  and  C21_47
REMARK   15  A    between atoms: C21_47  and  O9_49
REMARK   16  A    between atoms: C23_52  and  C24_53
REMARK   17  A    between atoms: C24_53  and  O11_55
REMARK   18  A    between atoms: C26_57  and  O12_58
ROOT
HETATM    1  C13 UNL     1      44.657 -22.718  37.002  1.00  0.00     0.262 C
HETATM    2  O6  UNL     1      44.520 -23.637  37.676  1.00  0.00    -0.278 OA
HETATM    3  C14 UNL     1      45.778 -21.775  37.635  1.00  0.00     0.141 C
HETATM    4  N3  UNL     1      46.588 -21.091  38.090  1.00  0.00    -0.188 NA
ENDROOT
BRANCH   1   5
HETATM    5  C10 UNL     1      44.140 -22.119  35.767  1.00  0.00     0.248 C
BRANCH   5   6
HETATM    6  C9  UNL     1      42.691 -22.014  35.685  1.00  0.00    -0.018 A
HETATM    7  C8  UNL     1      41.930 -23.186  35.210  1.00  0.00     0.011 A
HETATM    8  C7  UNL     1      40.582 -22.889  35.164  1.00  0.00     0.011 A
HETATM    9  C6  UNL     1      39.943 -21.790  35.475  1.00  0.00    -0.015 A
HETATM   10  C16 UNL     1      40.700 -20.695  35.932  1.00  0.00     0.073 A
HETATM   11  C15 UNL     1      42.066 -20.887  36.011  1.00  0.00     0.047 A
BRANCH   9  12
HETATM   12  C5  UNL     1      38.414 -21.607  35.561  1.00  0.00     0.122 C
BRANCH  12  13
HETATM   13  S1  UNL     1      37.627 -20.989  34.271  1.00  0.00    -0.100 SA
BRANCH  13  14
HETATM   14  C4  UNL     1      37.942 -19.984  32.925  1.00  0.00     0.125 C
HETATM   15  C3  UNL     1      37.251 -19.446  31.900  1.00  0.00     0.099 C
HETATM   16  C26 UNL     1      38.160 -18.666  31.051  1.00  0.00     0.178 C
HETATM   17  C17 UNL     1      39.451 -18.646  31.796  1.00  0.00     0.245 C
HETATM   18  C23 UNL     1      37.815 -17.205  30.916  1.00  0.00     0.195 C
HETATM   19  O8  UNL     1      39.331 -19.570  32.800  1.00  0.00    -0.303 OA
HETATM   20  C20 UNL     1      39.590 -17.283  32.255  1.00  0.00     0.212 C
HETATM   21  O10 UNL     1      38.478 -16.494  31.856  1.00  0.00    -0.367 OA
BRANCH  15  22
HETATM   22  C2  UNL     1      35.804 -19.627  31.639  1.00  0.00     0.295 C
HETATM   23  O2  UNL     1      35.184 -20.670  31.621  1.00  0.00    -0.259 OA
BRANCH  22  24
HETATM   24  O1  UNL     1      35.045 -18.460  31.363  1.00  0.00    -0.323 OA
HETATM   25  C1  UNL     1      34.526 -17.792  32.529  1.00  0.00     0.213 C
ENDBRANCH  22  24
ENDBRANCH  15  22
BRANCH  16  26
HETATM   26  O12 UNL     1      38.335 -19.131  29.771  1.00  0.00    -0.377 OA
ATOM     27  H12 UNL     1      38.340 -18.473  29.086  1.00  0.00     0.211 HD
ENDBRANCH  16  26
BRANCH  17  28
HETATM   28  N4  UNL     1      40.519 -19.208  30.976  1.00  0.00    -0.067 N
HETATM   29  N5  UNL     1      41.208 -18.405  30.117  1.00  0.00    -0.112 N
HETATM   30  C18 UNL     1      42.138 -19.143  29.465  1.00  0.00     0.705 A
ATOM     31  H5  UNL     1      41.049 -17.407  29.986  1.00  0.00     0.206 HD
HETATM   32  N6  UNL     1      42.982 -18.709  28.596  1.00  0.00    -0.233 N
HETATM   33  N7  UNL     1      42.043 -20.448  29.924  1.00  0.00    -0.020 N
ATOM     34  H62 UNL     1      43.052 -17.750  28.258  1.00  0.00     0.174 HD
ATOM     35  H61 UNL     1      43.683 -19.265  28.104  1.00  0.00     0.174 HD
HETATM   36  C19 UNL     1      41.076 -20.382  30.799  1.00  0.00     0.710 A
ATOM     37  H7  UNL     1      42.594 -21.261  29.647  1.00  0.00     0.203 HD
BRANCH  36  38
HETATM   38  N8  UNL     1      40.682 -21.458  31.464  1.00  0.00    -0.233 N
ATOM     39  H82 UNL     1      40.047 -22.135  31.041  1.00  0.00     0.174 HD
ATOM     40  H81 UNL     1      40.990 -21.650  32.417  1.00  0.00     0.174 HD
ENDBRANCH  36  38
ENDBRANCH  17  28
BRANCH  20  41
HETATM   41  C21 UNL     1      39.662 -17.025  33.765  1.00  0.00     0.148 C
HETATM   42  C22 UNL     1      40.985 -16.525  34.257  1.00  0.00     0.042 C
BRANCH  41  43
HETATM   43  O9  UNL     1      38.539 -16.378  34.217  1.00  0.00    -0.393 OA
ATOM     44  H9  UNL     1      38.403 -15.559  33.756  1.00  0.00     0.210 HD
ENDBRANCH  41  43
ENDBRANCH  20  41
BRANCH  18  45
HETATM   45  C24 UNL     1      38.273 -16.658  29.557  1.00  0.00     0.146 C
HETATM   46  C25 UNL     1      38.870 -15.273  29.790  1.00  0.00     0.042 C
BRANCH  45  47
HETATM   47  O11 UNL     1      37.248 -16.460  28.667  1.00  0.00    -0.393 OA
ATOM     48  H11 UNL     1      37.316 -15.647  28.181  1.00  0.00     0.210 HD
ENDBRANCH  45  47
ENDBRANCH  18  45
ENDBRANCH  13  14
ENDBRANCH  12  13
ENDBRANCH   9  12
BRANCH  10  49
HETATM   49  O7  UNL     1      40.161 -19.511  36.278  1.00  0.00    -0.360 OA
ATOM     50  H7  UNL     1      39.588 -19.394  37.026  1.00  0.00     0.217 HD
ENDBRANCH  10  49
ENDBRANCH   5   6
BRANCH   5  51
HETATM   51  O3  UNL     1      44.728 -22.682  34.637  1.00  0.00    -0.314 OA
BRANCH  51  52
HETATM   52  C11 UNL     1      44.653 -22.096  33.407  1.00  0.00     0.185 A
HETATM   53  C12 UNL     1      44.995 -20.785  33.118  1.00  0.00     0.210 A
HETATM   54  N1  UNL     1      44.786 -20.558  31.830  1.00  0.00    -0.109 N
HETATM   55  O5  UNL     1      44.322 -21.694  31.304  1.00  0.00    -0.127 OA
HETATM   56  N2  UNL     1      44.236 -22.597  32.194  1.00  0.00    -0.216 N
ATOM     57  H2  UNL     1      43.908 -23.549  32.034  1.00  0.00     0.199 HD
BRANCH  54  58
HETATM   58  O4  UNL     1      44.959 -19.411  31.114  1.00  0.00    -0.262 OA
ATOM     59  H4  UNL     1      44.773 -19.237  30.199  1.00  0.00     0.247 HD
ENDBRANCH  54  58
ENDBRANCH  51  52
ENDBRANCH   5  51
ENDBRANCH   1   5
TORSDOF 18
ENDMDL