MODEL 3
REMARK VINA RESULT: -8.494516894      2.936      6.904
REMARK  16 active torsions:
REMARK  status: ('A' for Active; 'I' for Inactive)
REMARK    1  A    between atoms: N1_1  and  N2_4
REMARK    2  A    between atoms: C1_5  and  C2_6
REMARK    3  A    between atoms: C2_6  and  S1_7
REMARK    4  A    between atoms: S1_7  and  C3_8
REMARK    5  A    between atoms: C4_9  and  N3_10
REMARK    6  A    between atoms: N3_10  and  O1_12
REMARK    7  A    between atoms: N5_20  and  C8_22
REMARK    8  A    between atoms: C8_22  and  O4_23
REMARK    9  A    between atoms: C8_22  and  C13_33
REMARK   10  A    between atoms: O4_23  and  N6_24
REMARK   11  A    between atoms: N6_24  and  C9_25
REMARK   12  A    between atoms: C9_25  and  C10_26
REMARK   13  A    between atoms: C9_25  and  C12_30
REMARK   14  A    between atoms: C10_26  and  C11_27
REMARK   15  A    between atoms: C18_39  and  O10_40
REMARK   16  A    between atoms: C19_42  and  O11_43
ROOT
HETATM    1  C3  UNL     1      41.471 -22.186  32.525  1.00  0.00     0.022 C
HETATM    2  C4  UNL     1      41.597 -21.608  31.369  1.00  0.00     0.136 C
HETATM    3  C5  UNL     1      40.563 -21.548  30.323  1.00  0.00     0.281 C
HETATM    4  O2  UNL     1      40.975 -21.408  29.144  1.00  0.00    -0.265 OA
HETATM    5  N4  UNL     1      39.136 -21.626  30.459  1.00  0.00    -0.258 N
HETATM    6  C6  UNL     1      37.980 -22.150  29.816  1.00  0.00     0.277 A
HETATM    7  O3  UNL     1      37.826 -22.861  28.789  1.00  0.00    -0.266 OA
HETATM    8  C7  UNL     1      37.165 -21.512  30.842  1.00  0.00     0.110 A
HETATM    9  N5  UNL     1      35.886 -21.453  30.963  1.00  0.00    -0.358 N
ATOM     10  H5  UNL     1      35.283 -21.899  30.272  1.00  0.00     0.162 HD
HETATM   11  C20 UNL     1      38.372 -21.042  31.562  1.00  0.00     0.214 A
HETATM   12  S2  UNL     1      38.770 -21.917  33.064  1.00  0.00    -0.132 SA
HETATM   13  C21 UNL     1      40.230 -22.922  32.974  1.00  0.00     0.124 C
ENDROOT
BRANCH   9  14
HETATM   14  C8  UNL     1      35.306 -20.743  32.094  1.00  0.00     0.250 C
BRANCH  14  15
HETATM   15  O4  UNL     1      34.526 -19.675  31.656  1.00  0.00    -0.259 OA
BRANCH  15  16
HETATM   16  N6  UNL     1      34.367 -18.681  32.495  1.00  0.00    -0.082 NA
BRANCH  16  17
HETATM   17  C9  UNL     1      34.587 -17.407  31.874  1.00  0.00     0.217 C
BRANCH  17  18
HETATM   18  C10 UNL     1      34.801 -16.310  32.919  1.00  0.00     0.147 C
BRANCH  18  19
HETATM   19  C11 UNL     1      33.938 -15.139  32.559  1.00  0.00     0.174 C
HETATM   20  O5  UNL     1      32.983 -15.225  31.764  1.00  0.00    -0.648 OA
HETATM   21  O6  UNL     1      34.201 -13.894  33.128  1.00  0.00    -0.648 OA
ENDBRANCH  18  19
ENDBRANCH  17  18
BRANCH  17  22
HETATM   22  C12 UNL     1      35.692 -17.392  30.919  1.00  0.00     0.195 C
HETATM   23  O7  UNL     1      36.915 -17.499  31.185  1.00  0.00    -0.647 OA
HETATM   24  O8  UNL     1      35.357 -17.239  29.560  1.00  0.00    -0.647 OA
ENDBRANCH  17  22
ENDBRANCH  16  17
ENDBRANCH  15  16
ENDBRANCH  14  15
BRANCH  14  25
HETATM   25  C13 UNL     1      34.527 -21.741  32.882  1.00  0.00     0.042 C
HETATM   26  C14 UNL     1      34.705 -21.744  34.379  1.00  0.00     0.050 C
HETATM   27  C15 UNL     1      34.807 -23.257  34.327  1.00  0.00     0.090 C
HETATM   28  C16 UNL     1      35.117 -23.151  32.846  1.00  0.00     0.050 C
HETATM   29  O9  UNL     1      35.817 -23.733  35.122  1.00  0.00    -0.375 OA
HETATM   30  C19 UNL     1      33.559 -24.023  34.606  1.00  0.00     0.183 C
HETATM   31  C17 UNL     1      35.427 -24.890  35.746  1.00  0.00     0.203 C
HETATM   32  C18 UNL     1      33.939 -24.993  35.686  1.00  0.00     0.173 C
BRANCH  32  33
HETATM   33  O10 UNL     1      33.625 -26.316  35.344  1.00  0.00    -0.391 OA
ATOM     34  H10 UNL     1      33.878 -26.441  34.437  1.00  0.00     0.210 HD
ENDBRANCH  32  33
BRANCH  30  35
HETATM   35  O11 UNL     1      33.205 -24.795  33.478  1.00  0.00    -0.390 OA
ATOM     36  H11 UNL     1      33.976 -24.975  32.952  1.00  0.00     0.210 HD
ENDBRANCH  30  35
ENDBRANCH  14  25
ENDBRANCH   9  14
BRANCH   2  37
HETATM   37  N3  UNL     1      42.783 -20.948  30.971  1.00  0.00    -0.263 N
ATOM     38  H3  UNL     1      43.647 -21.450  30.769  1.00  0.00     0.194 HD
BRANCH  37  39
HETATM   39  O1  UNL     1      42.687 -19.585  30.877  1.00  0.00    -0.289 OA
ATOM     40  H1  UNL     1      43.418 -19.158  30.444  1.00  0.00     0.244 HD
ENDBRANCH  37  39
ENDBRANCH   2  37
BRANCH   1  41
HETATM   41  S1  UNL     1      42.751 -22.200  33.697  1.00  0.00    -0.123 SA
BRANCH  41  42
HETATM   42  C2  UNL     1      42.669 -21.196  35.132  1.00  0.00     0.159 C
BRANCH  42  43
HETATM   43  C1  UNL     1      42.249 -19.784  34.758  1.00  0.00     0.130 A
HETATM   44  N2  UNL     1      41.385 -19.004  35.426  1.00  0.00    -0.221 N
HETATM   45  C22 UNL     1      41.281 -17.831  34.768  1.00  0.00     0.213 A
HETATM   46  N8  UNL     1      42.091 -17.897  33.685  1.00  0.00    -0.273 N
HETATM   47  S3  UNL     1      40.375 -16.538  35.146  1.00  0.00    -0.037 SA
HETATM   48  N7  UNL     1      42.674 -19.113  33.706  1.00  0.00    -0.284 N
ATOM     49  H8  UNL     1      42.232 -17.166  32.988  1.00  0.00     0.189 HD
ATOM     50  H7  UNL     1      43.339 -19.459  33.015  1.00  0.00     0.188 HD
BRANCH  44  51
HETATM   51  N1  UNL     1      40.726 -19.379  36.601  1.00  0.00    -0.335 N
ATOM     52  H12 UNL     1      40.953 -20.162  37.215  1.00  0.00     0.177 HD
ATOM     53  H11 UNL     1      39.916 -18.895  36.988  1.00  0.00     0.177 HD
ENDBRANCH  44  51
ENDBRANCH  42  43
ENDBRANCH  41  42
ENDBRANCH   1  41
TORSDOF 16
ENDMDL