MODEL 1
REMARK VINA RESULT: -8.770713414      0.000      0.000
REMARK  16 active torsions:
REMARK  status: ('A' for Active; 'I' for Inactive)
REMARK    1  A    between atoms: C2_2  and  C4_4
REMARK    2  A    between atoms: C2_2  and  O2_7
REMARK    3  A    between atoms: C4_4  and  O1_5
REMARK    4  A    between atoms: O2_7  and  N1_8
REMARK    5  A    between atoms: N1_8  and  C5_9
REMARK    6  A    between atoms: C5_9  and  C6_10
REMARK    7  A    between atoms: C5_9  and  C23_51
REMARK       I    between atoms: C6_10  and  N2_12
REMARK    8  A    between atoms: C7_14  and  C8_15
REMARK    9  A    between atoms: C8_15  and  O5_17
REMARK   10  A    between atoms: O5_17  and  C9_18
REMARK   11  A    between atoms: C9_18  and  C10_19
REMARK   12  A    between atoms: C11_21  and  N3_22
REMARK   13  A    between atoms: C13_26  and  N5_27
REMARK   14  A    between atoms: C16_35  and  O8_36
REMARK   15  A    between atoms: C21_48  and  C22_49
REMARK   16  A    between atoms: C25_54  and  N10_55
ROOT
HETATM    1  N3  UNL     1      41.038 -18.791  32.415  1.00  0.00    -0.265 N
HETATM    2  C12 UNL     1      41.151 -18.963  33.735  1.00  0.00     0.147 A
HETATM    3  N4  UNL     1      41.756 -20.044  34.233  1.00  0.00    -0.175 N
ATOM      4  H4  UNL     1      42.143 -20.757  33.615  1.00  0.00     0.186 HD
HETATM    5  C13 UNL     1      41.843 -20.171  35.567  1.00  0.00     0.680 A
HETATM    6  N6  UNL     1      41.348 -19.262  36.416  1.00  0.00    -0.155 N
ATOM      7  H6  UNL     1      41.449 -19.421  37.418  1.00  0.00     0.187 HD
HETATM    8  C14 UNL     1      40.721 -18.140  35.996  1.00  0.00     0.276 A
HETATM    9  O7  UNL     1      40.269 -17.309  36.821  1.00  0.00    -0.267 OA
HETATM   10  C15 UNL     1      40.603 -17.955  34.629  1.00  0.00     0.113 A
HETATM   11  C16 UNL     1      39.967 -16.820  34.116  1.00  0.00     0.116 A
HETATM   12  C17 UNL     1      39.916 -16.760  32.709  1.00  0.00     0.114 A
HETATM   13  N7  UNL     1      39.370 -15.795  31.947  1.00  0.00    -0.328 N
ATOM     14  H7  UNL     1      38.905 -14.950  32.279  1.00  0.00     0.168 HD
HETATM   15  C18 UNL     1      39.555 -16.155  30.671  1.00  0.00     0.190 A
HETATM   16  C19 UNL     1      39.140 -15.430  29.488  1.00  0.00     0.137 C
HETATM   17  N8  UNL     1      38.796 -14.865  28.537  1.00  0.00    -0.188 NA
HETATM   18  N9  UNL     1      40.205 -17.327  30.610  1.00  0.00    -0.317 N
ATOM     19  H9  UNL     1      40.475 -17.831  29.766  1.00  0.00     0.169 HD
HETATM   20  C20 UNL     1      40.434 -17.712  31.899  1.00  0.00     0.145 A
ENDROOT
BRANCH  11  21
HETATM   21  O8  UNL     1      39.429 -15.835  34.849  1.00  0.00    -0.357 OA
ATOM     22  H8  UNL     1      38.511 -15.591  34.851  1.00  0.00     0.217 HD
ENDBRANCH  11  21
BRANCH   1  23
HETATM   23  C11 UNL     1      41.571 -19.774  31.498  1.00  0.00     0.381 C
HETATM   24  O6  UNL     1      41.039 -21.049  31.709  1.00  0.00    -0.333 OA
HETATM   25  C10 UNL     1      42.012 -21.942  31.262  1.00  0.00     0.186 C
HETATM   26  C21 UNL     1      43.242 -21.098  31.116  1.00  0.00     0.218 C
HETATM   27  O9  UNL     1      42.925 -19.906  31.747  1.00  0.00    -0.329 OA
BRANCH  25  28
HETATM   28  C9  UNL     1      41.499 -22.527  29.985  1.00  0.00     0.214 C
BRANCH  28  29
HETATM   29  O5  UNL     1      40.183 -22.959  29.990  1.00  0.00    -0.314 OA
BRANCH  29  30
HETATM   30  C8  UNL     1      39.140 -22.477  29.254  1.00  0.00     0.298 C
HETATM   31  O4  UNL     1      38.982 -22.874  28.095  1.00  0.00    -0.259 OA
BRANCH  30  32
HETATM   32  C7  UNL     1      38.172 -21.488  29.790  1.00  0.00     0.173 C
HETATM   33  N2  UNL     1      37.852 -21.671  31.020  1.00  0.00    -0.329 N
HETATM   34  C6  UNL     1      36.943 -20.804  31.652  1.00  0.00     0.249 C
ATOM     35  H2  UNL     1      38.259 -22.449  31.539  1.00  0.00     0.168 HD
HETATM   36  O3  UNL     1      35.689 -21.003  31.535  1.00  0.00    -0.271 OA
BRANCH  34  37
HETATM   37  C5  UNL     1      37.487 -19.675  32.447  1.00  0.00     0.248 C
BRANCH  37  38
HETATM   38  N1  UNL     1      37.244 -19.971  33.843  1.00  0.00    -0.079 NA
BRANCH  38  39
HETATM   39  O2  UNL     1      38.340 -20.393  34.490  1.00  0.00    -0.273 OA
BRANCH  39  40
HETATM   40  C2  UNL     1      37.962 -21.578  35.164  1.00  0.00     0.098 C
HETATM   41  C1  UNL     1      36.482 -21.760  35.229  1.00  0.00     0.050 C
HETATM   42  C3  UNL     1      38.529 -21.578  36.564  1.00  0.00     0.050 C
BRANCH  40  43
HETATM   43  C4  UNL     1      38.552 -22.802  34.452  1.00  0.00     0.203 C
BRANCH  43  44
HETATM   44  O1  UNL     1      39.535 -22.281  33.590  1.00  0.00    -0.398 OA
ATOM     45  H1  UNL     1      39.604 -22.915  32.886  1.00  0.00     0.209 HD
ENDBRANCH  43  44
ENDBRANCH  40  43
ENDBRANCH  39  40
ENDBRANCH  38  39
ENDBRANCH  37  38
BRANCH  37  46
HETATM   46  C23 UNL     1      36.683 -18.450  32.033  1.00  0.00     0.049 A
HETATM   47  C24 UNL     1      36.353 -17.514  32.973  1.00  0.00     0.080 A
HETATM   48  S1  UNL     1      35.476 -16.376  32.047  1.00  0.00    -0.064 SA
HETATM   49  C25 UNL     1      35.582 -17.155  30.536  1.00  0.00     0.142 A
HETATM   50  N11 UNL     1      36.284 -18.252  30.805  1.00  0.00    -0.338 N
ATOM     51  H11 UNL     1      36.506 -18.923  30.069  1.00  0.00     0.168 HD
BRANCH  49  52
HETATM   52  N10 UNL     1      35.088 -16.764  29.382  1.00  0.00    -0.380 N
ATOM     53 2H10 UNL     1      34.127 -16.506  29.160  1.00  0.00     0.158 HD
ATOM     54 1H10 UNL     1      35.575 -16.646  28.494  1.00  0.00     0.158 HD
ENDBRANCH  49  52
ENDBRANCH  37  46
ENDBRANCH  34  37
ENDBRANCH  30  32
ENDBRANCH  29  30
ENDBRANCH  28  29
ENDBRANCH  25  28
BRANCH  26  55
HETATM   55  C22 UNL     1      43.613 -20.861  29.690  1.00  0.00     0.265 C
HETATM   56  O10 UNL     1      44.549 -20.106  29.445  1.00  0.00    -0.304 OA
ENDBRANCH  26  55
ENDBRANCH   1  23
BRANCH   5  57
HETATM   57  N5  UNL     1      42.429 -21.217  36.089  1.00  0.00    -0.234 N
ATOM     58  H52 UNL     1      43.342 -21.072  36.520  1.00  0.00     0.174 HD
ATOM     59  H51 UNL     1      41.972 -22.128  36.055  1.00  0.00     0.174 HD
ENDBRANCH   5  57
TORSDOF 16
ENDMDL