MODEL 5
REMARK VINA RESULT: -8.438478153      3.104      7.865
REMARK  18 active torsions:
REMARK  status: ('A' for Active; 'I' for Inactive)
REMARK    1  A    between atoms: O1_2  and  C2_3
REMARK    2  A    between atoms: C2_3  and  C3_5
REMARK    3  A    between atoms: C6_10  and  O3_11
REMARK    4  A    between atoms: O3_11  and  C7_12
REMARK    5  A    between atoms: C7_12  and  C8_14
REMARK    6  A    between atoms: C8_14  and  C9_15
REMARK    7  A    between atoms: C8_14  and  O6_18
REMARK    8  A    between atoms: C9_15  and  O5_16
REMARK    9  A    between atoms: C11_20  and  O7_21
REMARK   10  A    between atoms: C11_20  and  O8_23
REMARK   11  A    between atoms: C12_25  and  O9_26
REMARK   12  A    between atoms: N2_28  and  N3_29
REMARK   13  A    between atoms: N3_29  and  C13_31
REMARK   14  A    between atoms: C15_33  and  C16_34
REMARK       I    between atoms: C16_34  and  N4_36
REMARK   15  A    between atoms: N4_36  and  S1_38
REMARK   16  A    between atoms: S1_38  and  C17_41
REMARK   17  A    between atoms: C20_44  and  C21_45
REMARK   18  A    between atoms: C25_51  and  O13_52
ROOT
HETATM    1  C21 UNL     1      39.999 -16.182  35.026  1.00  0.00     0.170 C
HETATM    2  C22 UNL     1      40.853 -17.290  35.462  1.00  0.00     0.064 C
HETATM    3  N5  UNL     1      41.524 -18.163  35.809  1.00  0.00    -0.197 NA
ENDROOT
BRANCH   1   4
HETATM    4  C20 UNL     1      39.515 -16.513  33.638  1.00  0.00    -0.003 A
HETATM    5  C19 UNL     1      39.969 -15.975  32.466  1.00  0.00     0.017 A
HETATM    6  C18 UNL     1      39.419 -16.399  31.327  1.00  0.00     0.034 A
HETATM    7  C17 UNL     1      38.432 -17.354  31.420  1.00  0.00     0.120 A
HETATM    8  S2  UNL     1      38.323 -17.607  33.114  1.00  0.00    -0.080 SA
BRANCH   7   9
HETATM    9  S1  UNL     1      37.542 -18.127  30.110  1.00  0.00     0.272 S
HETATM   10  O11 UNL     1      36.121 -18.250  30.538  1.00  0.00    -0.200 OA
HETATM   11  O12 UNL     1      37.548 -17.189  28.916  1.00  0.00    -0.200 OA
BRANCH   9  12
HETATM   12  N4  UNL     1      38.255 -19.621  29.712  1.00  0.00    -0.245 N
HETATM   13  C16 UNL     1      37.658 -20.906  29.934  1.00  0.00     0.265 C
HETATM   14  O10 UNL     1      36.520 -20.970  30.463  1.00  0.00    -0.267 OA
ATOM     15  H4  UNL     1      39.180 -19.600  29.283  1.00  0.00     0.182 HD
BRANCH  13  16
HETATM   16  C15 UNL     1      38.430 -22.065  29.519  1.00  0.00     0.035 A
HETATM   17  C14 UNL     1      39.761 -22.268  29.726  1.00  0.00     0.051 A
HETATM   18  C13 UNL     1      40.466 -23.393  29.319  1.00  0.00     0.082 A
HETATM   19  C25 UNL     1      39.745 -24.383  28.648  1.00  0.00     0.093 A
HETATM   20  C24 UNL     1      38.403 -24.215  28.420  1.00  0.00     0.040 A
HETATM   21  C23 UNL     1      37.752 -23.080  28.845  1.00  0.00     0.020 A
BRANCH  18  22
HETATM   22  N3  UNL     1      41.820 -23.617  29.481  1.00  0.00    -0.292 N
ATOM     23  H3  UNL     1      42.127 -24.253  28.746  1.00  0.00     0.187 HD
BRANCH  22  24
HETATM   24  N2  UNL     1      42.868 -23.317  30.231  1.00  0.00    -0.249 N
HETATM   25  C4  UNL     1      44.257 -22.868  30.310  1.00  0.00     0.137 C
HETATM   26  C3  UNL     1      44.732 -21.708  30.132  1.00  0.00     0.096 C
HETATM   27  N1  UNL     1      44.373 -24.015  31.103  1.00  0.00    -0.349 N
HETATM   28  C12 UNL     1      45.588 -21.004  31.253  1.00  0.00     0.226 C
HETATM   29  C11 UNL     1      44.367 -21.015  32.238  1.00  0.00     0.222 C
HETATM   30  C6  UNL     1      43.697 -22.268  32.495  1.00  0.00     0.241 C
HETATM   31  C5  UNL     1      43.159 -23.320  31.716  1.00  0.00     0.244 C
ATOM     32  H1  UNL     1      44.948 -24.851  31.211  1.00  0.00     0.163 HD
BRANCH  26  33
HETATM   33  C2  UNL     1      44.280 -20.875  29.111  1.00  0.00     0.295 C
HETATM   34  O2  UNL     1      44.959 -20.369  28.235  1.00  0.00    -0.259 OA
BRANCH  33  35
HETATM   35  O1  UNL     1      42.903 -20.529  29.000  1.00  0.00    -0.323 OA
HETATM   36  C1  UNL     1      42.592 -19.209  28.639  1.00  0.00     0.213 C
ENDBRANCH  33  35
ENDBRANCH  26  33
BRANCH  28  37
HETATM   37  O9  UNL     1      46.574 -21.812  31.670  1.00  0.00    -0.385 OA
ATOM     38  H9  UNL     1      47.378 -21.629  31.198  1.00  0.00     0.210 HD
ENDBRANCH  28  37
BRANCH  29  39
HETATM   39  O7  UNL     1      44.885 -20.512  33.450  1.00  0.00    -0.361 OA
ATOM     40  H7  UNL     1      44.165 -20.242  34.007  1.00  0.00     0.213 HD
ENDBRANCH  29  39
BRANCH  29  41
HETATM   41  O8  UNL     1      43.465 -20.050  31.801  1.00  0.00    -0.361 OA
ATOM     42  H8  UNL     1      43.670 -19.768  30.917  1.00  0.00     0.213 HD
ENDBRANCH  29  41
BRANCH  30  43
HETATM   43  O3  UNL     1      44.557 -22.932  33.496  1.00  0.00    -0.304 OA
BRANCH  43  44
HETATM   44  C7  UNL     1      44.085 -23.507  34.625  1.00  0.00     0.290 C
HETATM   45  O4  UNL     1      44.319 -24.753  34.818  1.00  0.00    -0.262 OA
BRANCH  44  46
HETATM   46  C8  UNL     1      43.311 -22.835  35.683  1.00  0.00     0.243 C
BRANCH  46  47
HETATM   47  C9  UNL     1      43.251 -23.666  36.952  1.00  0.00     0.206 C
BRANCH  47  48
HETATM   48  O5  UNL     1      42.250 -24.620  36.864  1.00  0.00    -0.398 OA
ATOM     49  H5  UNL     1      42.469 -25.276  36.212  1.00  0.00     0.209 HD
ENDBRANCH  47  48
ENDBRANCH  46  47
BRANCH  46  50
HETATM   50  O6  UNL     1      43.895 -21.618  36.044  1.00  0.00    -0.379 OA
HETATM   51  C10 UNL     1      44.936 -21.825  36.964  1.00  0.00     0.202 C
ENDBRANCH  46  50
ENDBRANCH  44  46
ENDBRANCH  43  44
ENDBRANCH  30  43
ENDBRANCH  22  24
ENDBRANCH  18  22
BRANCH  19  52
HETATM   52  O13 UNL     1      40.368 -25.531  28.208  1.00  0.00    -0.358 OA
ATOM     53  H13 UNL     1      40.795 -25.557  27.360  1.00  0.00     0.217 HD
ENDBRANCH  19  52
ENDBRANCH  13  16
ENDBRANCH   9  12
ENDBRANCH   7   9
ENDBRANCH   1   4
TORSDOF 18
ENDMDL