MODEL 5
REMARK VINA RESULT: -7.189191754      1.302      2.489
REMARK  17 active torsions:
REMARK  status: ('A' for Active; 'I' for Inactive)
REMARK    1  A    between atoms: C2_2  and  O1_3
REMARK    2  A    between atoms: O1_3  and  C3_4
REMARK    3  A    between atoms: C4_9  and  N3_10
REMARK    4  A    between atoms: C7_13  and  O2_14
REMARK    5  A    between atoms: C8_16  and  N4_17
REMARK    6  A    between atoms: C10_24  and  N6_25
REMARK    7  A    between atoms: C12_27  and  C13_28
REMARK       I    between atoms: C13_28  and  N7_30
REMARK    8  A    between atoms: N7_30  and  C14_32
REMARK    9  A    between atoms: C18_38  and  N9_39
REMARK   10  A    between atoms: N9_39  and  C19_40
REMARK   11  A    between atoms: N9_39  and  C22_47
REMARK   12  A    between atoms: C19_40  and  C20_41
REMARK   13  A    between atoms: C20_41  and  C21_42
REMARK   14  A    between atoms: C21_42  and  N10_43
REMARK   15  A    between atoms: C23_50  and  N12_51
REMARK   16  A    between atoms: N13_54  and  N14_55
REMARK   17  A    between atoms: C24_58  and  O4_59
ROOT
HETATM    1  C13 UNL     1      45.824 -21.413  33.753  1.00  0.00     0.275 C
HETATM    2  O3  UNL     1      45.634 -22.650  33.788  1.00  0.00    -0.266 OA
HETATM    3  N7  UNL     1      44.834 -20.496  33.396  1.00  0.00    -0.319 N
ATOM      4  H7  UNL     1      45.131 -19.521  33.420  1.00  0.00     0.169 HD
ENDROOT
BRANCH   3   5
HETATM    5  C14 UNL     1      43.490 -20.691  33.006  1.00  0.00     0.066 C
HETATM    6  C15 UNL     1      42.531 -20.661  33.905  1.00  0.00     0.122 C
HETATM    7  N8  UNL     1      41.115 -20.838  33.719  1.00  0.00    -0.350 N
HETATM    8  C16 UNL     1      40.213 -20.202  34.654  1.00  0.00     0.156 C
HETATM    9  C17 UNL     1      40.509 -21.612  32.697  1.00  0.00     0.122 C
HETATM   10  S1  UNL     1      39.115 -22.401  33.148  1.00  0.00    -0.061 SA
HETATM   11  C18 UNL     1      40.957 -21.815  31.324  1.00  0.00     0.248 C
HETATM   12  N15 UNL     1      42.256 -21.363  30.988  1.00  0.00    -0.370 N
HETATM   13  C25 UNL     1      43.276 -20.920  31.561  1.00  0.00     0.116 C
ATOM     14  H15 UNL     1      42.404 -21.412  29.980  1.00  0.00     0.161 HD
BRANCH  11  15
HETATM   15  N9  UNL     1      39.970 -21.381  30.319  1.00  0.00    -0.336 N
BRANCH  15  16
HETATM   16  C19 UNL     1      39.827 -22.232  29.151  1.00  0.00     0.129 C
BRANCH  16  17
HETATM   17  C20 UNL     1      38.886 -23.381  29.423  1.00  0.00     0.047 C
BRANCH  17  18
HETATM   18  C21 UNL     1      38.514 -24.114  28.158  1.00  0.00     0.231 C
BRANCH  18  19
HETATM   19  N10 UNL     1      38.934 -23.327  26.986  1.00  0.00    -0.079 N
ATOM     20 3H10 UNL     1      38.654 -23.764  26.109  1.00  0.00     0.274 HD
ATOM     21 2H10 UNL     1      38.403 -22.460  26.895  1.00  0.00     0.274 HD
ATOM     22 1H10 UNL     1      39.940 -23.159  27.029  1.00  0.00     0.274 HD
ENDBRANCH  18  19
ENDBRANCH  17  18
ENDBRANCH  16  17
ENDBRANCH  15  16
BRANCH  15  23
HETATM   23  C22 UNL     1      39.180 -20.222  30.416  1.00  0.00     0.175 A
HETATM   24  N11 UNL     1      37.820 -20.142  30.422  1.00  0.00    -0.171 N
HETATM   25  C23 UNL     1      37.486 -18.851  30.534  1.00  0.00     0.700 A
ATOM     26  H11 UNL     1      37.173 -20.927  30.353  1.00  0.00     0.186 HD
HETATM   27  N13 UNL     1      38.607 -18.116  30.596  1.00  0.00    -0.067 N
HETATM   28  C24 UNL     1      39.659 -18.923  30.527  1.00  0.00     0.224 A
BRANCH  25  29
HETATM   29  N12 UNL     1      36.283 -18.391  30.575  1.00  0.00    -0.233 N
ATOM     30 2H12 UNL     1      35.456 -18.855  30.199  1.00  0.00     0.174 HD
ATOM     31 1H12 UNL     1      36.004 -17.502  30.989  1.00  0.00     0.174 HD
ENDBRANCH  25  29
BRANCH  27  32
HETATM   32  N14 UNL     1      38.631 -16.707  30.722  1.00  0.00    -0.322 N
ATOM     33 2H14 UNL     1      38.084 -16.039  30.179  1.00  0.00     0.178 HD
ATOM     34 1H14 UNL     1      39.217 -16.199  31.385  1.00  0.00     0.178 HD
ENDBRANCH  27  32
BRANCH  28  35
HETATM   35  O4  UNL     1      40.995 -18.563  30.559  1.00  0.00    -0.342 OA
ATOM     36  H4  UNL     1      41.627 -18.855  31.205  1.00  0.00     0.219 HD
ENDBRANCH  28  35
ENDBRANCH  15  23
ENDBRANCH  11  15
ENDBRANCH   3   5
BRANCH   1  37
HETATM   37  C12 UNL     1      47.190 -20.973  34.117  1.00  0.00     0.136 A
HETATM   38  C11 UNL     1      48.249 -20.484  33.403  1.00  0.00     0.155 A
HETATM   39  N6  UNL     1      48.992 -20.358  34.540  1.00  0.00    -0.242 N
HETATM   40  N16 UNL     1      47.964 -20.830  35.191  1.00  0.00    -0.282 N
HETATM   41  C26 UNL     1      47.726 -21.106  36.620  1.00  0.00     0.179 C
BRANCH  39  42
HETATM   42  C10 UNL     1      50.307 -19.878  34.732  1.00  0.00     0.195 A
HETATM   43  C3  UNL     1      51.362 -20.751  34.865  1.00  0.00     0.205 A
HETATM   44  N1  UNL     1      52.580 -20.194  35.056  1.00  0.00    -0.262 N
HETATM   45  N2  UNL     1      52.774 -18.885  35.114  1.00  0.00    -0.130 N
ATOM     46  H1  UNL     1      53.386 -20.811  35.161  1.00  0.00     0.189 HD
HETATM   47  C4  UNL     1      51.764 -18.007  34.986  1.00  0.00     0.696 A
ATOM     48  H2  UNL     1      53.720 -18.532  35.260  1.00  0.00     0.205 HD
HETATM   49  N5  UNL     1      50.545 -18.527  34.797  1.00  0.00    -0.169 N
ATOM     50  H5  UNL     1      49.755 -17.889  34.697  1.00  0.00     0.186 HD
BRANCH  43  51
HETATM   51  O1  UNL     1      51.203 -22.130  34.809  1.00  0.00    -0.332 OA
BRANCH  51  52
HETATM   52  C2  UNL     1      51.614 -23.001  35.843  1.00  0.00     0.173 C
HETATM   53  C1  UNL     1      50.965 -22.726  37.168  1.00  0.00     0.034 C
ENDBRANCH  51  52
ENDBRANCH  43  51
BRANCH  47  54
HETATM   54  N3  UNL     1      51.953 -16.595  35.059  1.00  0.00    -0.214 N
HETATM   55  C5  UNL     1      50.964 -15.721  35.656  1.00  0.00     0.144 C
HETATM   56  C6  UNL     1      50.828 -14.444  34.852  1.00  0.00     0.054 C
HETATM   57  C7  UNL     1      51.437 -14.558  33.478  1.00  0.00     0.151 C
HETATM   58  C8  UNL     1      52.912 -14.893  33.542  1.00  0.00     0.230 C
HETATM   59  C9  UNL     1      53.163 -15.974  34.547  1.00  0.00     0.176 C
BRANCH  57  60
HETATM   60  O2  UNL     1      50.708 -15.496  32.755  1.00  0.00    -0.393 OA
ATOM     61  H2  UNL     1      51.319 -16.051  32.285  1.00  0.00     0.210 HD
ENDBRANCH  57  60
BRANCH  58  62
HETATM   62  N4  UNL     1      53.373 -15.248  32.212  1.00  0.00    -0.071 N
ATOM     63  H43 UNL     1      53.129 -16.205  31.959  1.00  0.00     0.274 HD
ATOM     64  H42 UNL     1      52.852 -14.768  31.479  1.00  0.00     0.274 HD
ATOM     65  H41 UNL     1      54.377 -15.073  32.152  1.00  0.00     0.274 HD
ENDBRANCH  58  62
ENDBRANCH  47  54
ENDBRANCH  39  42
ENDBRANCH   1  37
TORSDOF 17
ENDMDL