MODEL 4
REMARK VINA RESULT: -8.471903387      1.864      2.637
REMARK  20 active torsions:
REMARK  status: ('A' for Active; 'I' for Inactive)
REMARK    1  A    between atoms: O1_2  and  C2_3
REMARK    2  A    between atoms: C2_3  and  C3_5
REMARK    3  A    between atoms: C3_5  and  O3_6
REMARK    4  A    between atoms: C6_11  and  C7_12
REMARK    5  A    between atoms: C7_12  and  O5_13
REMARK    6  A    between atoms: O5_13  and  C8_14
REMARK    7  A    between atoms: C8_14  and  C9_16
REMARK    8  A    between atoms: C11_18  and  O7_19
REMARK    9  A    between atoms: C14_23  and  O8_24
REMARK   10  A    between atoms: N1_29  and  N2_30
REMARK   11  A    between atoms: N2_30  and  C17_32
REMARK   12  A    between atoms: C17_32  and  C18_33
REMARK   13  A    between atoms: C17_32  and  C23_44
REMARK   14  A    between atoms: C18_33  and  C19_34
REMARK   15  A    between atoms: C19_34  and  N3_35
REMARK   16  A    between atoms: C19_34  and  C21_40
REMARK   17  A    between atoms: N3_35  and  O10_36
REMARK   18  A    between atoms: O10_36  and  C20_37
REMARK   19  A    between atoms: C21_40  and  S1_42
REMARK   20  A    between atoms: C25_48  and  O15_49
ROOT
HETATM    1  C3  UNL     1      40.935 -20.107  35.107  1.00  0.00     0.201 C
HETATM    2  C4  UNL     1      41.782 -18.902  34.725  1.00  0.00     0.145 C
HETATM    3  C5  UNL     1      42.578 -19.856  33.903  1.00  0.00     0.179 C
HETATM    4  O4  UNL     1      43.726 -19.979  33.540  1.00  0.00    -0.293 OA
HETATM    5  C6  UNL     1      41.316 -20.635  33.707  1.00  0.00     0.191 C
HETATM    6  O9  UNL     1      40.486 -20.029  32.739  1.00  0.00    -0.324 OA
HETATM    7  C15 UNL     1      40.332 -18.651  32.798  1.00  0.00     0.098 A
HETATM    8  C16 UNL     1      39.575 -17.933  31.908  1.00  0.00     0.152 A
HETATM    9  N1  UNL     1      39.447 -16.571  32.002  1.00  0.00    -0.277 N
HETATM   10  C24 UNL     1      40.106 -15.984  33.016  1.00  0.00     0.152 A
HETATM   11  C25 UNL     1      40.882 -16.691  33.937  1.00  0.00     0.093 A
HETATM   12  C26 UNL     1      41.001 -18.031  33.835  1.00  0.00     0.026 A
ENDROOT
BRANCH   9  13
HETATM   13  N2  UNL     1      38.671 -15.906  31.055  1.00  0.00    -0.315 N
ATOM     14  H2  UNL     1      38.530 -14.909  31.220  1.00  0.00     0.181 HD
BRANCH  13  15
HETATM   15  C17 UNL     1      38.051 -16.431  29.890  1.00  0.00     0.202 C
BRANCH  15  16
HETATM   16  C18 UNL     1      36.559 -16.492  29.879  1.00  0.00     0.070 C
BRANCH  16  17
HETATM   17  C19 UNL     1      35.994 -17.146  31.122  1.00  0.00     0.190 C
BRANCH  17  18
HETATM   18  N3  UNL     1      35.529 -18.472  30.861  1.00  0.00    -0.076 NA
BRANCH  18  19
HETATM   19  O10 UNL     1      34.467 -18.809  31.674  1.00  0.00    -0.191 OA
BRANCH  19  20
HETATM   20  C20 UNL     1      34.507 -20.024  32.324  1.00  0.00     0.391 C
HETATM   21  N4  UNL     1      33.873 -20.206  33.585  1.00  0.00    -0.031 NA
HETATM   22  O11 UNL     1      35.116 -20.979  31.781  1.00  0.00    -0.241 OA
ENDBRANCH  19  20
ENDBRANCH  18  19
ENDBRANCH  17  18
BRANCH  17  23
HETATM   23  C21 UNL     1      34.908 -16.271  31.684  1.00  0.00     0.207 C
HETATM   24  O12 UNL     1      33.997 -15.882  30.976  1.00  0.00    -0.284 OA
BRANCH  23  25
HETATM   25  S1  UNL     1      34.914 -15.778  33.399  1.00  0.00    -0.095 SA
HETATM   26  C22 UNL     1      34.139 -14.151  33.546  1.00  0.00     0.099 C
ENDBRANCH  23  25
ENDBRANCH  17  23
ENDBRANCH  16  17
ENDBRANCH  15  16
BRANCH  15  27
HETATM   27  C23 UNL     1      38.523 -15.851  28.607  1.00  0.00     0.198 C
HETATM   28  O13 UNL     1      38.945 -14.677  28.529  1.00  0.00    -0.646 OA
HETATM   29  O14 UNL     1      38.508 -16.607  27.448  1.00  0.00    -0.646 OA
ENDBRANCH  15  27
ENDBRANCH  13  15
ENDBRANCH   9  13
BRANCH  11  30
HETATM   30  O15 UNL     1      41.508 -15.980  34.932  1.00  0.00    -0.359 OA
ATOM     31  H15 UNL     1      42.330 -15.551  34.723  1.00  0.00     0.217 HD
ENDBRANCH  11  30
BRANCH   5  32
HETATM   32  C7  UNL     1      41.485 -22.109  33.645  1.00  0.00     0.229 C
BRANCH  32  33
HETATM   33  O5  UNL     1      41.175 -22.764  32.482  1.00  0.00    -0.314 OA
BRANCH  33  34
HETATM   34  C8  UNL     1      41.909 -23.002  31.372  1.00  0.00     0.296 C
HETATM   35  O6  UNL     1      41.718 -24.113  30.783  1.00  0.00    -0.259 OA
BRANCH  34  36
HETATM   36  C9  UNL     1      42.905 -22.096  30.787  1.00  0.00     0.075 A
HETATM   37  C10 UNL     1      44.241 -22.437  30.940  1.00  0.00     0.057 A
HETATM   38  C11 UNL     1      45.275 -21.665  30.434  1.00  0.00     0.066 A
HETATM   39  C12 UNL     1      44.936 -20.522  29.760  1.00  0.00     0.039 A
HETATM   40  C13 UNL     1      43.638 -20.184  29.607  1.00  0.00     0.040 A
HETATM   41  C14 UNL     1      42.564 -20.947  30.109  1.00  0.00     0.082 A
BRANCH  38  42
HETATM   42  O7  UNL     1      46.598 -22.027  30.600  1.00  0.00    -0.361 OA
ATOM     43  H7  UNL     1      46.916 -22.885  30.344  1.00  0.00     0.217 HD
ENDBRANCH  38  42
BRANCH  41  44
HETATM   44  O8  UNL     1      41.285 -20.536  29.911  1.00  0.00    -0.360 OA
ATOM     45  H8  UNL     1      41.046 -19.652  29.660  1.00  0.00     0.217 HD
ENDBRANCH  41  44
ENDBRANCH  34  36
ENDBRANCH  33  34
ENDBRANCH  32  33
ENDBRANCH   5  32
BRANCH   1  46
HETATM   46  C2  UNL     1      41.599 -20.852  36.173  1.00  0.00     0.298 C
HETATM   47  O2  UNL     1      40.987 -21.853  36.682  1.00  0.00    -0.262 OA
BRANCH  46  48
HETATM   48  O1  UNL     1      42.833 -20.563  36.677  1.00  0.00    -0.324 OA
HETATM   49  C1  UNL     1      43.241 -20.816  38.017  1.00  0.00     0.213 C
ENDBRANCH  46  48
ENDBRANCH   1  46
BRANCH   1  50
HETATM   50  O3  UNL     1      39.585 -19.885  35.253  1.00  0.00    -0.375 OA
ATOM     51  H3  UNL     1      39.222 -20.015  36.121  1.00  0.00     0.211 HD
ENDBRANCH   1  50
TORSDOF 20
ENDMDL