MODEL 5
REMARK VINA RESULT: -8.341879395      3.596      7.926
REMARK  19 active torsions:
REMARK  status: ('A' for Active; 'I' for Inactive)
REMARK    1  A    between atoms: O1_2  and  C2_3
REMARK    2  A    between atoms: C4_5  and  C5_6
REMARK    3  A    between atoms: C12_17  and  N2_18
REMARK    4  A    between atoms: C13_22  and  N3_23
REMARK    5  A    between atoms: C14_28  and  C15_29
REMARK    6  A    between atoms: C15_29  and  S1_30
REMARK    7  A    between atoms: S1_30  and  C16_33
REMARK    8  A    between atoms: C16_33  and  C17_34
REMARK    9  A    between atoms: C16_33  and  C18_39
REMARK   10  A    between atoms: C17_34  and  O5_35
REMARK   11  A    between atoms: C17_34  and  O6_37
REMARK   12  A    between atoms: C18_39  and  O7_40
REMARK   13  A    between atoms: C18_39  and  O8_42
REMARK   14  A    between atoms: C19_44  and  C20_45
REMARK       I    between atoms: C20_45  and  N6_47
REMARK   15  A    between atoms: N6_47  and  N7_49
REMARK   16  A    between atoms: C22_53  and  O10_54
REMARK   17  A    between atoms: O10_54  and  C23_55
REMARK   18  A    between atoms: C23_55  and  C24_57
REMARK   19  A    between atoms: C27_60  and  O12_61
ROOT
HETATM    1  C5  UNL     1      37.454 -19.909  32.410  1.00  0.00    -0.023 A
HETATM    2  C6  UNL     1      37.936 -20.950  31.649  1.00  0.00     0.013 A
HETATM    3  C7  UNL     1      38.707 -21.973  32.212  1.00  0.00     0.017 A
HETATM    4  C8  UNL     1      39.004 -21.951  33.578  1.00  0.00     0.025 A
HETATM    5  C9  UNL     1      38.523 -20.905  34.329  1.00  0.00     0.090 A
HETATM    6  C10 UNL     1      37.753 -19.892  33.756  1.00  0.00     0.050 A
HETATM    7  O2  UNL     1      38.843 -20.887  35.682  1.00  0.00    -0.295 OA
HETATM    8  C11 UNL     1      39.621 -21.876  36.258  1.00  0.00     0.154 C
HETATM    9  N1  UNL     1      40.341 -21.642  37.321  1.00  0.00    -0.381 N
ATOM     10  H11 UNL     1      40.914 -22.371  37.746  1.00  0.00     0.158 HD
ATOM     11  H12 UNL     1      40.335 -20.715  37.747  1.00  0.00     0.158 HD
HETATM   12  C12 UNL     1      39.629 -23.218  35.642  1.00  0.00     0.309 C
HETATM   13  C13 UNL     1      39.713 -23.087  34.146  1.00  0.00     0.087 C
ENDROOT
BRANCH  13  14
HETATM   14  N3  UNL     1      41.041 -23.365  33.671  1.00  0.00    -0.235 N
HETATM   15  N4  UNL     1      41.365 -24.598  33.158  1.00  0.00    -0.235 N
HETATM   16  N5  UNL     1      42.587 -24.589  32.769  1.00  0.00    -0.287 N
ATOM     17  H4  UNL     1      40.732 -25.395  33.096  1.00  0.00     0.209 HD
HETATM   18  C14 UNL     1      43.157 -23.397  32.985  1.00  0.00     0.075 A
ATOM     19  H5  UNL     1      43.063 -25.387  32.349  1.00  0.00     0.188 HD
HETATM   20  C19 UNL     1      42.131 -22.621  33.573  1.00  0.00     0.152 A
BRANCH  18  21
HETATM   21  C15 UNL     1      44.543 -22.989  32.683  1.00  0.00     0.202 C
BRANCH  21  22
HETATM   22  S1  UNL     1      44.800 -22.837  30.935  1.00  0.00     0.163 S
HETATM   23  O3  UNL     1      44.420 -24.172  30.315  1.00  0.00    -0.227 OA
HETATM   24  O4  UNL     1      46.274 -22.666  30.692  1.00  0.00    -0.227 OA
BRANCH  22  25
HETATM   25  C16 UNL     1      43.836 -21.608  30.159  1.00  0.00     0.218 C
BRANCH  25  26
HETATM   26  C17 UNL     1      42.388 -22.075  30.168  1.00  0.00     0.277 C
BRANCH  26  27
HETATM   27  O5  UNL     1      41.568 -20.932  30.107  1.00  0.00    -0.370 OA
ATOM     28  H5  UNL     1      40.678 -21.222  29.942  1.00  0.00     0.212 HD
ENDBRANCH  26  27
BRANCH  26  29
HETATM   29  O6  UNL     1      42.090 -22.817  29.030  1.00  0.00    -0.370 OA
ATOM     30  H6  UNL     1      41.329 -23.369  29.169  1.00  0.00     0.212 HD
ENDBRANCH  26  29
ENDBRANCH  25  26
BRANCH  25  31
HETATM   31  C18 UNL     1      44.284 -21.269  28.754  1.00  0.00     0.277 C
BRANCH  31  32
HETATM   32  O7  UNL     1      43.523 -20.218  28.236  1.00  0.00    -0.370 OA
ATOM     33  H7  UNL     1      43.954 -19.834  27.481  1.00  0.00     0.212 HD
ENDBRANCH  31  32
BRANCH  31  34
HETATM   34  O8  UNL     1      45.607 -20.835  28.764  1.00  0.00    -0.370 OA
ATOM     35  H8  UNL     1      45.976 -20.888  27.891  1.00  0.00     0.212 HD
ENDBRANCH  31  34
ENDBRANCH  25  31
ENDBRANCH  22  25
ENDBRANCH  21  22
ENDBRANCH  18  21
BRANCH  20  36
HETATM   36  C20 UNL     1      42.394 -21.288  34.040  1.00  0.00     0.290 C
HETATM   37  O9  UNL     1      42.787 -21.030  35.213  1.00  0.00    -0.264 OA
HETATM   38  N6  UNL     1      42.215 -20.168  33.188  1.00  0.00    -0.271 N
ATOM     39  H6  UNL     1      41.892 -20.331  32.235  1.00  0.00     0.189 HD
BRANCH  38  40
HETATM   40  N7  UNL     1      42.462 -18.848  33.590  1.00  0.00    -0.342 N
ATOM     41  H72 UNL     1      42.671 -18.167  32.860  1.00  0.00     0.176 HD
ATOM     42  H71 UNL     1      42.440 -18.546  34.564  1.00  0.00     0.176 HD
ENDBRANCH  38  40
ENDBRANCH  20  36
ENDBRANCH  13  14
BRANCH  12  43
HETATM   43  N2  UNL     1      40.728 -24.050  36.113  1.00  0.00    -0.062 N
ATOM     44  H23 UNL     1      41.563 -23.489  36.287  1.00  0.00     0.275 HD
ATOM     45  H22 UNL     1      40.553 -24.384  37.060  1.00  0.00     0.275 HD
ATOM     46  H21 UNL     1      40.935 -24.826  35.484  1.00  0.00     0.275 HD
ENDBRANCH  12  43
BRANCH   1  47
HETATM   47  C4  UNL     1      36.660 -18.858  31.772  1.00  0.00    -0.020 A
HETATM   48  C3  UNL     1      35.479 -18.428  32.331  1.00  0.00     0.052 A
HETATM   49  C2  UNL     1      34.713 -17.436  31.765  1.00  0.00     0.104 A
HETATM   50  C27 UNL     1      35.167 -16.857  30.583  1.00  0.00     0.133 A
HETATM   51  C22 UNL     1      36.342 -17.255  29.988  1.00  0.00     0.116 A
HETATM   52  C21 UNL     1      37.069 -18.253  30.599  1.00  0.00     0.052 A
BRANCH  49  53
HETATM   53  O1  UNL     1      33.537 -17.047  32.371  1.00  0.00    -0.353 OA
HETATM   54  C1  UNL     1      33.510 -15.841  33.103  1.00  0.00     0.210 C
ENDBRANCH  49  53
BRANCH  50  55
HETATM   55  O12 UNL     1      34.414 -15.869  30.013  1.00  0.00    -0.356 OA
ATOM     56  H12 UNL     1      33.496 -15.809  30.249  1.00  0.00     0.218 HD
ENDBRANCH  50  55
BRANCH  51  57
HETATM   57  O10 UNL     1      36.749 -16.644  28.813  1.00  0.00    -0.276 OA
BRANCH  57  58
HETATM   58  C23 UNL     1      38.108 -16.386  28.594  1.00  0.00     0.267 C
HETATM   59  O11 UNL     1      38.455 -16.260  27.383  1.00  0.00    -0.264 OA
BRANCH  58  60
HETATM   60  C24 UNL     1      39.087 -16.264  29.684  1.00  0.00     0.078 C
HETATM   61  C25 UNL     1      39.462 -14.860  30.023  1.00  0.00     0.020 C
HETATM   62  C26 UNL     1      40.337 -17.075  29.431  1.00  0.00     0.020 C
ENDBRANCH  58  60
ENDBRANCH  57  58
ENDBRANCH  51  57
ENDBRANCH   1  47
TORSDOF 19
ENDMDL