MODEL 3
REMARK VINA RESULT: -8.720871581      2.802      8.309
REMARK  16 active torsions:
REMARK  status: ('A' for Active; 'I' for Inactive)
REMARK    1  A    between atoms: C2_2  and  O1_3
REMARK    2  A    between atoms: O1_3  and  C3_4
REMARK    3  A    between atoms: C3_4  and  C4_6
REMARK    4  A    between atoms: C4_6  and  O3_7
REMARK    5  A    between atoms: C6_10  and  N1_11
REMARK    6  A    between atoms: N1_11  and  C7_12
REMARK    7  A    between atoms: N1_11  and  S1_15
REMARK    8  A    between atoms: C7_12  and  O4_13
REMARK    9  A    between atoms: S1_15  and  N2_16
REMARK       I    between atoms: N2_16  and  C9_18
REMARK       I    between atoms: C9_18  and  N3_19
REMARK       I    between atoms: C9_18  and  N9_37
REMARK   10  A    between atoms: N3_19  and  N4_21
REMARK   11  A    between atoms: N4_21  and  C10_23
REMARK   12  A    between atoms: C11_26  and  N6_27
REMARK   13  A    between atoms: N9_37  and  N10_39
REMARK   14  A    between atoms: C13_41  and  C14_42
REMARK   15  A    between atoms: C16_46  and  C17_47
REMARK   16  A    between atoms: C24_60  and  O10_61
ROOT
HETATM    1  N2  UNL     1      38.785 -21.323  35.715  1.00  0.00    -0.142 N
ATOM      2  H2  UNL     1      38.036 -20.640  35.825  1.00  0.00     0.194 HD
HETATM    3  C9  UNL     1      40.118 -20.864  35.817  1.00  0.00     0.718 C
HETATM    4  N3  UNL     1      40.660 -20.549  36.956  1.00  0.00    -0.127 N
ATOM      5  H3  UNL     1      40.111 -20.634  37.812  1.00  0.00     0.206 HD
HETATM    6  N9  UNL     1      40.922 -20.733  34.638  1.00  0.00    -0.130 N
ATOM      7  H9  UNL     1      41.785 -21.264  34.521  1.00  0.00     0.205 HD
ENDROOT
BRANCH   1   8
HETATM    8  S1  UNL     1      38.330 -22.994  35.410  1.00  0.00     0.086 SA
BRANCH   8   9
HETATM    9  N1  UNL     1      37.243 -23.138  34.029  1.00  0.00    -0.282 N
BRANCH   9  10
HETATM   10  C6  UNL     1      37.221 -22.201  32.964  1.00  0.00     0.053 C
HETATM   11  C5  UNL     1      36.493 -21.101  33.027  1.00  0.00     0.052 C
HETATM   12  C4  UNL     1      36.406 -20.070  31.973  1.00  0.00     0.194 C
HETATM   13  C24 UNL     1      37.281 -20.350  30.772  1.00  0.00     0.198 C
HETATM   14  C23 UNL     1      38.488 -21.048  31.267  1.00  0.00     0.192 C
HETATM   15  C19 UNL     1      38.012 -22.428  31.761  1.00  0.00     0.207 C
HETATM   16  O9  UNL     1      39.365 -21.488  30.293  1.00  0.00    -0.345 OA
HETATM   17  O8  UNL     1      39.254 -22.991  31.965  1.00  0.00    -0.342 OA
HETATM   18  C20 UNL     1      39.984 -22.588  30.870  1.00  0.00     0.158 C
HETATM   19  C21 UNL     1      39.947 -23.712  29.856  1.00  0.00     0.078 C
HETATM   20  C22 UNL     1      41.395 -22.292  31.323  1.00  0.00     0.078 C
BRANCH  12  21
HETATM   21  C3  UNL     1      36.786 -18.733  32.503  1.00  0.00     0.300 C
HETATM   22  O2  UNL     1      37.577 -18.609  33.500  1.00  0.00    -0.261 OA
BRANCH  21  23
HETATM   23  O1  UNL     1      36.334 -17.529  31.985  1.00  0.00    -0.319 OA
BRANCH  23  24
HETATM   24  C2  UNL     1      35.737 -16.522  32.783  1.00  0.00     0.174 C
HETATM   25  C1  UNL     1      34.250 -16.814  32.822  1.00  0.00     0.034 C
ENDBRANCH  23  24
ENDBRANCH  21  23
ENDBRANCH  12  21
BRANCH  12  26
HETATM   26  O3  UNL     1      35.058 -19.987  31.610  1.00  0.00    -0.373 OA
ATOM     27  H3  UNL     1      34.922 -19.107  31.278  1.00  0.00     0.211 HD
ENDBRANCH  12  26
BRANCH  13  28
HETATM   28  O10 UNL     1      36.540 -21.164  29.914  1.00  0.00    -0.389 OA
ATOM     29  H10 UNL     1      37.009 -21.986  29.840  1.00  0.00     0.210 HD
ENDBRANCH  13  28
ENDBRANCH   9  10
BRANCH   9  30
HETATM   30  C7  UNL     1      36.340 -24.273  34.004  1.00  0.00     0.306 C
BRANCH  30  31
HETATM   31  O4  UNL     1      35.387 -24.212  35.019  1.00  0.00    -0.376 OA
HETATM   32  C8  UNL     1      34.181 -23.854  34.464  1.00  0.00     0.203 C
ENDBRANCH  30  31
ENDBRANCH   9  30
ENDBRANCH   8   9
ENDBRANCH   1   8
BRANCH   4  33
HETATM   33  N4  UNL     1      41.978 -20.097  37.031  1.00  0.00    -0.250 N
ATOM     34  H4  UNL     1      42.212 -19.197  36.611  1.00  0.00     0.191 HD
BRANCH  33  35
HETATM   35  C10 UNL     1      42.909 -20.767  37.607  1.00  0.00     0.261 A
HETATM   36  N5  UNL     1      42.742 -21.162  38.878  1.00  0.00    -0.153 N
HETATM   37  C11 UNL     1      43.703 -21.862  39.495  1.00  0.00     0.682 A
ATOM     38  H5  UNL     1      41.883 -20.930  39.376  1.00  0.00     0.188 HD
HETATM   39  N7  UNL     1      44.822 -22.145  38.791  1.00  0.00    -0.155 N
HETATM   40  C12 UNL     1      44.955 -21.734  37.524  1.00  0.00     0.239 A
ATOM     41  H7  UNL     1      45.574 -22.677  39.231  1.00  0.00     0.188 HD
HETATM   42  N8  UNL     1      46.049 -22.023  36.869  1.00  0.00    -0.364 N
HETATM   43  O5  UNL     1      43.996 -21.053  36.954  1.00  0.00    -0.245 OA
ATOM     44  H82 UNL     1      46.797 -22.554  37.313  1.00  0.00     0.159 HD
ATOM     45  H81 UNL     1      46.150 -21.710  35.903  1.00  0.00     0.159 HD
BRANCH  37  46
HETATM   46  N6  UNL     1      43.610 -22.277  40.722  1.00  0.00    -0.234 N
ATOM     47  H62 UNL     1      42.985 -23.055  40.934  1.00  0.00     0.174 HD
ATOM     48  H61 UNL     1      44.132 -21.865  41.495  1.00  0.00     0.174 HD
ENDBRANCH  37  46
ENDBRANCH  33  35
ENDBRANCH   4  33
BRANCH   6  49
HETATM   49  N10 UNL     1      40.472 -19.847  33.658  1.00  0.00    -0.294 N
HETATM   50  C13 UNL     1      41.222 -18.963  33.108  1.00  0.00     0.156 C
ATOM     51  H10 UNL     1      39.498 -19.906  33.364  1.00  0.00     0.186 HD
BRANCH  50  52
HETATM   52  C14 UNL     1      40.617 -18.097  32.090  1.00  0.00     0.122 A
HETATM   53  N11 UNL     1      39.992 -16.968  32.394  1.00  0.00    -0.350 N
HETATM   54  C15 UNL     1      39.450 -16.201  31.418  1.00  0.00     0.109 A
ATOM     55  H11 UNL     1      39.919 -16.675  33.369  1.00  0.00     0.166 HD
HETATM   56  C16 UNL     1      39.536 -16.578  30.101  1.00  0.00     0.071 A
HETATM   57  C18 UNL     1      40.187 -17.755  29.800  1.00  0.00     0.109 A
HETATM   58  N12 UNL     1      40.710 -18.483  30.795  1.00  0.00    -0.350 N
ATOM     59  H12 UNL     1      41.192 -19.354  30.571  1.00  0.00     0.166 HD
BRANCH  56  60
HETATM   60  C17 UNL     1      38.940 -15.732  29.073  1.00  0.00     0.212 C
HETATM   61  O6  UNL     1      38.815 -14.501  29.257  1.00  0.00    -0.644 OA
HETATM   62  O7  UNL     1      38.495 -16.257  27.859  1.00  0.00    -0.644 OA
ENDBRANCH  56  60
ENDBRANCH  50  52
ENDBRANCH   6  49
TORSDOF 16
ENDMDL