MODEL 4
REMARK VINA RESULT: -9.047292130      3.719      8.510
REMARK  14 active torsions:
REMARK  status: ('A' for Active; 'I' for Inactive)
REMARK    1  A    between atoms: O1_2  and  C2_3
REMARK    2  A    between atoms: C2_3  and  C3_5
REMARK    3  A    between atoms: C3_5  and  N1_6
REMARK    4  A    between atoms: C3_5  and  C9_24
REMARK    5  A    between atoms: N1_6  and  O3_7
REMARK    6  A    between atoms: O3_7  and  C4_8
REMARK    7  A    between atoms: C4_8  and  C6_10
REMARK    8  A    between atoms: C4_8  and  C8_21
REMARK    9  A    between atoms: C6_10  and  S1_11
REMARK   10  A    between atoms: S1_11  and  C7_12
REMARK       I    between atoms: C9_24  and  N6_26
REMARK   11  A    between atoms: C12_32  and  N8_33
REMARK   12  A    between atoms: C14_41  and  C15_42
REMARK   13  A    between atoms: C15_42  and  O7_43
REMARK   14  A    between atoms: N12_45  and  C16_47
ROOT
HETATM    1  C9  UNL     1      41.270 -23.356  34.795  1.00  0.00     0.253 C
HETATM    2  O6  UNL     1      40.399 -23.387  35.693  1.00  0.00    -0.271 OA
HETATM    3  N6  UNL     1      40.897 -23.173  33.461  1.00  0.00    -0.324 N
ATOM      4  H6  UNL     1      40.772 -24.037  32.932  1.00  0.00     0.169 HD
HETATM    5  C10 UNL     1      40.687 -22.116  32.803  1.00  0.00     0.076 C
HETATM    6  C11 UNL     1      40.298 -22.307  31.381  1.00  0.00     0.181 A
HETATM    7  N7  UNL     1      40.271 -23.341  30.535  1.00  0.00    -0.171 N
ATOM      8  H7  UNL     1      40.551 -24.293  30.772  1.00  0.00     0.186 HD
HETATM    9  C12 UNL     1      39.823 -22.950  29.327  1.00  0.00     0.693 A
HETATM   10  N9  UNL     1      39.571 -21.624  29.460  1.00  0.00    -0.112 N
ATOM     11  H9  UNL     1      39.216 -21.014  28.724  1.00  0.00     0.207 HD
HETATM   12  N10 UNL     1      39.860 -21.245  30.695  1.00  0.00    -0.166 N
HETATM   13  N11 UNL     1      39.756 -19.964  31.307  1.00  0.00    -0.104 NA
HETATM   14  C13 UNL     1      39.565 -20.008  32.757  1.00  0.00     0.158 C
HETATM   15  C14 UNL     1      39.332 -18.596  33.224  1.00  0.00     0.018 C
HETATM   16  C19 UNL     1      40.031 -17.986  34.141  1.00  0.00    -0.062 C
HETATM   17  C20 UNL     1      39.712 -16.579  34.521  1.00  0.00     0.045 C
HETATM   18  C21 UNL     1      41.174 -18.571  34.953  1.00  0.00     0.109 C
HETATM   19  S2  UNL     1      40.943 -20.401  34.979  1.00  0.00    -0.151 SA
HETATM   20  C22 UNL     1      40.776 -20.725  33.233  1.00  0.00     0.127 C
ENDROOT
BRANCH   1  21
HETATM   21  C3  UNL     1      42.696 -23.520  35.203  1.00  0.00     0.297 C
BRANCH  21  22
HETATM   22  C2  UNL     1      42.934 -23.008  36.560  1.00  0.00     0.289 C
HETATM   23  O2  UNL     1      42.618 -23.619  37.601  1.00  0.00    -0.263 OA
BRANCH  22  24
HETATM   24  O1  UNL     1      43.550 -21.759  36.665  1.00  0.00    -0.325 OA
HETATM   25  C1  UNL     1      43.401 -21.021  37.867  1.00  0.00     0.213 C
ENDBRANCH  22  24
ENDBRANCH  21  22
BRANCH  21  26
HETATM   26  N1  UNL     1      43.587 -22.876  34.277  1.00  0.00    -0.075 NA
BRANCH  26  27
HETATM   27  O3  UNL     1      44.278 -23.764  33.563  1.00  0.00    -0.262 OA
BRANCH  27  28
HETATM   28  C4  UNL     1      44.428 -23.427  32.248  1.00  0.00     0.177 C
HETATM   29  C5  UNL     1      45.899 -23.528  31.818  1.00  0.00     0.061 C
BRANCH  28  30
HETATM   30  C6  UNL     1      44.016 -22.002  31.985  1.00  0.00     0.133 C
BRANCH  30  31
HETATM   31  S1  UNL     1      44.741 -21.350  30.497  1.00  0.00    -0.088 SA
BRANCH  31  32
HETATM   32  C7  UNL     1      43.743 -20.196  29.621  1.00  0.00     0.176 A
HETATM   33  N2  UNL     1      43.745 -19.757  28.360  1.00  0.00    -0.263 N
HETATM   34  N3  UNL     1      42.765 -18.882  28.222  1.00  0.00    -0.226 N
ATOM     35  H2  UNL     1      44.393 -20.048  27.627  1.00  0.00     0.190 HD
HETATM   36  N4  UNL     1      42.126 -18.740  29.362  1.00  0.00    -0.226 N
ATOM     37  H3  UNL     1      42.538 -18.390  27.359  1.00  0.00     0.210 HD
HETATM   38  N5  UNL     1      42.715 -19.535  30.211  1.00  0.00    -0.263 N
ATOM     39  H4  UNL     1      41.329 -18.130  29.546  1.00  0.00     0.210 HD
ATOM     40  H5  UNL     1      42.440 -19.645  31.188  1.00  0.00     0.190 HD
ENDBRANCH  31  32
ENDBRANCH  30  31
ENDBRANCH  28  30
BRANCH  28  41
HETATM   41  C8  UNL     1      43.684 -24.294  31.294  1.00  0.00     0.211 C
HETATM   42  O4  UNL     1      42.623 -24.879  31.669  1.00  0.00    -0.646 OA
HETATM   43  O5  UNL     1      44.065 -24.526  29.987  1.00  0.00    -0.646 OA
ENDBRANCH  28  41
ENDBRANCH  27  28
ENDBRANCH  26  27
ENDBRANCH  21  26
ENDBRANCH   1  21
BRANCH   9  44
HETATM   44  N8  UNL     1      39.649 -23.630  28.252  1.00  0.00    -0.233 N
ATOM     45  H82 UNL     1      38.945 -24.357  28.125  1.00  0.00     0.174 HD
ATOM     46  H81 UNL     1      40.145 -23.587  27.362  1.00  0.00     0.174 HD
ENDBRANCH   9  44
BRANCH  15  47
HETATM   47  C15 UNL     1      38.173 -18.002  32.525  1.00  0.00     0.150 C
HETATM   48  N12 UNL     1      38.020 -17.189  31.447  1.00  0.00    -0.316 N
ATOM     49  H12 UNL     1      38.853 -16.870  30.952  1.00  0.00     0.170 HD
BRANCH  47  50
HETATM   50  O7  UNL     1      37.053 -18.364  33.109  1.00  0.00    -0.346 OA
ATOM     51  H7  UNL     1      36.314 -17.921  32.710  1.00  0.00     0.219 HD
ENDBRANCH  47  50
BRANCH  48  52
HETATM   52  C16 UNL     1      36.714 -16.756  30.972  1.00  0.00     0.170 A
HETATM   53  C17 UNL     1      36.284 -16.602  29.701  1.00  0.00     0.149 A
HETATM   54  N13 UNL     1      34.973 -16.173  29.731  1.00  0.00    -0.308 N
HETATM   55  C18 UNL     1      34.675 -16.088  31.037  1.00  0.00     0.371 A
ATOM     56  H13 UNL     1      34.365 -15.967  28.938  1.00  0.00     0.170 HD
HETATM   57  O8  UNL     1      33.537 -15.719  31.466  1.00  0.00    -0.238 OA
HETATM   58  O9  UNL     1      35.705 -16.433  31.752  1.00  0.00    -0.242 OA
ENDBRANCH  48  52
ENDBRANCH  15  47
TORSDOF 14
ENDMDL