MODEL 2
REMARK VINA RESULT: -8.686103342      3.223      7.026
REMARK  20 active torsions:
REMARK  status: ('A' for Active; 'I' for Inactive)
REMARK    1  A    between atoms: C2_3  and  O1_4
REMARK    2  A    between atoms: C3_6  and  C4_7
REMARK    3  A    between atoms: C4_7  and  C5_8
REMARK    4  A    between atoms: C7_15  and  O3_16
REMARK    5  A    between atoms: C9_19  and  C10_20
REMARK    6  A    between atoms: C10_20  and  O5_22
REMARK    7  A    between atoms: O5_22  and  C11_23
REMARK    8  A    between atoms: C12_25  and  C13_26
REMARK    9  A    between atoms: C13_26  and  N4_27
REMARK   10  A    between atoms: C15_29  and  C16_30
REMARK   11  A    between atoms: C16_30  and  N5_31
REMARK       I    between atoms: N5_31  and  C17_33
REMARK   12  A    between atoms: C17_33  and  O8_35
REMARK   13  A    between atoms: O8_35  and  C18_36
REMARK   14  A    between atoms: C22_45  and  C23_46
REMARK   15  A    between atoms: C23_46  and  O10_47
REMARK   16  A    between atoms: C23_46  and  C24_49
REMARK   17  A    between atoms: C24_49  and  C25_50
REMARK   18  A    between atoms: C24_49  and  C26_53
REMARK   19  A    between atoms: C25_50  and  O11_51
REMARK   20  A    between atoms: C26_53  and  O12_54
ROOT
HETATM    1  C11 UNL     1      40.195 -18.186  30.473  1.00  0.00     0.426 C
HETATM    2  O6  UNL     1      39.638 -19.451  30.488  1.00  0.00    -0.306 OA
HETATM    3  C12 UNL     1      39.824 -20.179  31.624  1.00  0.00     0.288 C
HETATM    4  O9  UNL     1      39.456 -19.461  32.765  1.00  0.00    -0.327 OA
HETATM    5  C22 UNL     1      39.486 -18.112  32.585  1.00  0.00     0.297 C
HETATM    6  O13 UNL     1      40.590 -17.824  31.757  1.00  0.00    -0.305 OA
ENDROOT
BRANCH   1   7
HETATM    7  O5  UNL     1      39.274 -17.195  30.056  1.00  0.00    -0.261 OA
BRANCH   7   8
HETATM    8  C10 UNL     1      37.992 -17.392  29.657  1.00  0.00     0.302 C
HETATM    9  O4  UNL     1      37.773 -17.435  28.398  1.00  0.00    -0.259 OA
BRANCH   8  10
HETATM   10  C9  UNL     1      36.827 -17.563  30.522  1.00  0.00     0.108 A
HETATM   11  C8  UNL     1      36.431 -18.812  30.960  1.00  0.00     0.035 A
HETATM   12  C3  UNL     1      35.341 -18.907  31.771  1.00  0.00    -0.000 A
HETATM   13  C2  UNL     1      34.661 -17.774  32.135  1.00  0.00     0.151 A
HETATM   14  N1  UNL     1      35.036 -16.567  31.719  1.00  0.00    -0.298 N
HETATM   15  C1  UNL     1      34.322 -15.353  32.098  1.00  0.00     0.161 C
HETATM   16  C27 UNL     1      36.103 -16.471  30.924  1.00  0.00     0.265 A
HETATM   17  O14 UNL     1      36.445 -15.306  30.535  1.00  0.00    -0.267 OA
BRANCH  12  18
HETATM   18  C4  UNL     1      34.833 -20.193  32.291  1.00  0.00     0.104 C
BRANCH  18  19
HETATM   19  C5  UNL     1      35.545 -20.705  33.459  1.00  0.00     0.069 A
HETATM   20  N2  UNL     1      36.833 -20.488  33.756  1.00  0.00    -0.308 N
HETATM   21  C6  UNL     1      37.111 -21.134  34.916  1.00  0.00     0.326 A
ATOM     22  H2  UNL     1      37.489 -19.933  33.207  1.00  0.00     0.170 HD
HETATM   23  O2  UNL     1      38.220 -21.162  35.513  1.00  0.00    -0.247 OA
HETATM   24  N3  UNL     1      35.996 -21.754  35.338  1.00  0.00    -0.287 N
HETATM   25  C7  UNL     1      35.016 -21.497  34.447  1.00  0.00     0.167 A
ATOM     26  H3  UNL     1      35.907 -22.318  36.183  1.00  0.00     0.172 HD
BRANCH  25  27
HETATM   27  O3  UNL     1      33.728 -21.993  34.591  1.00  0.00    -0.345 OA
ATOM     28  H3  UNL     1      33.281 -22.674  34.102  1.00  0.00     0.219 HD
ENDBRANCH  25  27
ENDBRANCH  18  19
ENDBRANCH  12  18
BRANCH  13  29
HETATM   29  O1  UNL     1      33.538 -17.852  32.970  1.00  0.00    -0.345 OA
ATOM     30  H1  UNL     1      33.307 -18.706  33.319  1.00  0.00     0.219 HD
ENDBRANCH  13  29
ENDBRANCH   8  10
ENDBRANCH   7   8
ENDBRANCH   1   7
BRANCH   3  31
HETATM   31  C13 UNL     1      41.190 -20.730  31.852  1.00  0.00     0.210 C
BRANCH  31  32
HETATM   32  N4  UNL     1      41.500 -21.112  33.199  1.00  0.00    -0.282 N
HETATM   33  C14 UNL     1      42.740 -21.025  33.745  1.00  0.00     0.140 A
HETATM   34  C15 UNL     1      42.659 -21.502  35.013  1.00  0.00     0.062 A
HETATM   35  N6  UNL     1      41.348 -21.859  35.168  1.00  0.00    -0.287 N
HETATM   36  N7  UNL     1      40.664 -21.621  34.077  1.00  0.00    -0.241 N
ATOM     37  H6  UNL     1      40.956 -22.258  36.020  1.00  0.00     0.188 HD
ATOM     38  H7  UNL     1      39.670 -21.797  33.936  1.00  0.00     0.208 HD
BRANCH  34  39
HETATM   39  C16 UNL     1      43.689 -21.656  36.075  1.00  0.00     0.185 C
BRANCH  39  40
HETATM   40  N5  UNL     1      43.163 -22.448  37.150  1.00  0.00    -0.331 N
HETATM   41  C17 UNL     1      43.090 -21.905  38.455  1.00  0.00     0.361 C
HETATM   42  O7  UNL     1      43.453 -20.742  38.739  1.00  0.00    -0.238 OA
ATOM     43  H5  UNL     1      42.842 -23.399  36.974  1.00  0.00     0.165 HD
BRANCH  41  44
HETATM   44  O8  UNL     1      42.597 -22.667  39.510  1.00  0.00    -0.294 OA
BRANCH  44  45
HETATM   45  C18 UNL     1      43.419 -23.635  40.114  1.00  0.00     0.061 C
HETATM   46  C19 UNL     1      43.206 -25.010  39.509  1.00  0.00     0.046 C
HETATM   47  C20 UNL     1      44.877 -23.307  40.113  1.00  0.00     0.046 C
HETATM   48  C21 UNL     1      42.992 -23.762  41.568  1.00  0.00     0.046 C
ENDBRANCH  44  45
ENDBRANCH  41  44
ENDBRANCH  39  40
ENDBRANCH  34  39
ENDBRANCH  31  32
ENDBRANCH   3  31
BRANCH   5  49
HETATM   49  C23 UNL     1      39.442 -17.249  33.786  1.00  0.00     0.181 C
BRANCH  49  50
HETATM   50  O10 UNL     1      39.029 -15.969  33.310  1.00  0.00    -0.390 OA
ATOM     51  H10 UNL     1      39.821 -15.560  32.980  1.00  0.00     0.210 HD
ENDBRANCH  49  50
BRANCH  49  52
HETATM   52  C24 UNL     1      40.717 -16.995  34.502  1.00  0.00     0.066 C
BRANCH  52  53
HETATM   53  C25 UNL     1      41.192 -18.056  35.437  1.00  0.00     0.173 C
BRANCH  53  54
HETATM   54  O11 UNL     1      40.242 -19.033  35.706  1.00  0.00    -0.400 OA
ATOM     55  H11 UNL     1      39.595 -18.772  36.351  1.00  0.00     0.209 HD
ENDBRANCH  53  54
ENDBRANCH  52  53
BRANCH  52  56
HETATM   56  C26 UNL     1      40.507 -15.737  35.357  1.00  0.00     0.173 C
BRANCH  56  57
HETATM   57  O12 UNL     1      39.658 -16.125  36.413  1.00  0.00    -0.400 OA
ATOM     58  H12 UNL     1      39.153 -15.353  36.639  1.00  0.00     0.209 HD
ENDBRANCH  56  57
ENDBRANCH  52  56
ENDBRANCH  49  52
ENDBRANCH   5  49
TORSDOF 20
ENDMDL