MODEL 3
REMARK VINA RESULT: -6.664609072      5.533      7.512
REMARK  12 active torsions:
REMARK  status: ('A' for Active; 'I' for Inactive)
REMARK    1  A    between atoms: N1_1  and  C1_4
REMARK    2  A    between atoms: C4_9  and  N3_10
REMARK    3  A    between atoms: N3_10  and  C5_12
REMARK    4  A    between atoms: C5_12  and  C6_13
REMARK    5  A    between atoms: C6_13  and  N4_14
REMARK    6  A    between atoms: N4_14  and  C7_17
REMARK    7  A    between atoms: C7_17  and  C8_18
REMARK    8  A    between atoms: C8_18  and  O1_19
REMARK    9  A    between atoms: O1_19  and  C9_20
REMARK   10  A    between atoms: C9_20  and  C10_21
REMARK   11  A    between atoms: C10_21  and  N5_22
REMARK   12  A    between atoms: N5_22  and  C11_24
ROOT
HETATM    1  N4  UNL     1      19.167 -11.592  25.083  1.00  0.00    -0.072 N
ATOM      2  H41 UNL     1      18.576 -11.252  25.842  1.00  0.00     0.277 HD
ATOM      3  H42 UNL     1      18.440 -12.006  24.500  1.00  0.00     0.277 HD
ENDROOT
BRANCH   1   4
HETATM    4  C6  UNL     1      20.114 -12.574  25.538  1.00  0.00     0.251 C
BRANCH   4   5
HETATM    5  C5  UNL     1      19.379 -13.710  26.198  1.00  0.00     0.148 C
BRANCH   5   6
HETATM    6  N3  UNL     1      19.927 -14.961  25.794  1.00  0.00    -0.374 N
ATOM      7  H3  UNL     1      20.898 -14.955  25.483  1.00  0.00     0.161 HD
BRANCH   6   8
HETATM    8  C4  UNL     1      19.343 -16.064  25.781  1.00  0.00     0.118 A
HETATM    9  C3  UNL     1      19.918 -17.305  25.750  1.00  0.00     0.066 A
HETATM   10  C2  UNL     1      19.156 -18.467  25.757  1.00  0.00     0.110 A
HETATM   11  N2  UNL     1      17.831 -18.377  25.795  1.00  0.00    -0.202 N
HETATM   12  C1  UNL     1      17.235 -17.165  25.826  1.00  0.00     0.677 A
ATOM     13  H2  UNL     1      17.262 -19.224  25.800  1.00  0.00     0.183 HD
HETATM   14  N9  UNL     1      17.979 -16.048  25.819  1.00  0.00    -0.177 N
ATOM     15  H9  UNL     1      17.503 -15.146  25.844  1.00  0.00     0.185 HD
BRANCH  12  16
HETATM   16  N1  UNL     1      15.952 -17.086  25.865  1.00  0.00    -0.234 N
ATOM     17  H12 UNL     1      15.410 -17.801  26.349  1.00  0.00     0.174 HD
ATOM     18  H11 UNL     1      15.479 -16.307  25.407  1.00  0.00     0.174 HD
ENDBRANCH  12  16
ENDBRANCH   6   8
ENDBRANCH   5   6
ENDBRANCH   4   5
ENDBRANCH   1   4
BRANCH   1  19
HETATM   19  C7  UNL     1      19.853 -10.508  24.403  1.00  0.00     0.258 C
BRANCH  19  20
HETATM   20  C8  UNL     1      18.813  -9.466  23.998  1.00  0.00     0.195 C
BRANCH  20  21
HETATM   21  O1  UNL     1      17.843  -9.980  23.180  1.00  0.00    -0.388 OA
BRANCH  21  22
HETATM   22  C9  UNL     1      16.558  -9.592  23.444  1.00  0.00     0.187 C
BRANCH  22  23
HETATM   23  C10 UNL     1      15.743  -9.588  22.191  1.00  0.00     0.164 C
BRANCH  23  24
HETATM   24  N5  UNL     1      15.663 -10.954  21.705  1.00  0.00    -0.223 N
ATOM     25  H5  UNL     1      16.448 -11.332  21.174  1.00  0.00     0.177 HD
BRANCH  24  26
HETATM   26  C11 UNL     1      14.654 -11.698  21.917  1.00  0.00     0.693 A
HETATM   27  N6  UNL     1      14.341 -12.453  22.979  1.00  0.00    -0.185 N
HETATM   28  C12 UNL     1      13.168 -13.089  22.804  1.00  0.00     0.215 A
ATOM     29  H6  UNL     1      14.920 -12.535  23.815  1.00  0.00     0.185 HD
HETATM   30  N7  UNL     1      12.743 -12.702  21.572  1.00  0.00    -0.281 N
HETATM   31  N8  UNL     1      13.624 -11.877  21.046  1.00  0.00    -0.131 N
ATOM     32  H7  UNL     1      11.877 -13.004  21.125  1.00  0.00     0.188 HD
ATOM     33  H8  UNL     1      13.547 -11.439  20.128  1.00  0.00     0.205 HD
ENDBRANCH  24  26
ENDBRANCH  23  24
ENDBRANCH  22  23
ENDBRANCH  21  22
ENDBRANCH  20  21
ENDBRANCH  19  20
ENDBRANCH   1  19
TORSDOF 12
ENDMDL