MODEL 4
REMARK VINA RESULT: -6.145344688      7.042     10.686
REMARK  15 active torsions:
REMARK  status: ('A' for Active; 'I' for Inactive)
REMARK    1  A    between atoms: C2_2  and  C3_3
REMARK    2  A    between atoms: C2_2  and  N1_6
REMARK    3  A    between atoms: C3_3  and  O1_4
REMARK    4  A    between atoms: N1_6  and  C4_8
REMARK    5  A    between atoms: C5_11  and  N3_12
REMARK    6  A    between atoms: N3_12  and  C6_14
REMARK    7  A    between atoms: C6_14  and  C7_15
REMARK    8  A    between atoms: C7_15  and  O2_16
REMARK    9  A    between atoms: C8_20  and  N5_21
REMARK   10  A    between atoms: N5_21  and  C9_23
REMARK   11  A    between atoms: C9_23  and  C10_24
REMARK   12  A    between atoms: C10_24  and  C11_25
REMARK   13  A    between atoms: C11_25  and  C12_26
REMARK   14  A    between atoms: C12_26  and  C13_27
REMARK   15  A    between atoms: C13_27  and  N6_28
ROOT
HETATM    1  C4  UNL     1      22.080 -16.524  31.281  1.00  0.00     0.707 A
HETATM    2  N2  UNL     1      22.247 -15.426  30.527  1.00  0.00    -0.022 N
ATOM      3  H2  UNL     1      22.896 -15.453  29.740  1.00  0.00     0.203 HD
HETATM    4  C5  UNL     1      21.566 -14.275  30.794  1.00  0.00     0.707 A
HETATM    5  N4  UNL     1      20.711 -14.241  31.833  1.00  0.00    -0.022 N
ATOM      6  H4  UNL     1      20.197 -13.385  32.040  1.00  0.00     0.203 HD
HETATM    7  C8  UNL     1      20.528 -15.333  32.600  1.00  0.00     0.707 A
HETATM    8  N7  UNL     1      21.222 -16.474  32.312  1.00  0.00    -0.022 N
ATOM      9  H7  UNL     1      21.086 -17.302  32.892  1.00  0.00     0.203 HD
ENDROOT
BRANCH   7  10
HETATM   10  N5  UNL     1      19.706 -15.288  33.593  1.00  0.00    -0.225 N
ATOM     11  H5  UNL     1      19.961 -15.687  34.497  1.00  0.00     0.177 HD
BRANCH  10  12
HETATM   12  C9  UNL     1      18.421 -14.665  33.401  1.00  0.00     0.138 C
BRANCH  12  13
HETATM   13  C10 UNL     1      18.203 -13.477  34.280  1.00  0.00     0.020 C
BRANCH  13  14
HETATM   14  C11 UNL     1      18.529 -13.776  35.726  1.00  0.00     0.003 C
BRANCH  14  15
HETATM   15  C12 UNL     1      17.394 -13.370  36.643  1.00  0.00     0.027 C
BRANCH  15  16
HETATM   16  C13 UNL     1      16.153 -13.001  35.880  1.00  0.00     0.229 C
BRANCH  16  17
HETATM   17  N6  UNL     1      15.010 -13.776  36.319  1.00  0.00    -0.079 N
ATOM     18  H63 UNL     1      15.274 -14.735  36.548  1.00  0.00     0.274 HD
ATOM     19  H62 UNL     1      14.686 -13.477  37.239  1.00  0.00     0.274 HD
ATOM     20  H61 UNL     1      14.256 -13.751  35.632  1.00  0.00     0.274 HD
ENDBRANCH  16  17
ENDBRANCH  15  16
ENDBRANCH  14  15
ENDBRANCH  13  14
ENDBRANCH  12  13
ENDBRANCH  10  12
ENDBRANCH   7  10
BRANCH   4  21
HETATM   21  N3  UNL     1      21.721 -13.215  30.078  1.00  0.00    -0.223 N
ATOM     22  H3  UNL     1      22.476 -12.560  30.282  1.00  0.00     0.177 HD
BRANCH  21  23
HETATM   23  C6  UNL     1      20.816 -12.965  28.983  1.00  0.00     0.164 C
BRANCH  23  24
HETATM   24  C7  UNL     1      19.978 -11.720  29.226  1.00  0.00     0.184 C
BRANCH  24  25
HETATM   25  O2  UNL     1      19.023 -11.951  30.191  1.00  0.00    -0.399 OA
ATOM     26  H2  UNL     1      18.641 -11.135  30.491  1.00  0.00     0.209 HD
ENDBRANCH  24  25
ENDBRANCH  23  24
ENDBRANCH  21  23
ENDBRANCH   4  21
BRANCH   1  27
HETATM   27  N1  UNL     1      22.699 -17.621  31.060  1.00  0.00    -0.219 N
ATOM     28  H1  UNL     1      22.311 -18.469  31.471  1.00  0.00     0.178 HD
BRANCH  27  29
HETATM   29  C2  UNL     1      23.891 -17.752  30.284  1.00  0.00     0.118 C
HETATM   30  C1  UNL     1      25.146 -17.499  31.092  1.00  0.00     0.035 C
BRANCH  29  31
HETATM   31  C3  UNL     1      23.942 -19.213  29.810  1.00  0.00     0.189 C
BRANCH  31  32
HETATM   32  O1  UNL     1      23.079 -19.362  28.748  1.00  0.00    -0.399 OA
ATOM     33  H1  UNL     1      23.395 -20.067  28.196  1.00  0.00     0.209 HD
ENDBRANCH  31  32
ENDBRANCH  29  31
ENDBRANCH  27  29
ENDBRANCH   1  27
TORSDOF 15
ENDMDL