MODEL 4
REMARK VINA RESULT: -7.062465451      1.596      1.936
REMARK  11 active torsions:
REMARK  status: ('A' for Active; 'I' for Inactive)
REMARK    1  A    between atoms: C4_12  and  C5_13
REMARK    2  A    between atoms: C5_13  and  C6_14
REMARK    3  A    between atoms: C6_14  and  C7_15
REMARK    4  A    between atoms: C7_15  and  C8_16
REMARK    5  A    between atoms: C8_16  and  N4_17
REMARK    6  A    between atoms: N4_17  and  C9_20
REMARK    7  A    between atoms: C9_20  and  C10_21
REMARK    8  A    between atoms: C10_21  and  C11_22
REMARK    9  A    between atoms: C11_22  and  C12_23
REMARK   10  A    between atoms: C12_23  and  N5_24
REMARK   11  A    between atoms: N7_30  and  O2_31
ROOT
HETATM    1  N1  UNL     1      12.965 -13.070  33.086  1.00  0.00    -0.234 N
ATOM      2  H11 UNL     1      12.281 -13.241  33.823  1.00  0.00     0.174 HD
ATOM      3  H12 UNL     1      12.667 -12.832  32.139  1.00  0.00     0.174 HD
HETATM    4  C1  UNL     1      14.210 -13.158  33.366  1.00  0.00     0.680 A
HETATM    5  N2  UNL     1      15.127 -12.927  32.377  1.00  0.00    -0.154 N
ATOM      6  H2  UNL     1      14.840 -12.690  31.428  1.00  0.00     0.187 HD
HETATM    7  C2  UNL     1      16.420 -13.029  32.714  1.00  0.00     0.290 A
HETATM    8  O1  UNL     1      17.334 -12.827  31.842  1.00  0.00    -0.265 OA
HETATM    9  C3  UNL     1      16.871 -13.349  33.987  1.00  0.00     0.152 A
HETATM   10  N3  UNL     1      18.185 -13.437  34.279  1.00  0.00    -0.337 N
ATOM     11  H3  UNL     1      18.875 -13.267  33.547  1.00  0.00     0.167 HD
HETATM   12  C4  UNL     1      18.604 -13.749  35.536  1.00  0.00     0.098 A
HETATM   13  N6  UNL     1      17.663 -13.963  36.457  1.00  0.00    -0.261 N
ATOM     14  H6  UNL     1      17.953 -14.200  37.406  1.00  0.00     0.191 HD
HETATM   15  N7  UNL     1      16.349 -13.880  36.187  1.00  0.00    -0.142 N
HETATM   16  C13 UNL     1      15.903 -13.571  34.945  1.00  0.00     0.199 A
HETATM   17  N8  UNL     1      14.604 -13.472  34.620  1.00  0.00    -0.170 N
ATOM     18  H8  UNL     1      13.898 -13.639  35.336  1.00  0.00     0.186 HD
ENDROOT
BRANCH  12  19
HETATM   19  C5  UNL     1      20.044 -13.834  35.824  1.00  0.00     0.078 C
BRANCH  19  20
HETATM   20  C6  UNL     1      20.709 -15.050  35.216  1.00  0.00     0.009 C
BRANCH  20  21
HETATM   21  C7  UNL     1      21.738 -14.546  34.231  1.00  0.00     0.028 C
BRANCH  21  22
HETATM   22  C8  UNL     1      21.246 -14.543  32.822  1.00  0.00     0.232 C
BRANCH  22  23
HETATM   23  N4  UNL     1      20.438 -15.658  32.442  1.00  0.00    -0.075 N
ATOM     24  H42 UNL     1      20.172 -16.241  33.235  1.00  0.00     0.277 HD
ATOM     25  H41 UNL     1      19.499 -15.384  32.153  1.00  0.00     0.277 HD
BRANCH  23  26
HETATM   26  C9  UNL     1      21.148 -16.397  31.414  1.00  0.00     0.232 C
BRANCH  26  27
HETATM   27  C10 UNL     1      22.055 -17.470  31.957  1.00  0.00     0.029 C
BRANCH  27  28
HETATM   28  C11 UNL     1      22.205 -18.624  30.985  1.00  0.00     0.029 C
BRANCH  28  29
HETATM   29  C12 UNL     1      23.201 -18.253  29.880  1.00  0.00     0.229 C
BRANCH  29  30
HETATM   30  N5  UNL     1      22.699 -18.597  28.569  1.00  0.00    -0.079 N
ATOM     31  H53 UNL     1      22.190 -19.481  28.585  1.00  0.00     0.274 HD
ATOM     32  H52 UNL     1      21.936 -17.980  28.289  1.00  0.00     0.274 HD
ATOM     33  H51 UNL     1      23.442 -18.609  27.870  1.00  0.00     0.274 HD
ENDBRANCH  29  30
ENDBRANCH  28  29
ENDBRANCH  27  28
ENDBRANCH  26  27
ENDBRANCH  23  26
ENDBRANCH  22  23
ENDBRANCH  21  22
ENDBRANCH  20  21
ENDBRANCH  19  20
ENDBRANCH  12  19
BRANCH  15  34
HETATM   34  O2  UNL     1      15.492 -14.084  37.064  1.00  0.00    -0.266 OA
ATOM     35  H2  UNL     1      15.559 -14.821  37.659  1.00  0.00     0.247 HD
ENDBRANCH  15  34
TORSDOF 11
ENDMDL