MODEL 3
REMARK VINA RESULT: -5.838171382      1.767      5.198
REMARK  14 active torsions:
REMARK  status: ('A' for Active; 'I' for Inactive)
REMARK    1  A    between atoms: C2_2  and  O1_3
REMARK    2  A    between atoms: C2_2  and  C3_5
REMARK    3  A    between atoms: C3_5  and  C4_6
REMARK    4  A    between atoms: C4_6  and  C5_7
REMARK    5  A    between atoms: C5_7  and  N1_8
REMARK    6  A    between atoms: N1_8  and  C6_10
REMARK    7  A    between atoms: N3_14  and  C8_16
REMARK    8  A    between atoms: C8_16  and  C9_17
REMARK    9  A    between atoms: C9_17  and  O2_18
REMARK   10  A    between atoms: C10_22  and  N5_23
REMARK   11  A    between atoms: N5_23  and  C11_25
REMARK   12  A    between atoms: C11_25  and  C12_26
REMARK   13  A    between atoms: C12_26  and  C13_27
REMARK   14  A    between atoms: C13_27  and  O3_28
ROOT
HETATM    1  C6  UNL     1      16.718 -14.536  25.070  1.00  0.00     0.707 A
HETATM    2  N2  UNL     1      17.794 -13.820  25.521  1.00  0.00    -0.022 N
ATOM      3  H2  UNL     1      17.806 -12.808  25.402  1.00  0.00     0.203 HD
HETATM    4  C7  UNL     1      18.831 -14.423  26.115  1.00  0.00     0.707 A
HETATM    5  N3  UNL     1      19.826 -13.751  26.531  1.00  0.00    -0.223 N
ATOM      6  H3  UNL     1      20.587 -14.266  26.975  1.00  0.00     0.177 HD
HETATM    7  N4  UNL     1      18.825 -15.786  26.281  1.00  0.00    -0.022 N
ATOM      8  H4  UNL     1      19.610 -16.256  26.732  1.00  0.00     0.203 HD
HETATM    9  C10 UNL     1      17.789 -16.478  25.846  1.00  0.00     0.707 A
HETATM   10  N6  UNL     1      16.746 -15.856  25.247  1.00  0.00    -0.022 N
ATOM     11  H6  UNL     1      15.958 -16.415  24.922  1.00  0.00     0.203 HD
ENDROOT
BRANCH   1  12
HETATM   12  N1  UNL     1      15.762 -13.889  24.510  1.00  0.00    -0.225 N
ATOM     13  H1  UNL     1      15.617 -12.897  24.695  1.00  0.00     0.177 HD
BRANCH  12  14
HETATM   14  C5  UNL     1      14.894 -14.616  23.605  1.00  0.00     0.138 C
BRANCH  14  15
HETATM   15  C4  UNL     1      13.742 -13.759  23.126  1.00  0.00     0.023 C
BRANCH  15  16
HETATM   16  C3  UNL     1      14.333 -12.658  22.247  1.00  0.00     0.033 C
BRANCH  16  17
HETATM   17  C2  UNL     1      13.456 -11.416  22.433  1.00  0.00     0.114 C
HETATM   18  C1  UNL     1      12.744 -11.201  21.103  1.00  0.00     0.039 C
BRANCH  17  19
HETATM   19  O1  UNL     1      12.518 -11.630  23.424  1.00  0.00    -0.396 OA
ATOM     20  H1  UNL     1      12.956 -11.681  24.265  1.00  0.00     0.210 HD
ENDBRANCH  17  19
ENDBRANCH  16  17
ENDBRANCH  15  16
ENDBRANCH  14  15
ENDBRANCH  12  14
ENDBRANCH   1  12
BRANCH   9  21
HETATM   21  N5  UNL     1      17.743 -17.756  25.981  1.00  0.00    -0.225 N
ATOM     22  H5  UNL     1      16.840 -18.231  25.968  1.00  0.00     0.177 HD
BRANCH  21  23
HETATM   23  C11 UNL     1      18.953 -18.526  26.152  1.00  0.00     0.140 C
BRANCH  23  24
HETATM   24  C12 UNL     1      19.416 -19.027  24.779  1.00  0.00     0.046 C
BRANCH  24  25
HETATM   25  C13 UNL     1      19.280 -20.515  24.711  1.00  0.00     0.165 C
BRANCH  25  26
HETATM   26  O3  UNL     1      19.321 -20.922  23.388  1.00  0.00    -0.401 OA
ATOM     27  H3  UNL     1      20.156 -20.676  23.007  1.00  0.00     0.209 HD
ENDBRANCH  25  26
ENDBRANCH  24  25
ENDBRANCH  23  24
ENDBRANCH  21  23
ENDBRANCH   9  21
BRANCH   5  28
HETATM   28  C8  UNL     1      19.964 -12.350  26.427  1.00  0.00     0.164 C
BRANCH  28  29
HETATM   29  C9  UNL     1      20.363 -11.763  27.785  1.00  0.00     0.184 C
BRANCH  29  30
HETATM   30  O2  UNL     1      19.614 -12.316  28.787  1.00  0.00    -0.399 OA
ATOM     31  H2  UNL     1      18.841 -11.790  28.956  1.00  0.00     0.209 HD
ENDBRANCH  29  30
ENDBRANCH  28  29
ENDBRANCH   5  28
TORSDOF 14
ENDMDL