MODEL 5
REMARK VINA RESULT: -6.995370688      1.798      3.090
REMARK  10 active torsions:
REMARK  status: ('A' for Active; 'I' for Inactive)
REMARK    1  A    between atoms: C2_2  and  O1_3
REMARK    2  A    between atoms: O1_3  and  N1_4
REMARK       I    between atoms: N1_4  and  C3_6
REMARK       I    between atoms: C3_6  and  N8_25
REMARK    3  A    between atoms: N2_7  and  C4_9
REMARK    4  A    between atoms: C4_9  and  C5_10
REMARK    5  A    between atoms: C5_10  and  C6_11
REMARK    6  A    between atoms: C6_11  and  C7_12
REMARK    7  A    between atoms: C8_19  and  C9_20
REMARK    8  A    between atoms: N8_25  and  N9_27
REMARK    9  A    between atoms: N9_27  and  O2_28
REMARK   10  A    between atoms: N9_27  and  O3_30
ROOT
HETATM    1  C4  UNL     1      20.644 -14.215  35.329  1.00  0.00     0.138 C
ENDROOT
BRANCH   1   2
HETATM    2  N2  UNL     1      21.392 -15.362  34.861  1.00  0.00    -0.223 N
HETATM    3  C3  UNL     1      21.789 -15.504  33.647  1.00  0.00     0.712 C
HETATM    4  N1  UNL     1      22.517 -16.646  33.241  1.00  0.00    -0.091 N
HETATM    5  N8  UNL     1      21.470 -14.461  32.714  1.00  0.00    -0.102 N
ATOM      6  H1  UNL     1      23.534 -16.660  33.313  1.00  0.00     0.213 HD
ATOM      7  H8  UNL     1      21.754 -13.493  32.872  1.00  0.00     0.204 HD
ATOM      8  H2  UNL     1      21.615 -16.097  35.531  1.00  0.00     0.177 HD
BRANCH   4   9
HETATM    9  O1  UNL     1      21.845 -17.733  32.751  1.00  0.00    -0.237 OA
BRANCH   9  10
HETATM   10  C2  UNL     1      22.180 -18.216  31.497  1.00  0.00     0.158 C
HETATM   11  C1  UNL     1      23.066 -17.551  30.769  1.00  0.00     0.039 C
ENDBRANCH   9  10
ENDBRANCH   4   9
BRANCH   5  12
HETATM   12  N9  UNL     1      20.747 -14.843  31.572  1.00  0.00     0.049 NA
BRANCH  12  13
HETATM   13  O2  UNL     1      19.883 -15.814  31.948  1.00  0.00    -0.270 OA
ATOM     14  H2  UNL     1      19.037 -15.602  31.572  1.00  0.00     0.241 HD
ENDBRANCH  12  13
BRANCH  12  15
HETATM   15  O3  UNL     1      20.112 -13.769  31.082  1.00  0.00    -0.265 OA
HETATM   16  C10 UNL     1      20.834 -13.182  30.027  1.00  0.00     0.234 C
ENDBRANCH  12  15
ENDBRANCH   5  12
ENDBRANCH   1   2
BRANCH   1  17
HETATM   17  C5  UNL     1      19.323 -14.616  35.989  1.00  0.00     0.026 C
BRANCH  17  18
HETATM   18  C6  UNL     1      18.532 -13.374  36.212  1.00  0.00     0.063 C
BRANCH  18  19
HETATM   19  C7  UNL     1      17.106 -13.462  35.902  1.00  0.00     0.058 A
HETATM   20  N3  UNL     1      16.136 -13.660  36.807  1.00  0.00    -0.288 N
HETATM   21  N4  UNL     1      14.973 -13.656  36.224  1.00  0.00    -0.242 N
ATOM     22  H3  UNL     1      16.289 -13.793  37.807  1.00  0.00     0.188 HD
HETATM   23  N5  UNL     1      15.167 -13.457  34.952  1.00  0.00    -0.281 N
ATOM     24  H4  UNL     1      14.070 -13.785  36.682  1.00  0.00     0.208 HD
HETATM   25  C8  UNL     1      16.499 -13.328  34.684  1.00  0.00     0.114 A
ATOM     26  H5  UNL     1      14.427 -13.405  34.253  1.00  0.00     0.188 HD
BRANCH  25  27
HETATM   27  C9  UNL     1      17.047 -13.114  33.370  1.00  0.00     0.140 C
HETATM   28  N6  UNL     1      17.968 -13.909  32.927  1.00  0.00    -0.386 N
ATOM     29  H62 UNL     1      18.237 -14.660  33.563  1.00  0.00     0.157 HD
ATOM     30  H61 UNL     1      18.355 -13.757  31.996  1.00  0.00     0.157 HD
HETATM   31  N7  UNL     1      16.673 -12.068  32.485  1.00  0.00    -0.081 NA
ENDBRANCH  25  27
ENDBRANCH  18  19
ENDBRANCH  17  18
ENDBRANCH   1  17
TORSDOF 10
ENDMDL