MODEL 1
REMARK VINA RESULT: -6.588644869      0.000      0.000
REMARK  12 active torsions:
REMARK  status: ('A' for Active; 'I' for Inactive)
REMARK    1  A    between atoms: N3_4  and  C2_6
REMARK    2  A    between atoms: C2_6  and  C3_7
REMARK    3  A    between atoms: C3_7  and  C4_8
REMARK    4  A    between atoms: C4_8  and  C5_9
REMARK    5  A    between atoms: C5_9  and  N4_10
REMARK    6  A    between atoms: N4_10  and  C6_12
REMARK    7  A    between atoms: C8_19  and  N8_20
REMARK    8  A    between atoms: N8_20  and  C9_22
REMARK    9  A    between atoms: C9_22  and  C10_23
REMARK   10  A    between atoms: C10_23  and  C11_24
REMARK   11  A    between atoms: C11_24  and  C12_25
REMARK   12  A    between atoms: C12_25  and  O1_26
ROOT
HETATM    1  C6  UNL     1      18.036 -13.461  33.063  1.00  0.00     0.695 A
HETATM    2  N5  UNL     1      17.830 -13.413  34.391  1.00  0.00    -0.162 N
ATOM      3  H5  UNL     1      16.942 -13.057  34.745  1.00  0.00     0.187 HD
HETATM    4  C7  UNL     1      18.769 -13.826  35.263  1.00  0.00     0.221 A
HETATM    5  N6  UNL     1      18.535 -13.770  36.675  1.00  0.00    -0.062 NA
HETATM    6  N7  UNL     1      19.929 -14.289  34.765  1.00  0.00    -0.162 N
ATOM      7  H7  UNL     1      20.646 -14.603  35.420  1.00  0.00     0.187 HD
HETATM    8  C8  UNL     1      20.195 -14.361  33.450  1.00  0.00     0.695 A
HETATM    9  N9  UNL     1      19.204 -13.929  32.620  1.00  0.00    -0.022 N
ATOM     10  H9  UNL     1      19.362 -13.965  31.613  1.00  0.00     0.203 HD
ENDROOT
BRANCH   1  11
HETATM   11  N4  UNL     1      17.140 -13.067  32.202  1.00  0.00    -0.225 N
ATOM     12  H4  UNL     1      17.357 -13.012  31.207  1.00  0.00     0.177 HD
BRANCH  11  13
HETATM   13  C5  UNL     1      15.829 -12.711  32.700  1.00  0.00     0.138 C
BRANCH  13  14
HETATM   14  C4  UNL     1      14.802 -13.393  31.819  1.00  0.00     0.022 C
BRANCH  14  15
HETATM   15  C3  UNL     1      13.775 -14.129  32.659  1.00  0.00     0.021 C
BRANCH  15  16
HETATM   16  C2  UNL     1      13.488 -13.255  33.876  1.00  0.00     0.122 C
BRANCH  16  17
HETATM   17  N3  UNL     1      13.203 -14.105  35.014  1.00  0.00    -0.367 N
HETATM   18  C1  UNL     1      13.985 -14.146  36.043  1.00  0.00     0.196 C
HETATM   19  N1  UNL     1      13.744 -14.956  37.167  1.00  0.00    -0.067 NA
HETATM   20  N2  UNL     1      15.138 -13.336  36.035  1.00  0.00    -0.067 NA
ATOM     21  H3  UNL     1      12.364 -14.685  35.004  1.00  0.00     0.161 HD
ENDBRANCH  16  17
ENDBRANCH  15  16
ENDBRANCH  14  15
ENDBRANCH  13  14
ENDBRANCH  11  13
ENDBRANCH   1  11
BRANCH   8  22
HETATM   22  N8  UNL     1      21.295 -14.800  32.958  1.00  0.00    -0.225 N
ATOM     23  H8  UNL     1      21.539 -14.617  31.985  1.00  0.00     0.177 HD
BRANCH  22  24
HETATM   24  C9  UNL     1      22.171 -15.552  33.799  1.00  0.00     0.138 C
BRANCH  24  25
HETATM   25  C10 UNL     1      22.342 -16.986  33.357  1.00  0.00     0.022 C
BRANCH  25  26
HETATM   26  C11 UNL     1      22.747 -17.106  31.922  1.00  0.00     0.028 C
BRANCH  26  27
HETATM   27  C12 UNL     1      21.799 -17.924  31.101  1.00  0.00     0.164 C
BRANCH  27  28
HETATM   28  O1  UNL     1      20.548 -17.325  31.160  1.00  0.00    -0.401 OA
ATOM     29  H1  UNL     1      19.907 -17.998  31.358  1.00  0.00     0.209 HD
ENDBRANCH  27  28
ENDBRANCH  26  27
ENDBRANCH  25  26
ENDBRANCH  24  25
ENDBRANCH  22  24
ENDBRANCH   8  22
TORSDOF 12
ENDMDL