MODEL 2
REMARK VINA RESULT: -6.323803502      0.573      1.890
REMARK  12 active torsions:
REMARK  status: ('A' for Active; 'I' for Inactive)
REMARK    1  A    between atoms: N1_1  and  C1_4
REMARK    2  A    between atoms: C2_7  and  N3_8
REMARK    3  A    between atoms: N3_8  and  C3_10
REMARK    4  A    between atoms: C3_10  and  C4_11
REMARK    5  A    between atoms: C4_11  and  N4_12
REMARK    6  A    between atoms: N4_12  and  C5_15
REMARK    7  A    between atoms: C5_15  and  C6_16
REMARK    8  A    between atoms: C6_16  and  N5_17
REMARK    9  A    between atoms: N5_17  and  C7_18
REMARK   10  A    between atoms: N5_17  and  C8_20
REMARK   11  A    between atoms: C8_20  and  C9_21
REMARK   12  A    between atoms: C9_21  and  O2_22
ROOT
HETATM    1  C1  UNL     1      16.079 -13.210  33.549  1.00  0.00     0.145 A
HETATM    2  N2  UNL     1      17.159 -13.261  34.333  1.00  0.00    -0.175 N
ATOM      3  H2  UNL     1      18.078 -13.222  33.892  1.00  0.00     0.186 HD
HETATM    4  C2  UNL     1      17.097 -13.361  35.699  1.00  0.00     0.681 A
HETATM    5  N6  UNL     1      15.870 -13.409  36.242  1.00  0.00    -0.174 N
ATOM      6  H6  UNL     1      15.791 -13.484  37.256  1.00  0.00     0.186 HD
HETATM    7  C10 UNL     1      14.739 -13.363  35.513  1.00  0.00     0.152 A
HETATM    8  N7  UNL     1      13.413 -13.395  35.841  1.00  0.00    -0.336 N
ATOM      9  H7  UNL     1      13.015 -13.466  36.777  1.00  0.00     0.168 HD
HETATM   10  C11 UNL     1      12.737 -13.313  34.679  1.00  0.00     0.182 A
HETATM   11  N8  UNL     1      13.600 -13.232  33.644  1.00  0.00    -0.346 N
ATOM     12  H8  UNL     1      13.351 -13.160  32.657  1.00  0.00     0.167 HD
HETATM   13  C12 UNL     1      14.837 -13.261  34.145  1.00  0.00     0.122 A
ENDROOT
BRANCH   4  14
HETATM   14  N3  UNL     1      18.202 -13.402  36.367  1.00  0.00    -0.224 N
ATOM     15  H3  UNL     1      18.212 -13.134  37.351  1.00  0.00     0.177 HD
BRANCH  14  16
HETATM   16  C3  UNL     1      19.415 -13.823  35.729  1.00  0.00     0.165 C
BRANCH  16  17
HETATM   17  C4  UNL     1      19.473 -15.352  35.840  1.00  0.00     0.252 C
BRANCH  17  18
HETATM   18  N4  UNL     1      20.169 -15.794  34.648  1.00  0.00    -0.072 N
ATOM     19  H42 UNL     1      20.371 -16.794  34.671  1.00  0.00     0.277 HD
ATOM     20  H41 UNL     1      19.566 -15.784  33.825  1.00  0.00     0.277 HD
BRANCH  18  21
HETATM   21  C5  UNL     1      21.345 -15.013  34.459  1.00  0.00     0.252 C
BRANCH  21  22
HETATM   22  C6  UNL     1      22.071 -15.223  33.169  1.00  0.00     0.152 C
BRANCH  22  23
HETATM   23  N5  UNL     1      21.170 -15.260  32.050  1.00  0.00    -0.356 N
BRANCH  23  24
HETATM   24  C7  UNL     1      20.356 -14.174  31.696  1.00  0.00     0.350 C
HETATM   25  O1  UNL     1      19.183 -13.997  32.129  1.00  0.00    -0.284 OA
ENDBRANCH  23  24
BRANCH  23  26
HETATM   26  C8  UNL     1      21.037 -16.462  31.246  1.00  0.00     0.151 C
BRANCH  26  27
HETATM   27  C9  UNL     1      21.953 -17.576  31.616  1.00  0.00     0.183 C
BRANCH  27  28
HETATM   28  O2  UNL     1      21.833 -18.698  30.798  1.00  0.00    -0.399 OA
ATOM     29  H2  UNL     1      22.532 -19.331  30.911  1.00  0.00     0.209 HD
ENDBRANCH  27  28
ENDBRANCH  26  27
ENDBRANCH  23  26
ENDBRANCH  22  23
ENDBRANCH  21  22
ENDBRANCH  18  21
ENDBRANCH  17  18
ENDBRANCH  16  17
ENDBRANCH  14  16
ENDBRANCH   4  14
BRANCH   1  30
HETATM   30  N1  UNL     1      16.164 -13.116  32.257  1.00  0.00    -0.383 N
ATOM     31  H12 UNL     1      16.687 -12.344  31.845  1.00  0.00     0.157 HD
ATOM     32  H11 UNL     1      15.723 -13.790  31.631  1.00  0.00     0.157 HD
ENDBRANCH   1  30
TORSDOF 12
ENDMDL