MODEL 3
REMARK VINA RESULT: -5.973255617      2.987      5.780
REMARK  14 active torsions:
REMARK  status: ('A' for Active; 'I' for Inactive)
REMARK    1  A    between atoms: C2_2  and  N1_3
REMARK    2  A    between atoms: N1_3  and  C3_6
REMARK    3  A    between atoms: C3_6  and  C4_7
REMARK    4  A    between atoms: C4_7  and  C5_8
REMARK    5  A    between atoms: C5_8  and  N2_9
REMARK    6  A    between atoms: N2_9  and  C6_11
REMARK    7  A    between atoms: C7_14  and  N4_15
REMARK    8  A    between atoms: N4_15  and  C8_17
REMARK    9  A    between atoms: C8_17  and  C9_18
REMARK   10  A    between atoms: C9_18  and  C10_19
REMARK   11  A    between atoms: C10_19  and  C11_20
REMARK   12  A    between atoms: C11_20  and  O1_21
REMARK   13  A    between atoms: C12_25  and  N6_26
REMARK   14  A    between atoms: N6_26  and  N7_28
ROOT
HETATM    1  C6  UNL     1      25.151 -17.561  20.085  1.00  0.00     0.707 A
HETATM    2  N3  UNL     1      25.598 -16.279  19.948  1.00  0.00    -0.022 N
ATOM      3  H3  UNL     1      24.901 -15.545  19.819  1.00  0.00     0.203 HD
HETATM    4  C7  UNL     1      26.881 -15.919  19.971  1.00  0.00     0.707 A
HETATM    5  N5  UNL     1      27.780 -16.901  20.140  1.00  0.00    -0.020 N
ATOM      6  H5  UNL     1      28.769 -16.654  20.160  1.00  0.00     0.203 HD
HETATM    7  C12 UNL     1      27.438 -18.194  20.284  1.00  0.00     0.725 A
HETATM    8  N8  UNL     1      26.106 -18.490  20.252  1.00  0.00    -0.020 N
ATOM      9  H8  UNL     1      25.822 -19.463  20.359  1.00  0.00     0.203 HD
ENDROOT
BRANCH   1  10
HETATM   10  N2  UNL     1      23.899 -17.807  20.052  1.00  0.00    -0.225 N
ATOM     11  H2  UNL     1      23.484 -17.917  19.126  1.00  0.00     0.177 HD
BRANCH  10  12
HETATM   12  C5  UNL     1      23.020 -17.943  21.159  1.00  0.00     0.139 C
BRANCH  12  13
HETATM   13  C4  UNL     1      21.985 -16.803  21.157  1.00  0.00     0.048 C
BRANCH  13  14
HETATM   14  C3  UNL     1      22.194 -16.005  22.420  1.00  0.00     0.234 C
BRANCH  14  15
HETATM   15  N1  UNL     1      21.192 -16.466  23.375  1.00  0.00    -0.075 N
ATOM     16  H12 UNL     1      21.104 -17.482  23.371  1.00  0.00     0.277 HD
ATOM     17  H11 UNL     1      20.246 -16.230  23.075  1.00  0.00     0.277 HD
BRANCH  15  18
HETATM   18  C2  UNL     1      21.480 -15.954  24.704  1.00  0.00     0.228 C
HETATM   19  C1  UNL     1      22.349 -14.705  24.556  1.00  0.00     0.034 C
ENDBRANCH  15  18
ENDBRANCH  14  15
ENDBRANCH  13  14
ENDBRANCH  12  13
ENDBRANCH  10  12
ENDBRANCH   1  10
BRANCH   4  20
HETATM   20  N4  UNL     1      27.283 -14.701  19.849  1.00  0.00    -0.225 N
ATOM     21  H4  UNL     1      27.114 -14.263  18.944  1.00  0.00     0.177 HD
BRANCH  20  22
HETATM   22  C8  UNL     1      27.933 -13.897  20.820  1.00  0.00     0.138 C
BRANCH  22  23
HETATM   23  C9  UNL     1      27.158 -13.706  22.098  1.00  0.00     0.022 C
BRANCH  23  24
HETATM   24  C10 UNL     1      26.115 -12.637  22.003  1.00  0.00     0.028 C
BRANCH  24  25
HETATM   25  C11 UNL     1      24.705 -13.165  22.018  1.00  0.00     0.164 C
BRANCH  25  26
HETATM   26  O1  UNL     1      24.334 -13.687  20.778  1.00  0.00    -0.401 OA
ATOM     27  H1  UNL     1      23.949 -14.552  20.860  1.00  0.00     0.209 HD
ENDBRANCH  25  26
ENDBRANCH  24  25
ENDBRANCH  23  24
ENDBRANCH  22  23
ENDBRANCH  20  22
ENDBRANCH   4  20
BRANCH   7  28
HETATM   28  N6  UNL     1      28.323 -19.125  20.450  1.00  0.00    -0.136 N
ATOM     29  H6  UNL     1      29.073 -19.257  19.771  1.00  0.00     0.205 HD
BRANCH  28  30
HETATM   30  N7  UNL     1      28.231 -19.940  21.571  1.00  0.00    -0.327 N
HETATM   31  C13 UNL     1      29.298 -20.920  21.759  1.00  0.00     0.168 C
ATOM     32  H7  UNL     1      27.457 -19.858  22.230  1.00  0.00     0.180 HD
ENDBRANCH  28  30
ENDBRANCH   7  28
TORSDOF 14
ENDMDL