MODEL 1
REMARK VINA RESULT: -6.003330987      0.000      0.000
REMARK  15 active torsions:
REMARK  status: ('A' for Active; 'I' for Inactive)
REMARK    1  A    between atoms: C2_2  and  C3_3
REMARK    2  A    between atoms: C3_3  and  C4_4
REMARK    3  A    between atoms: C4_4  and  N1_5
REMARK    4  A    between atoms: N1_5  and  C5_7
REMARK    5  A    between atoms: C6_10  and  N3_11
REMARK    6  A    between atoms: N3_11  and  C7_13
REMARK    7  A    between atoms: C7_13  and  C8_14
REMARK    8  A    between atoms: C8_14  and  C9_15
REMARK    9  A    between atoms: C9_15  and  N4_16
REMARK   10  A    between atoms: C10_22  and  N6_23
REMARK   11  A    between atoms: N6_23  and  C11_25
REMARK   12  A    between atoms: C11_25  and  C12_26
REMARK   13  A    between atoms: C11_25  and  C13_29
REMARK   14  A    between atoms: C12_26  and  O1_27
REMARK   15  A    between atoms: C13_29  and  O2_30
ROOT
HETATM    1  C5  UNL     1      21.423 -16.435  23.101  1.00  0.00     0.707 A
HETATM    2  N2  UNL     1      21.878 -15.255  23.548  1.00  0.00    -0.022 N
ATOM      3  H2  UNL     1      22.427 -14.656  22.932  1.00  0.00     0.203 HD
HETATM    4  C6  UNL     1      21.613 -14.859  24.800  1.00  0.00     0.707 A
HETATM    5  N5  UNL     1      20.892 -15.640  25.613  1.00  0.00    -0.022 N
ATOM      6  H5  UNL     1      20.698 -15.325  26.563  1.00  0.00     0.203 HD
HETATM    7  C10 UNL     1      20.415 -16.837  25.203  1.00  0.00     0.707 A
HETATM    8  N7  UNL     1      20.693 -17.211  23.943  1.00  0.00    -0.022 N
ATOM      9  H7  UNL     1      20.345 -18.110  23.608  1.00  0.00     0.203 HD
ENDROOT
BRANCH   4  10
HETATM   10  N3  UNL     1      22.054 -13.735  25.203  1.00  0.00    -0.225 N
ATOM     11  H3  UNL     1      22.652 -13.693  26.029  1.00  0.00     0.177 HD
BRANCH  10  12
HETATM   12  C7  UNL     1      21.718 -12.532  24.509  1.00  0.00     0.139 C
BRANCH  12  13
HETATM   13  C8  UNL     1      20.451 -11.968  25.128  1.00  0.00     0.047 C
BRANCH  13  14
HETATM   14  C9  UNL     1      20.251 -10.583  24.529  1.00  0.00     0.231 C
BRANCH  14  15
HETATM   15  N4  UNL     1      18.889 -10.479  23.991  1.00  0.00    -0.079 N
ATOM     16  H43 UNL     1      18.871 -10.045  23.068  1.00  0.00     0.274 HD
ATOM     17  H42 UNL     1      18.507 -11.388  23.730  1.00  0.00     0.274 HD
ATOM     18  H41 UNL     1      18.297  -9.989  24.662  1.00  0.00     0.274 HD
ENDBRANCH  14  15
ENDBRANCH  13  14
ENDBRANCH  12  13
ENDBRANCH  10  12
ENDBRANCH   4  10
BRANCH   1  19
HETATM   19  N1  UNL     1      21.670 -16.827  21.902  1.00  0.00    -0.225 N
ATOM     20  H1  UNL     1      21.172 -17.650  21.560  1.00  0.00     0.177 HD
BRANCH  19  21
HETATM   21  C4  UNL     1      22.591 -16.193  21.017  1.00  0.00     0.138 C
BRANCH  21  22
HETATM   22  C3  UNL     1      23.747 -17.092  20.639  1.00  0.00     0.020 C
BRANCH  22  23
HETATM   23  C2  UNL     1      24.816 -16.304  19.919  1.00  0.00    -0.003 C
HETATM   24  C1  UNL     1      24.291 -14.949  19.553  1.00  0.00     0.005 C
ENDBRANCH  22  23
ENDBRANCH  21  22
ENDBRANCH  19  21
ENDBRANCH   1  19
BRANCH   7  25
HETATM   25  N6  UNL     1      19.715 -17.579  26.015  1.00  0.00    -0.216 N
ATOM     26  H6  UNL     1      20.014 -17.631  26.988  1.00  0.00     0.178 HD
BRANCH  25  27
HETATM   27  C11 UNL     1      18.558 -18.327  25.634  1.00  0.00     0.146 C
BRANCH  27  28
HETATM   28  C12 UNL     1      17.412 -18.058  26.590  1.00  0.00     0.192 C
BRANCH  28  29
HETATM   29  O1  UNL     1      16.274 -17.618  25.966  1.00  0.00    -0.399 OA
ATOM     30  H1  UNL     1      15.593 -17.346  26.571  1.00  0.00     0.209 HD
ENDBRANCH  28  29
ENDBRANCH  27  28
BRANCH  27  31
HETATM   31  C13 UNL     1      18.878 -19.803  25.561  1.00  0.00     0.192 C
BRANCH  31  32
HETATM   32  O2  UNL     1      19.260 -20.092  24.238  1.00  0.00    -0.399 OA
ATOM     33  H2  UNL     1      19.933 -20.761  24.272  1.00  0.00     0.209 HD
ENDBRANCH  31  32
ENDBRANCH  27  31
ENDBRANCH  25  27
ENDBRANCH   7  25
TORSDOF 15
ENDMDL