MODEL 1
REMARK VINA RESULT: -6.742788806      0.000      0.000
REMARK  10 active torsions:
REMARK  status: ('A' for Active; 'I' for Inactive)
REMARK    1  A    between atoms: N1_1  and  N2_4
REMARK    2  A    between atoms: N2_4  and  N3_5
REMARK    3  A    between atoms: N3_5  and  N4_7
REMARK    4  A    between atoms: C1_9  and  O1_10
REMARK    5  A    between atoms: C1_9  and  C2_12
REMARK    6  A    between atoms: C4_16  and  N6_17
REMARK    7  A    between atoms: N6_17  and  N7_19
REMARK    8  A    between atoms: N8_21  and  C5_23
REMARK    9  A    between atoms: N10_26  and  N11_27
REMARK   10  A    between atoms: C7_30  and  N12_31
ROOT
HETATM    1  N6  UNL     1      14.750   8.262   7.256  1.00  0.00    -0.270 N
ATOM      2  H6  UNL     1      14.918   7.343   6.845  1.00  0.00     0.190 HD
ENDROOT
BRANCH   1   3
HETATM    3  C4  UNL     1      14.262   8.351   8.457  1.00  0.00     0.138 A
HETATM    4  C3  UNL     1      13.257   7.491   8.816  1.00  0.00     0.138 A
HETATM    5  N5  UNL     1      12.708   7.529  10.043  1.00  0.00    -0.356 N
HETATM    6  C2  UNL     1      13.123   8.411  10.962  1.00  0.00     0.126 A
ATOM      7  H5  UNL     1      11.961   6.874  10.279  1.00  0.00     0.165 HD
HETATM    8  C9  UNL     1      14.143   9.275  10.575  1.00  0.00     0.149 A
HETATM    9  N14 UNL     1      14.698   9.243   9.350  1.00  0.00    -0.327 N
HETATM   10  N15 UNL     1      14.578  10.212  11.561  1.00  0.00    -0.080 NA
ATOM     11  H14 UNL     1      15.444   9.893   9.106  1.00  0.00     0.168 HD
BRANCH   6  12
HETATM   12  C1  UNL     1      12.555   8.487  12.302  1.00  0.00     0.187 C
HETATM   13  N4  UNL     1      11.791   9.464  12.605  1.00  0.00    -0.252 N
ATOM     14  H4  UNL     1      11.576  10.187  11.919  1.00  0.00     0.191 HD
BRANCH  13  15
HETATM   15  N3  UNL     1      11.255   9.524  13.889  1.00  0.00    -0.154 N
ATOM     16  H3  UNL     1      10.242   9.486  14.005  1.00  0.00     0.225 HD
BRANCH  15  17
HETATM   17  N2  UNL     1      11.962   9.620  14.884  1.00  0.00    -0.228 NA
BRANCH  17  18
HETATM   18  N1  UNL     1      12.943   9.660  15.638  1.00  0.00    -0.259 N
ATOM     19  H12 UNL     1      13.611   9.882  14.899  1.00  0.00     0.193 HD
ATOM     20  H11 UNL     1      13.537   9.627  16.467  1.00  0.00     0.193 HD
ENDBRANCH  17  18
ENDBRANCH  15  17
ENDBRANCH  13  15
BRANCH  12  21
HETATM   21  O1  UNL     1      12.830   7.521  13.248  1.00  0.00    -0.343 OA
ATOM     22  H1  UNL     1      13.687   7.112  13.264  1.00  0.00     0.219 HD
ENDBRANCH  12  21
ENDBRANCH   6  12
ENDBRANCH   1   3
BRANCH   1  23
HETATM   23  N7  UNL     1      15.045   9.413   6.523  1.00  0.00    -0.240 N
HETATM   24  N8  UNL     1      16.115   9.615   5.918  1.00  0.00    -0.278 N
ATOM     25  H8  UNL     1      16.205  10.500   5.419  1.00  0.00     0.189 HD
ATOM     26  H7  UNL     1      14.333  10.141   6.480  1.00  0.00     0.208 HD
BRANCH  24  27
HETATM   27  C5  UNL     1      17.216   8.728   5.859  1.00  0.00     0.162 A
HETATM   28  C6  UNL     1      18.002   8.552   6.990  1.00  0.00     0.189 A
HETATM   29  N9  UNL     1      17.673   9.266   8.158  1.00  0.00    -0.077 NA
HETATM   30  N10 UNL     1      19.068   7.708   6.968  1.00  0.00    -0.076 N
HETATM   31  C7  UNL     1      19.389   7.025   5.867  1.00  0.00     0.701 A
HETATM   32  N13 UNL     1      18.638   7.182   4.759  1.00  0.00    -0.153 N
HETATM   33  C8  UNL     1      17.567   8.013   4.735  1.00  0.00     0.291 A
ATOM     34  H13 UNL     1      18.882   6.662   3.916  1.00  0.00     0.187 HD
HETATM   35  O2  UNL     1      16.874   8.153   3.698  1.00  0.00    -0.265 OA
BRANCH  30  36
HETATM   36  N11 UNL     1      19.874   7.519   8.111  1.00  0.00    -0.323 N
ATOM     37 2H11 UNL     1      20.277   8.349   8.546  1.00  0.00     0.178 HD
ATOM     38 1H11 UNL     1      20.049   6.587   8.485  1.00  0.00     0.178 HD
ENDBRANCH  30  36
BRANCH  31  39
HETATM   39  N12 UNL     1      20.420   6.224   5.887  1.00  0.00    -0.233 N
ATOM     40 2H12 UNL     1      21.141   6.298   6.604  1.00  0.00     0.174 HD
ATOM     41 1H12 UNL     1      20.509   5.505   5.169  1.00  0.00     0.174 HD
ENDBRANCH  31  39
ENDBRANCH  24  27
ENDBRANCH   1  23
TORSDOF 10
ENDMDL