MODEL 5
REMARK VINA RESULT: -6.637836616      3.662      6.824
REMARK  8 active torsions:
REMARK  status: ('A' for Active; 'I' for Inactive)
REMARK    1  A    between atoms: N1_2  and  C2_4
REMARK    2  A    between atoms: C8_16  and  O1_17
REMARK    3  A    between atoms: O1_17  and  C9_18
REMARK       I    between atoms: C9_18  and  N6_20
REMARK    4  A    between atoms: N6_20  and  N7_22
REMARK    5  A    between atoms: N8_24  and  C10_26
REMARK    6  A    between atoms: C10_26  and  O3_27
REMARK    7  A    between atoms: C10_26  and  N9_29
REMARK    8  A    between atoms: N9_29  and  N10_31
ROOT
HETATM    1  C2  UNL     1      15.703   9.783   8.305  1.00  0.00     0.117 C
HETATM    2  C3  UNL     1      15.387  11.037   7.534  1.00  0.00     0.096 C
HETATM    3  N2  UNL     1      15.202  10.957   6.164  1.00  0.00    -0.375 N
ATOM      4  H2  UNL     1      15.241  11.817   5.618  1.00  0.00     0.160 HD
HETATM    5  C4  UNL     1      14.960   9.727   5.482  1.00  0.00     0.247 C
HETATM    6  C5  UNL     1      16.261   9.136   4.946  1.00  0.00     0.147 C
HETATM    7  N3  UNL     1      16.836   8.817   3.897  1.00  0.00    -0.279 N
ATOM      8  H3  UNL     1      17.773   8.424   3.984  1.00  0.00     0.179 HD
HETATM    9  C6  UNL     1      16.325   8.942   2.621  1.00  0.00     0.183 C
HETATM   10  N4  UNL     1      15.887   9.058   1.573  1.00  0.00    -0.172 NA
HETATM   11  N5  UNL     1      16.521   9.139   6.327  1.00  0.00    -0.256 N
HETATM   12  C7  UNL     1      16.937   9.215   7.660  1.00  0.00     0.087 C
HETATM   13  C8  UNL     1      18.110   8.866   8.087  1.00  0.00     0.177 C
HETATM   14  N11 UNL     1      15.161   8.592   6.387  1.00  0.00    -0.189 NA
HETATM   15  C11 UNL     1      14.708   8.763   7.710  1.00  0.00     0.160 C
ENDROOT
BRANCH   1  16
HETATM   16  N1  UNL     1      15.637   9.799   9.672  1.00  0.00    -0.407 N
HETATM   17  C1  UNL     1      14.518   9.184  10.302  1.00  0.00     0.141 C
ATOM     18  H1  UNL     1      16.371  10.240  10.227  1.00  0.00     0.154 HD
ENDBRANCH   1  16
BRANCH  13  19
HETATM   19  O1  UNL     1      19.126   8.350   7.295  1.00  0.00    -0.270 OA
BRANCH  19  20
HETATM   20  C9  UNL     1      19.562   7.035   7.480  1.00  0.00     0.385 C
HETATM   21  O2  UNL     1      19.837   6.399   6.427  1.00  0.00    -0.236 OA
HETATM   22  N6  UNL     1      19.686   6.461   8.771  1.00  0.00    -0.231 N
ATOM     23  H6  UNL     1      19.453   7.007   9.601  1.00  0.00     0.194 HD
BRANCH  22  24
HETATM   24  N7  UNL     1      20.125   5.151   8.896  1.00  0.00    -0.239 N
HETATM   25  N8  UNL     1      20.881   4.757   9.838  1.00  0.00    -0.275 N
ATOM     26  H8  UNL     1      21.183   5.431  10.541  1.00  0.00     0.186 HD
ATOM     27  H7  UNL     1      19.827   4.470   8.198  1.00  0.00     0.208 HD
BRANCH  25  28
HETATM   28  C10 UNL     1      21.325   3.387   9.945  1.00  0.00     0.357 C
BRANCH  28  29
HETATM   29  O3  UNL     1      22.640   3.294   9.474  1.00  0.00    -0.358 OA
ATOM     30  H3  UNL     1      22.883   2.377   9.409  1.00  0.00     0.214 HD
ENDBRANCH  28  29
BRANCH  28  31
HETATM   31  N9  UNL     1      21.228   2.827  11.255  1.00  0.00    -0.296 N
ATOM     32  H9  UNL     1      21.587   1.899  11.484  1.00  0.00     0.184 HD
BRANCH  31  33
HETATM   33  N10 UNL     1      20.611   3.637  12.191  1.00  0.00    -0.346 N
ATOM     34 2H10 UNL     1      20.232   4.551  11.941  1.00  0.00     0.176 HD
ATOM     35 1H10 UNL     1      20.567   3.249  13.133  1.00  0.00     0.176 HD
ENDBRANCH  31  33
ENDBRANCH  28  31
ENDBRANCH  25  28
ENDBRANCH  22  24
ENDBRANCH  19  20
ENDBRANCH  13  19
TORSDOF 8
ENDMDL