MODEL 5
REMARK VINA RESULT: -6.246286810      1.454      1.545
REMARK  8 active torsions:
REMARK  status: ('A' for Active; 'I' for Inactive)
REMARK    1  A    between atoms: N1_2  and  C3_4
REMARK    2  A    between atoms: C3_4  and  C4_6
REMARK    3  A    between atoms: C4_6  and  O1_7
REMARK    4  A    between atoms: C4_6  and  N2_9
REMARK    5  A    between atoms: N2_9  and  C5_11
REMARK    6  A    between atoms: N4_14  and  C6_15
REMARK    7  A    between atoms: N5_16  and  C7_18
REMARK    8  A    between atoms: N9_24  and  O2_26
ROOT
HETATM    1  C5  UNL     1      16.237   9.630   8.631  1.00  0.00     0.256 C
HETATM    2  N3  UNL     1      17.130   8.538   8.913  1.00  0.00    -0.125 NA
HETATM    3  S2  UNL     1      18.066   8.319   7.406  1.00  0.00     0.067 SA
HETATM    4  N4  UNL     1      16.985   9.242   6.368  1.00  0.00    -0.251 N
HETATM    5  C9  UNL     1      15.973   9.745   7.229  1.00  0.00     0.155 C
HETATM    6  N9  UNL     1      14.906  10.261   6.722  1.00  0.00    -0.253 N
ATOM      7  H9  UNL     1      14.205  10.611   7.375  1.00  0.00     0.195 HD
ENDROOT
BRANCH   1   8
HETATM    8  N2  UNL     1      15.108   9.491   9.496  1.00  0.00    -0.367 N
ATOM      9  H2  UNL     1      14.230   9.977   9.313  1.00  0.00     0.158 HD
BRANCH   8  10
HETATM   10  C4  UNL     1      15.273   8.636  10.629  1.00  0.00     0.277 C
BRANCH  10  11
HETATM   11  C3  UNL     1      14.643   9.251  11.856  1.00  0.00     0.123 C
HETATM   12  S1  UNL     1      13.942  10.719  11.792  1.00  0.00    -0.061 SA
BRANCH  11  13
HETATM   13  N1  UNL     1      14.652   8.569  13.091  1.00  0.00    -0.380 N
HETATM   14  C1  UNL     1      13.380   8.357  13.788  1.00  0.00     0.150 C
HETATM   15  C2  UNL     1      15.874   8.081  13.678  1.00  0.00     0.150 C
ENDBRANCH  11  13
ENDBRANCH  10  11
BRANCH  10  16
HETATM   16  O1  UNL     1      14.621   7.412  10.439  1.00  0.00    -0.370 OA
ATOM     17  H1  UNL     1      14.891   7.105   9.581  1.00  0.00     0.212 HD
ENDBRANCH  10  16
ENDBRANCH   8  10
ENDBRANCH   1   8
BRANCH   4  18
HETATM   18  C6  UNL     1      17.170   9.396   4.962  1.00  0.00     0.195 C
HETATM   19  N5  UNL     1      16.970   8.395   4.173  1.00  0.00    -0.365 N
ATOM     20  H5  UNL     1      16.681   7.495   4.555  1.00  0.00     0.162 HD
BRANCH  19  21
HETATM   21  C7  UNL     1      17.154   8.549   2.769  1.00  0.00     0.210 C
HETATM   22  C8  UNL     1      16.038   9.423   2.237  1.00  0.00     0.175 C
HETATM   23  N6  UNL     1      15.599   8.691   1.084  1.00  0.00    -0.127 NA
HETATM   24  N7  UNL     1      16.612   7.778   0.771  1.00  0.00    -0.038 NA
HETATM   25  N8  UNL     1      17.118   7.331   2.015  1.00  0.00    -0.103 NA
ENDBRANCH  19  21
ENDBRANCH   4  18
BRANCH   6  26
HETATM   26  O2  UNL     1      14.630  10.383   5.398  1.00  0.00    -0.288 OA
ATOM     27  H2  UNL     1      14.174   9.745   4.861  1.00  0.00     0.244 HD
ENDBRANCH   6  26
TORSDOF 8
ENDMDL