MODEL 2
REMARK VINA RESULT: -7.005696593      3.285      8.675
REMARK  7 active torsions:
REMARK  status: ('A' for Active; 'I' for Inactive)
REMARK    1  A    between atoms: O1_2  and  C2_3
REMARK    2  A    between atoms: C2_3  and  C3_5
REMARK    3  A    between atoms: N1_6  and  N2_8
REMARK    4  A    between atoms: N2_8  and  C4_10
REMARK    5  A    between atoms: C5_13  and  N4_14
REMARK    6  A    between atoms: N8_25  and  C8_26
REMARK    7  A    between atoms: C10_33  and  N11_34
ROOT
HETATM    1  C4  UNL     1      14.907   9.512   9.723  1.00  0.00     0.167 A
HETATM    2  N3  UNL     1      13.981   8.540   9.607  1.00  0.00    -0.173 N
ATOM      3  H3  UNL     1      13.388   8.316  10.406  1.00  0.00     0.186 HD
HETATM    4  C5  UNL     1      13.825   7.860   8.459  1.00  0.00     0.679 A
HETATM    5  N5  UNL     1      14.602   8.151   7.405  1.00  0.00    -0.172 N
ATOM      6  H5  UNL     1      14.475   7.629   6.537  1.00  0.00     0.186 HD
HETATM    7  C6  UNL     1      15.550   9.117   7.457  1.00  0.00     0.194 A
HETATM    8  C7  UNL     1      15.702   9.809   8.642  1.00  0.00     0.142 A
HETATM    9  N6  UNL     1      16.694  10.692   8.416  1.00  0.00    -0.278 N
ATOM     10  H6  UNL     1      17.061  11.365   9.090  1.00  0.00     0.189 HD
HETATM   11  N7  UNL     1      17.109  10.540   7.180  1.00  0.00    -0.219 N
ATOM     12  H7  UNL     1      17.856  11.086   6.752  1.00  0.00     0.209 HD
HETATM   13  N8  UNL     1      16.437   9.592   6.563  1.00  0.00    -0.051 N
ENDROOT
BRANCH  13  14
HETATM   14  C8  UNL     1      16.566   9.110   5.229  1.00  0.00     0.725 A
HETATM   15  N9  UNL     1      17.464   8.165   4.891  1.00  0.00    -0.138 N
HETATM   16  C9  UNL     1      17.566   7.727   3.623  1.00  0.00     0.352 A
ATOM     17  H9  UNL     1      18.076   7.776   5.608  1.00  0.00     0.189 HD
HETATM   18  O3  UNL     1      18.424   6.833   3.331  1.00  0.00    -0.246 OA
HETATM   19  N10 UNL     1      16.777   8.213   2.638  1.00  0.00    -0.141 N
HETATM   20  C10 UNL     1      15.871   9.161   2.964  1.00  0.00     0.694 A
ATOM     21  H10 UNL     1      16.862   7.873   1.680  1.00  0.00     0.189 HD
HETATM   22  N12 UNL     1      15.784   9.583   4.225  1.00  0.00    -0.020 N
ATOM     23  H12 UNL     1      15.093  10.299   4.448  1.00  0.00     0.203 HD
BRANCH  20  24
HETATM   24  N11 UNL     1      15.119   9.617   2.009  1.00  0.00    -0.234 N
ATOM     25 2H11 UNL     1      15.466  10.228   1.269  1.00  0.00     0.174 HD
ATOM     26 1H11 UNL     1      14.137   9.342   2.016  1.00  0.00     0.174 HD
ENDBRANCH  20  24
ENDBRANCH  13  14
BRANCH   4  27
HETATM   27  N4  UNL     1      12.923   6.946   8.416  1.00  0.00    -0.234 N
ATOM     28  H42 UNL     1      12.087   7.032   7.838  1.00  0.00     0.174 HD
ATOM     29  H41 UNL     1      13.060   6.110   8.984  1.00  0.00     0.174 HD
ENDBRANCH   4  27
BRANCH   1  30
HETATM   30  N2  UNL     1      15.077  10.231  10.928  1.00  0.00    -0.283 N
ATOM     31  H2  UNL     1      15.351  11.212  10.875  1.00  0.00     0.188 HD
BRANCH  30  32
HETATM   32  N1  UNL     1      14.888   9.658  12.187  1.00  0.00    -0.304 N
HETATM   33  C3  UNL     1      13.833   9.975  12.850  1.00  0.00     0.189 C
ATOM     34  H1  UNL     1      15.570   9.005  12.571  1.00  0.00     0.186 HD
BRANCH  33  35
HETATM   35  C2  UNL     1      12.830  10.899  12.352  1.00  0.00     0.299 C
HETATM   36  O2  UNL     1      13.179  12.036  11.937  1.00  0.00    -0.259 OA
BRANCH  35  37
HETATM   37  O1  UNL     1      11.481  10.590  12.304  1.00  0.00    -0.322 OA
HETATM   38  C1  UNL     1      11.008   9.502  13.068  1.00  0.00     0.213 C
ENDBRANCH  35  37
ENDBRANCH  33  35
ENDBRANCH  30  32
ENDBRANCH   1  30
TORSDOF 7
ENDMDL