MODEL 2
REMARK VINA RESULT: -7.349511502      1.008      1.853
REMARK  7 active torsions:
REMARK  status: ('A' for Active; 'I' for Inactive)
REMARK    1  A    between atoms: C2_5  and  N3_6
REMARK    2  A    between atoms: N4_9  and  C3_10
REMARK    3  A    between atoms: N6_15  and  N7_16
REMARK    4  A    between atoms: N7_16  and  C5_18
REMARK    5  A    between atoms: C7_20  and  C8_21
REMARK    6  A    between atoms: C10_26  and  N8_27
REMARK    7  A    between atoms: C11_31  and  N9_32
ROOT
HETATM    1  C3  UNL     1      15.025   9.220   9.268  1.00  0.00     0.275 A
HETATM    2  N5  UNL     1      14.413   9.615   8.132  1.00  0.00    -0.271 N
ATOM      3  H5  UNL     1      13.401   9.738   8.135  1.00  0.00     0.174 HD
HETATM    4  C4  UNL     1      15.089   9.851   7.005  1.00  0.00     0.352 A
HETATM    5  O1  UNL     1      14.507  10.222   5.947  1.00  0.00    -0.244 OA
HETATM    6  N6  UNL     1      16.459   9.692   6.976  1.00  0.00    -0.165 N
HETATM    7  C10 UNL     1      17.053   9.301   8.109  1.00  0.00     0.251 A
HETATM    8  O5  UNL     1      16.327   9.090   9.172  1.00  0.00    -0.243 OA
ENDROOT
BRANCH   1   9
HETATM    9  N4  UNL     1      14.313   8.972  10.463  1.00  0.00     0.063 N
HETATM   10  C2  UNL     1      14.306   9.736  11.551  1.00  0.00     0.715 A
HETATM   11  N2  UNL     1      13.517   9.192  12.488  1.00  0.00    -0.115 N
HETATM   12  N1  UNL     1      13.021   8.074  11.989  1.00  0.00    -0.113 N
ATOM     13  H2  UNL     1      13.334   9.573  13.417  1.00  0.00     0.206 HD
HETATM   14  C1  UNL     1      12.115   7.160  12.661  1.00  0.00     0.198 C
HETATM   15  C11 UNL     1      13.517   7.931  10.718  1.00  0.00     0.717 A
BRANCH  10  16
HETATM   16  N3  UNL     1      14.962  10.850  11.695  1.00  0.00    -0.232 N
ATOM     17  H32 UNL     1      15.393  11.384  10.941  1.00  0.00     0.174 HD
ATOM     18  H31 UNL     1      15.113  11.321  12.587  1.00  0.00     0.174 HD
ENDBRANCH  10  16
BRANCH  15  19
HETATM   19  N9  UNL     1      13.253   6.972   9.934  1.00  0.00    -0.232 N
ATOM     20  H92 UNL     1      12.327   6.678   9.623  1.00  0.00     0.174 HD
ATOM     21  H91 UNL     1      13.943   6.356   9.504  1.00  0.00     0.174 HD
ENDBRANCH  15  19
ENDBRANCH   1   9
BRANCH   7  22
HETATM   22  N8  UNL     1      18.359   9.131   8.147  1.00  0.00    -0.363 N
ATOM     23  H82 UNL     1      18.970   9.884   8.463  1.00  0.00     0.159 HD
ATOM     24  H81 UNL     1      18.769   8.242   7.861  1.00  0.00     0.159 HD
ENDBRANCH   7  22
BRANCH   6  25
HETATM   25  N7  UNL     1      17.134   9.914   5.782  1.00  0.00    -0.266 N
ATOM     26  H7  UNL     1      17.473  10.866   5.642  1.00  0.00     0.190 HD
BRANCH  25  27
HETATM   27  C5  UNL     1      17.418   9.015   4.738  1.00  0.00     0.163 A
HETATM   28  C6  UNL     1      16.770   9.031   3.490  1.00  0.00     0.078 A
HETATM   29  C7  UNL     1      17.286   8.013   2.716  1.00  0.00     0.067 A
HETATM   30  C9  UNL     1      18.234   7.408   3.508  1.00  0.00     0.162 A
HETATM   31  O4  UNL     1      18.264   8.028   4.660  1.00  0.00    -0.303 OA
BRANCH  29  32
HETATM   32  C8  UNL     1      16.904   7.632   1.355  1.00  0.00     0.211 C
HETATM   33  O2  UNL     1      17.040   6.450   0.951  1.00  0.00    -0.644 OA
HETATM   34  O3  UNL     1      16.383   8.601   0.493  1.00  0.00    -0.644 OA
ENDBRANCH  29  32
ENDBRANCH  25  27
ENDBRANCH   6  25
TORSDOF 7
ENDMDL