MODEL 3
REMARK VINA RESULT: -6.925513878      3.414      5.331
REMARK  7 active torsions:
REMARK  status: ('A' for Active; 'I' for Inactive)
REMARK    1  A    between atoms: C2_4  and  N2_5
REMARK    2  A    between atoms: C2_4  and  C7_24
REMARK    3  A    between atoms: N2_5  and  N3_7
REMARK    4  A    between atoms: N4_9  and  C3_11
REMARK    5  A    between atoms: N7_18  and  N8_19
REMARK    6  A    between atoms: C8_27  and  N10_28
REMARK    7  A    between atoms: C11_33  and  O3_34
ROOT
HETATM    1  N2  UNL     1      15.725  10.167  10.249  1.00  0.00    -0.269 N
ATOM      2  H2  UNL     1      16.169  11.061  10.462  1.00  0.00     0.190 HD
ENDROOT
BRANCH   1   3
HETATM    3  C2  UNL     1      15.003   9.501  11.274  1.00  0.00     0.148 C
HETATM    4  N1  UNL     1      15.404   8.333  11.648  1.00  0.00    -0.378 N
HETATM    5  C1  UNL     1      14.796   7.529  12.661  1.00  0.00     0.148 C
ATOM      6  H1  UNL     1      16.225   7.951  11.180  1.00  0.00     0.160 HD
BRANCH   3   7
HETATM    7  C7  UNL     1      13.849  10.124  11.875  1.00  0.00     0.145 A
HETATM    8  N9  UNL     1      12.598   9.626  12.024  1.00  0.00    -0.184 N
HETATM    9  C8  UNL     1      11.823  10.534  12.639  1.00  0.00     0.682 A
ATOM     10  H9  UNL     1      12.291   8.703  11.716  1.00  0.00     0.184 HD
HETATM   11  N11 UNL     1      12.587  11.611  12.880  1.00  0.00    -0.164 N
HETATM   12  C10 UNL     1      12.120  12.808  13.530  1.00  0.00     0.177 C
HETATM   13  C11 UNL     1      13.825  11.384  12.424  1.00  0.00     0.189 A
BRANCH   9  14
HETATM   14  N10 UNL     1      10.452  10.363  12.962  1.00  0.00    -0.230 N
HETATM   15  C9  UNL     1       9.795   9.092  12.744  1.00  0.00     0.165 C
ATOM     16  H10 UNL     1       9.924  11.144  13.351  1.00  0.00     0.177 HD
ENDBRANCH   9  14
BRANCH  13  17
HETATM   17  O3  UNL     1      14.879  12.294  12.510  1.00  0.00    -0.344 OA
ATOM     18  H3  UNL     1      15.025  13.063  11.972  1.00  0.00     0.219 HD
ENDBRANCH  13  17
ENDBRANCH   3   7
ENDBRANCH   1   3
BRANCH   1  19
HETATM   19  N3  UNL     1      15.847   9.652   8.980  1.00  0.00    -0.240 N
HETATM   20  N4  UNL     1      16.637  10.101   8.094  1.00  0.00    -0.278 N
ATOM     21  H4  UNL     1      17.224  10.899   8.337  1.00  0.00     0.189 HD
ATOM     22  H3  UNL     1      15.262   8.854   8.734  1.00  0.00     0.208 HD
BRANCH  20  23
HETATM   23  C3  UNL     1      16.754   9.567   6.802  1.00  0.00     0.161 A
HETATM   24  C4  UNL     1      15.765   9.845   5.874  1.00  0.00     0.154 A
HETATM   25  N5  UNL     1      14.677  10.656   6.261  1.00  0.00    -0.080 NA
HETATM   26  N6  UNL     1      15.848   9.342   4.607  1.00  0.00    -0.293 N
HETATM   27  C5  UNL     1      16.915   8.576   4.306  1.00  0.00     0.349 A
ATOM     28  H6  UNL     1      15.127   9.538   3.913  1.00  0.00     0.172 HD
HETATM   29  O1  UNL     1      17.004   8.101   3.132  1.00  0.00    -0.244 OA
HETATM   30  N7  UNL     1      17.889   8.290   5.189  1.00  0.00    -0.173 N
HETATM   31  C6  UNL     1      17.812   8.787   6.447  1.00  0.00     0.301 A
HETATM   32  O2  UNL     1      18.729   8.515   7.267  1.00  0.00    -0.263 OA
BRANCH  30  33
HETATM   33  N8  UNL     1      18.959   7.487   4.789  1.00  0.00    -0.332 N
ATOM     34  H82 UNL     1      19.241   7.425   3.810  1.00  0.00     0.177 HD
ATOM     35  H81 UNL     1      19.470   6.951   5.490  1.00  0.00     0.177 HD
ENDBRANCH  30  33
ENDBRANCH  20  23
ENDBRANCH   1  19
TORSDOF 7
ENDMDL