MODEL 4
REMARK VINA RESULT: -6.246232234      3.893      8.966
REMARK  11 active torsions:
REMARK  status: ('A' for Active; 'I' for Inactive)
REMARK    1  A    between atoms: C2_2  and  N1_3
REMARK    2  A    between atoms: C2_2  and  C9_30
REMARK    3  A    between atoms: N1_3  and  N2_4
REMARK    4  A    between atoms: N2_4  and  C3_6
REMARK    5  A    between atoms: C5_11  and  N4_12
REMARK    6  A    between atoms: N4_12  and  C6_14
REMARK    7  A    between atoms: C6_14  and  O1_15
REMARK    8  A    between atoms: C6_14  and  O2_17
REMARK       I    between atoms: N5_19  and  C7_20
REMARK       I    between atoms: C7_20  and  N6_22
REMARK    9  A    between atoms: N6_22  and  N7_24
REMARK   10  A    between atoms: C9_30  and  O5_32
REMARK   11  A    between atoms: O5_32  and  N9_33
ROOT
HETATM    1  C3  UNL     1      15.685   9.392   9.744  1.00  0.00     0.710 A
HETATM    2  N3  UNL     1      15.093   8.158   9.852  1.00  0.00    -0.179 N
ATOM      3  H3  UNL     1      15.354   7.300   9.366  1.00  0.00     0.185 HD
HETATM    4  C4  UNL     1      14.083   8.328  10.748  1.00  0.00     0.139 A
HETATM    5  S1  UNL     1      12.804   7.547  11.556  1.00  0.00    -0.031 SA
HETATM    6  C5  UNL     1      12.226   8.906  12.455  1.00  0.00     0.162 A
HETATM    7  N5  UNL     1      13.046   9.881  12.090  1.00  0.00    -0.224 N
HETATM    8  C7  UNL     1      12.878  11.230  12.638  1.00  0.00     0.348 C
HETATM    9  O3  UNL     1      13.696  12.157  12.288  1.00  0.00    -0.245 OA
HETATM   10  N6  UNL     1      11.895  11.614  13.522  1.00  0.00    -0.257 N
ATOM     11  H6  UNL     1      11.195  10.953  13.860  1.00  0.00     0.191 HD
HETATM   12  C8  UNL     1      14.006   9.596  11.210  1.00  0.00     0.168 A
HETATM   13  N8  UNL     1      15.034  10.245  10.555  1.00  0.00    -0.171 N
ATOM     14  H8  UNL     1      15.267  11.232  10.671  1.00  0.00     0.186 HD
ENDROOT
BRANCH   1  15
HETATM   15  N2  UNL     1      16.647   9.548   8.958  1.00  0.00    -0.065 N
ATOM     16  H2  UNL     1      16.949  10.518   9.038  1.00  0.00     0.221 HD
BRANCH  15  17
HETATM   17  N1  UNL     1      17.378   9.002   8.126  1.00  0.00    -0.310 NA
BRANCH  17  18
HETATM   18  C2  UNL     1      18.072   8.487   7.390  1.00  0.00     0.182 C
HETATM   19  C1  UNL     1      18.941   7.841   6.467  1.00  0.00     0.094 C
BRANCH  18  20
HETATM   20  C9  UNL     1      16.604   7.910   6.535  1.00  0.00     0.342 C
HETATM   21  O4  UNL     1      16.198   6.960   7.121  1.00  0.00    -0.255 OA
BRANCH  20  22
HETATM   22  O5  UNL     1      16.256   8.592   5.479  1.00  0.00    -0.200 OA
BRANCH  22  23
HETATM   23  N9  UNL     1      15.290   9.632   5.687  1.00  0.00    -0.302 N
ATOM     24  H92 UNL     1      14.751   9.683   6.551  1.00  0.00     0.184 HD
ATOM     25  H91 UNL     1      15.182  10.305   4.929  1.00  0.00     0.184 HD
ENDBRANCH  22  23
ENDBRANCH  20  22
ENDBRANCH  18  20
ENDBRANCH  17  18
ENDBRANCH  15  17
ENDBRANCH   1  15
BRANCH   6  26
HETATM   26  N4  UNL     1      11.195   8.884  13.277  1.00  0.00    -0.322 N
ATOM     27  H4  UNL     1      11.322   8.844  14.289  1.00  0.00     0.166 HD
BRANCH  26  28
HETATM   28  C6  UNL     1       9.873   8.918  12.680  1.00  0.00     0.367 C
BRANCH  28  29
HETATM   29  O1  UNL     1       9.500  10.183  12.281  1.00  0.00    -0.355 OA
ATOM     30  H1  UNL     1       8.662  10.451  12.640  1.00  0.00     0.214 HD
ENDBRANCH  28  29
BRANCH  28  31
HETATM   31  O2  UNL     1       8.959   8.367  13.572  1.00  0.00    -0.355 OA
ATOM     32  H2  UNL     1       9.308   7.551  13.908  1.00  0.00     0.214 HD
ENDBRANCH  28  31
ENDBRANCH  26  28
ENDBRANCH   6  26
BRANCH  10  33
HETATM   33  N7  UNL     1      11.898  12.993  13.948  1.00  0.00    -0.341 N
ATOM     34  H72 UNL     1      11.448  13.711  13.382  1.00  0.00     0.177 HD
ATOM     35  H71 UNL     1      12.367  13.204  14.829  1.00  0.00     0.177 HD
ENDBRANCH  10  33
TORSDOF 11
ENDMDL