MODEL 4
REMARK VINA RESULT: -7.429389918      4.024      6.759
REMARK  7 active torsions:
REMARK  status: ('A' for Active; 'I' for Inactive)
REMARK    1  A    between atoms: C3_7  and  N3_8
REMARK    2  A    between atoms: N3_8  and  N4_10
REMARK    3  A    between atoms: C4_12  and  C5_13
REMARK    4  A    between atoms: C6_14  and  O1_15
REMARK    5  A    between atoms: N6_23  and  C9_24
REMARK    6  A    between atoms: N8_27  and  N9_29
REMARK    7  A    between atoms: C11_36  and  O4_37
ROOT
HETATM    1  C9  UNL     1      18.309   7.298   5.063  1.00  0.00     0.215 C
HETATM    2  C10 UNL     1      18.042   6.004   5.569  1.00  0.00     0.139 C
HETATM    3  N7  UNL     1      17.811   4.948   5.971  1.00  0.00    -0.188 NA
HETATM    4  N8  UNL     1      19.280   7.983   5.508  1.00  0.00    -0.262 N
ATOM      5  H8  UNL     1      19.430   8.910   5.110  1.00  0.00     0.191 HD
ENDROOT
BRANCH   1   6
HETATM    6  N6  UNL     1      17.501   7.889   4.034  1.00  0.00    -0.235 N
HETATM    7  C5  UNL     1      17.591   7.377   2.762  1.00  0.00     0.102 A
HETATM    8  C6  UNL     1      16.833   7.918   1.758  1.00  0.00     0.163 A
HETATM    9  C7  UNL     1      15.990   8.997   2.116  1.00  0.00     0.285 A
HETATM   10  O2  UNL     1      15.286   9.504   1.190  1.00  0.00    -0.265 OA
HETATM   11  N5  UNL     1      15.936   9.460   3.362  1.00  0.00    -0.273 N
HETATM   12  C8  UNL     1      16.685   8.915   4.324  1.00  0.00     0.336 A
ATOM     13  H5  UNL     1      15.316  10.239   3.585  1.00  0.00     0.173 HD
HETATM   14  O3  UNL     1      16.653   9.337   5.518  1.00  0.00    -0.246 OA
BRANCH   7  15
HETATM   15  C4  UNL     1      18.489   6.283   2.554  1.00  0.00     0.141 C
HETATM   16  N4  UNL     1      18.282   5.185   1.929  1.00  0.00    -0.295 N
ATOM     17  H4  UNL     1      17.355   5.062   1.521  1.00  0.00     0.186 HD
BRANCH  16  18
HETATM   18  N3  UNL     1      19.170   4.158   1.750  1.00  0.00    -0.131 N
ATOM     19  H3  UNL     1      19.976   4.134   2.373  1.00  0.00     0.205 HD
BRANCH  18  20
HETATM   20  C3  UNL     1      19.089   3.231   0.884  1.00  0.00     0.713 A
HETATM   21  N2  UNL     1      19.823   2.106   0.916  1.00  0.00    -0.130 N
HETATM   22  N1  UNL     1      19.689   1.174  -0.025  1.00  0.00    -0.287 N
ATOM     23  H2  UNL     1      20.494   1.965   1.672  1.00  0.00     0.205 HD
HETATM   24  C2  UNL     1      18.816   1.323  -1.036  1.00  0.00     0.073 A
ATOM     25  H1  UNL     1      20.258   0.329   0.022  1.00  0.00     0.187 HD
HETATM   26  C1  UNL     1      18.632   0.314  -2.103  1.00  0.00     0.074 C
HETATM   27  C11 UNL     1      18.059   2.462  -1.083  1.00  0.00     0.179 A
HETATM   28  N11 UNL     1      18.217   3.375  -0.129  1.00  0.00    -0.166 N
ATOM     29  H11 UNL     1      17.651   4.224  -0.168  1.00  0.00     0.186 HD
BRANCH  27  30
HETATM   30  O4  UNL     1      17.143   2.668  -2.105  1.00  0.00    -0.344 OA
ATOM     31  H4  UNL     1      16.527   3.390  -2.070  1.00  0.00     0.219 HD
ENDBRANCH  27  30
ENDBRANCH  18  20
ENDBRANCH  16  18
ENDBRANCH   7  15
BRANCH   8  32
HETATM   32  O1  UNL     1      16.844   7.493   0.473  1.00  0.00    -0.354 OA
ATOM     33  H1  UNL     1      16.592   8.024  -0.273  1.00  0.00     0.218 HD
ENDBRANCH   8  32
ENDBRANCH   1   6
BRANCH   4  34
HETATM   34  N9  UNL     1      20.158   7.555   6.504  1.00  0.00    -0.247 N
HETATM   35  N10 UNL     1      19.981   7.739   7.727  1.00  0.00    -0.331 N
ATOM     36 2H10 UNL     1      19.133   8.237   7.997  1.00  0.00     0.178 HD
ATOM     37 1H10 UNL     1      20.623   7.427   8.455  1.00  0.00     0.178 HD
ATOM     38  H9  UNL     1      21.001   7.059   6.215  1.00  0.00     0.207 HD
ENDBRANCH   4  34
TORSDOF 7
ENDMDL