MODEL 2
REMARK VINA RESULT: -5.308565825      3.136      3.926
REMARK  6 active torsions:
REMARK  status: ('A' for Active; 'I' for Inactive)
REMARK    1  A    between atoms: C2_2  and  N1_3
REMARK    2  A    between atoms: N1_3  and  O1_4
REMARK    3  A    between atoms: N1_3  and  C4_6
REMARK       I    between atoms: N2_7  and  C5_8
REMARK    4  A    between atoms: C8_17  and  N7_18
REMARK    5  A    between atoms: C9_22  and  O3_23
REMARK    6  A    between atoms: C9_22  and  S1_25
ROOT
HETATM    1  C4  UNL     1      15.857   8.134   7.958  1.00  0.00     0.285 C
HETATM    2  N2  UNL     1      16.566   6.991   7.316  1.00  0.00    -0.218 N
HETATM    3  C5  UNL     1      17.770   7.049   6.592  1.00  0.00     0.234 C
HETATM    4  C6  UNL     1      18.345   5.839   5.999  1.00  0.00     0.119 C
HETATM    5  O2  UNL     1      18.354   8.144   6.457  1.00  0.00    -0.272 OA
HETATM    6  N3  UNL     1      15.820   5.836   7.559  1.00  0.00    -0.021 NA
HETATM    7  N4  UNL     1      14.506   6.326   7.621  1.00  0.00    -0.080 NA
HETATM    8  C7  UNL     1      14.688   7.477   8.521  1.00  0.00     0.230 C
HETATM    9  N5  UNL     1      13.464   8.221   8.631  1.00  0.00    -0.099 NA
HETATM   10  N6  UNL     1      12.376   7.401   8.834  1.00  0.00    -0.303 N
ATOM     11  H6  UNL     1      11.689   7.227   8.101  1.00  0.00     0.178 HD
HETATM   12  C8  UNL     1      12.265   6.819  10.108  1.00  0.00     0.349 C
HETATM   13  C9  UNL     1      13.345   5.852  10.475  1.00  0.00     0.206 C
HETATM   14  S2  UNL     1      14.941   6.704  10.166  1.00  0.00    -0.065 SA
ENDROOT
BRANCH   1  15
HETATM   15  N1  UNL     1      15.617   9.151   7.035  1.00  0.00    -0.265 N
BRANCH  15  16
HETATM   16  C2  UNL     1      15.568  10.501   7.336  1.00  0.00     0.148 C
HETATM   17  C1  UNL     1      16.970  10.983   7.779  1.00  0.00     0.028 C
ENDBRANCH  15  16
BRANCH  15  18
HETATM   18  O1  UNL     1      15.113   8.818   5.859  1.00  0.00    -0.286 OA
HETATM   19  C3  UNL     1      15.652   9.520   4.784  1.00  0.00     0.237 C
ENDBRANCH  15  18
ENDBRANCH   1  15
BRANCH  13  20
HETATM   20  O3  UNL     1      13.221   5.525  11.820  1.00  0.00    -0.367 OA
ATOM     21  H3  UNL     1      12.299   5.451  12.035  1.00  0.00     0.212 HD
ENDBRANCH  13  20
BRANCH  13  22
HETATM   22  S1  UNL     1      13.262   4.453   9.366  1.00  0.00    -0.121 SA
HETATM   23  C10 UNL     1      11.732   3.536   9.411  1.00  0.00     0.094 C
ENDBRANCH  13  22
BRANCH  12  24
HETATM   24  N7  UNL     1      12.120   7.865  11.124  1.00  0.00    -0.053 N
ATOM     25  H73 UNL     1      11.281   8.426  10.979  1.00  0.00     0.277 HD
ATOM     26  H72 UNL     1      11.883   7.479  12.039  1.00  0.00     0.277 HD
ATOM     27  H71 UNL     1      12.962   8.438  11.157  1.00  0.00     0.277 HD
ENDBRANCH  12  24
TORSDOF 6
ENDMDL