MODEL 5
REMARK VINA RESULT: -6.252834219      2.682      6.125
REMARK  5 active torsions:
REMARK  status: ('A' for Active; 'I' for Inactive)
REMARK    1  A    between atoms: C2_2  and  N1_3
REMARK    2  A    between atoms: C3_8  and  C4_9
REMARK    3  A    between atoms: N4_10  and  N5_12
REMARK    4  A    between atoms: C6_17  and  N7_18
REMARK    5  A    between atoms: N9_24  and  C8_26
ROOT
HETATM    1  N5  UNL     1      16.869   8.195   4.092  1.00  0.00    -0.058 N
HETATM    2  C5  UNL     1      17.317   7.690   2.911  1.00  0.00     0.229 A
HETATM    3  S1  UNL     1      18.363   6.440   2.838  1.00  0.00    -0.038 SA
HETATM    4  N6  UNL     1      16.873   8.268   1.784  1.00  0.00    -0.164 N
ATOM      5  H6  UNL     1      17.183   7.922   0.876  1.00  0.00     0.186 HD
HETATM    6  C6  UNL     1      16.019   9.306   1.854  1.00  0.00     0.692 A
HETATM    7  N8  UNL     1      15.603   9.774   3.022  1.00  0.00    -0.020 N
ATOM      8  H8  UNL     1      14.955  10.562   3.043  1.00  0.00     0.203 HD
HETATM    9  C7  UNL     1      16.032   9.212   4.214  1.00  0.00     0.723 A
HETATM   10  N9  UNL     1      15.614   9.714   5.289  1.00  0.00    -0.156 N
ATOM     11  H9  UNL     1      14.969  10.497   5.179  1.00  0.00     0.187 HD
ENDROOT
BRANCH   1  12
HETATM   12  N4  UNL     1      17.355   7.540   5.221  1.00  0.00    -0.286 N
HETATM   13  C4  UNL     1      18.603   7.718   5.586  1.00  0.00     0.141 C
ATOM     14  H4  UNL     1      16.745   6.927   5.761  1.00  0.00     0.187 HD
BRANCH  13  15
HETATM   15  C3  UNL     1      19.109   7.034   6.769  1.00  0.00     0.090 A
HETATM   16  N3  UNL     1      19.489   7.609   7.920  1.00  0.00    -0.283 N
HETATM   17  N2  UNL     1      19.896   6.689   8.780  1.00  0.00    -0.240 N
ATOM     18  H3  UNL     1      19.468   8.612   8.106  1.00  0.00     0.188 HD
HETATM   19  N1  UNL     1      19.788   5.507   8.203  1.00  0.00    -0.281 N
ATOM     20  H2  UNL     1      20.235   6.864   9.726  1.00  0.00     0.208 HD
HETATM   21  C9  UNL     1      19.304   5.684   6.960  1.00  0.00     0.055 A
HETATM   22  C10 UNL     1      19.018   4.648   5.946  1.00  0.00     0.072 C
BRANCH  19  23
HETATM   23  C2  UNL     1      20.128   4.253   8.809  1.00  0.00     0.146 C
HETATM   24  C1  UNL     1      20.525   4.356  10.246  1.00  0.00     0.028 C
ENDBRANCH  19  23
ENDBRANCH  13  15
ENDBRANCH   1  12
BRANCH  10  25
HETATM   25  C8  UNL     1      15.895   9.367   6.588  1.00  0.00     0.224 C
HETATM   26  N10 UNL     1      16.728   9.996   7.389  1.00  0.00    -0.255 N
HETATM   27  N11 UNL     1      16.764   9.367   8.633  1.00  0.00    -0.006 NA
ATOM     28  H10 UNL     1      17.268  10.824   7.136  1.00  0.00     0.187 HD
HETATM   29  N12 UNL     1      16.218   8.084   8.506  1.00  0.00    -0.006 NA
HETATM   30  N13 UNL     1      15.403   8.261   7.387  1.00  0.00    -0.255 N
ATOM     31  H13 UNL     1      14.583   7.696   7.164  1.00  0.00     0.187 HD
ENDBRANCH  10  25
BRANCH   6  32
HETATM   32  N7  UNL     1      15.611   9.841   0.735  1.00  0.00    -0.234 N
ATOM     33  H72 UNL     1      15.202   9.265   0.000  1.00  0.00     0.174 HD
ATOM     34  H71 UNL     1      15.712  10.850   0.621  1.00  0.00     0.174 HD
ENDBRANCH   6  32
TORSDOF 5
ENDMDL