MODEL 1
REMARK VINA RESULT: -5.082581282      0.000      0.000
REMARK  1 active torsions:
REMARK  status: ('A' for Active; 'I' for Inactive)
REMARK    1  A    between atoms: N3_10  and  N4_11
ROOT
HETATM    1  N1  UNL     1       5.592   6.284  15.881  1.00  0.00    -0.080 NA
HETATM    2  C1  UNL     1       6.274   7.427  15.444  1.00  0.00     0.147 A
HETATM    3  C2  UNL     1       5.776   8.157  14.380  1.00  0.00     0.121 A
HETATM    4  C3  UNL     1       6.471   9.276  13.975  1.00  0.00     0.252 A
HETATM    5  O1  UNL     1       6.065   9.973  13.016  1.00  0.00    -0.268 OA
HETATM    6  N2  UNL     1       7.604   9.617  14.628  1.00  0.00    -0.274 N
ATOM      7  H2  UNL     1       8.125  10.443  14.335  1.00  0.00     0.173 HD
HETATM    8  C4  UNL     1       8.054   8.879  15.660  1.00  0.00     0.349 A
HETATM    9  O2  UNL     1       9.105   9.205  16.258  1.00  0.00    -0.244 OA
HETATM   10  N3  UNL     1       7.407   7.770  16.096  1.00  0.00    -0.198 N
ENDROOT
BRANCH  10  11
HETATM   11  N4  UNL     1       7.911   7.037  17.169  1.00  0.00    -0.333 N
ATOM     12  H42 UNL     1       8.860   6.664  17.139  1.00  0.00     0.177 HD
ATOM     13  H41 UNL     1       7.367   6.846  18.010  1.00  0.00     0.177 HD
ENDBRANCH  10  11
TORSDOF 1
ENDMDL