MODEL 2
REMARK VINA RESULT: -5.683629919      2.259      2.740
REMARK  1 active torsions:
REMARK  status: ('A' for Active; 'I' for Inactive)
REMARK       I    between atoms: C1_4  and  N3_6
REMARK       I    between atoms: N3_6  and  C2_7
REMARK    1  A    between atoms: C2_7  and  C3_9
ROOT
HETATM    1  N1  UNL     1       6.602  11.607  11.870  1.00  0.00    -0.362 N
ATOM      2  H11 UNL     1       7.522  11.453  12.282  1.00  0.00     0.159 HD
ATOM      3  H12 UNL     1       6.372  12.257  11.119  1.00  0.00     0.159 HD
HETATM    4  C1  UNL     1       5.567  10.904  12.330  1.00  0.00     0.264 C
HETATM    5  N2  UNL     1       4.302  11.116  11.765  1.00  0.00    -0.049 NA
HETATM    6  N3  UNL     1       5.876  10.032  13.340  1.00  0.00    -0.331 NA
HETATM    7  C2  UNL     1       6.171   9.180  14.323  1.00  0.00     0.365 C
HETATM    8  O1  UNL     1       5.377   8.379  14.944  1.00  0.00    -0.247 OA
ENDROOT
BRANCH   7   9
HETATM    9  C3  UNL     1       7.566   9.065  14.840  1.00  0.00     0.215 A
HETATM   10  N4  UNL     1       8.037   9.385  16.039  1.00  0.00    -0.265 N
HETATM   11  N5  UNL     1       9.335   9.131  16.074  1.00  0.00    -0.007 NA
ATOM     12  H4  UNL     1       7.487   9.765  16.810  1.00  0.00     0.185 HD
HETATM   13  N6  UNL     1       9.727   8.646  14.906  1.00  0.00    -0.007 NA
HETATM   14  N7  UNL     1       8.616   8.616  14.163  1.00  0.00    -0.265 N
ATOM     15  H7  UNL     1       8.580   8.288  13.198  1.00  0.00     0.185 HD
ENDBRANCH   7   9
TORSDOF 1
ENDMDL