MODEL 3
REMARK VINA RESULT: -5.603073562      1.749      2.220
REMARK  2 active torsions:
REMARK  status: ('A' for Active; 'I' for Inactive)
REMARK    1  A    between atoms: N1_1  and  N2_4
REMARK    2  A    between atoms: N2_4  and  C1_6
ROOT
HETATM    1  C1  UNL     1       6.873   9.313  15.071  1.00  0.00     0.704 A
HETATM    2  N3  UNL     1       8.032   9.177  14.410  1.00  0.00    -0.139 N
ATOM      3  H3  UNL     1       8.139   9.611  13.493  1.00  0.00     0.189 HD
HETATM    4  C2  UNL     1       9.062   8.477  14.933  1.00  0.00     0.342 A
HETATM    5  O1  UNL     1      10.151   8.353  14.304  1.00  0.00    -0.246 OA
HETATM    6  N4  UNL     1       8.971   7.886  16.138  1.00  0.00    -0.260 N
ATOM      7  H4  UNL     1       9.748   7.358  16.535  1.00  0.00     0.175 HD
HETATM    8  C3  UNL     1       7.807   8.028  16.794  1.00  0.00     0.342 A
HETATM    9  O2  UNL     1       7.693   7.487  17.925  1.00  0.00    -0.246 OA
HETATM   10  N5  UNL     1       6.768   8.729  16.275  1.00  0.00    -0.139 N
ATOM     11  H5  UNL     1       5.900   8.813  16.804  1.00  0.00     0.189 HD
ENDROOT
BRANCH   1  12
HETATM   12  N2  UNL     1       5.781  10.053  14.522  1.00  0.00    -0.138 N
ATOM     13  H2  UNL     1       4.897  10.119  15.027  1.00  0.00     0.205 HD
BRANCH  12  14
HETATM   14  N1  UNL     1       5.940  10.684  13.284  1.00  0.00    -0.331 N
ATOM     15  H12 UNL     1       6.849  11.070  13.030  1.00  0.00     0.177 HD
ATOM     16  H11 UNL     1       5.141  10.746  12.653  1.00  0.00     0.177 HD
ENDBRANCH  12  14
ENDBRANCH   1  12
TORSDOF 2
ENDMDL