MODEL 3
REMARK VINA RESULT: -5.199850316      1.870      2.722
REMARK  2 active torsions:
REMARK  status: ('A' for Active; 'I' for Inactive)
REMARK       I    between atoms: C2_2  and  N1_4
REMARK    1  A    between atoms: C4_11  and  N4_12
REMARK    2  A    between atoms: N4_12  and  N5_14
ROOT
HETATM    1  C1  UNL     1       4.934   8.569  14.335  1.00  0.00     0.119 C
HETATM    2  C2  UNL     1       6.156   9.004  15.057  1.00  0.00     0.244 C
HETATM    3  O1  UNL     1       6.605  10.146  14.856  1.00  0.00    -0.272 OA
HETATM    4  N1  UNL     1       6.776   8.095  15.959  1.00  0.00    -0.060 N
HETATM    5  C3  UNL     1       6.394   6.854  16.259  1.00  0.00     0.363 A
HETATM    6  O2  UNL     1       5.385   6.263  15.772  1.00  0.00    -0.244 OA
HETATM    7  N2  UNL     1       7.233   6.305  17.156  1.00  0.00    -0.236 N
ATOM      8  H2  UNL     1       7.171   5.368  17.554  1.00  0.00     0.192 HD
HETATM    9  N3  UNL     1       8.155   7.216  17.422  1.00  0.00    -0.126 N
ATOM     10  H3  UNL     1       8.936   7.102  18.068  1.00  0.00     0.206 HD
HETATM   11  C4  UNL     1       7.885   8.334  16.688  1.00  0.00     0.724 A
ENDROOT
BRANCH  11  12
HETATM   12  N4  UNL     1       8.555   9.434  16.673  1.00  0.00    -0.137 N
ATOM     13  H4  UNL     1       8.365  10.138  17.387  1.00  0.00     0.205 HD
BRANCH  12  14
HETATM   14  N5  UNL     1       9.525   9.691  15.717  1.00  0.00    -0.331 N
ATOM     15  H52 UNL     1       9.408   9.275  14.794  1.00  0.00     0.177 HD
ATOM     16  H51 UNL     1      10.336  10.277  15.914  1.00  0.00     0.177 HD
ENDBRANCH  12  14
ENDBRANCH  11  12
TORSDOF 2
ENDMDL