MODEL 1
REMARK VINA RESULT: -5.423707342      0.000      0.000
REMARK  2 active torsions:
REMARK  status: ('A' for Active; 'I' for Inactive)
REMARK    1  A    between atoms: N1_1  and  C1_4
REMARK       I    between atoms: N4_10  and  C3_11
REMARK       I    between atoms: C3_11  and  N5_13
REMARK    2  A    between atoms: N5_13  and  N6_15
ROOT
HETATM    1  C1  UNL     1       7.962   7.977  14.874  1.00  0.00     0.702 A
HETATM    2  N2  UNL     1       7.981   6.947  15.725  1.00  0.00    -0.185 N
ATOM      3  H2  UNL     1       8.825   6.500  16.084  1.00  0.00     0.185 HD
HETATM    4  C2  UNL     1       6.736   6.589  16.035  1.00  0.00     0.216 A
HETATM    5  N3  UNL     1       5.941   7.424  15.357  1.00  0.00    -0.270 N
ATOM      6  H3  UNL     1       4.922   7.410  15.382  1.00  0.00     0.189 HD
HETATM    7  N4  UNL     1       6.685   8.285  14.637  1.00  0.00    -0.030 N
HETATM    8  C3  UNL     1       6.143   9.296  13.809  1.00  0.00     0.374 C
HETATM    9  O1  UNL     1       4.867   9.377  13.759  1.00  0.00    -0.243 OA
HETATM   10  N5  UNL     1       6.893  10.205  13.049  1.00  0.00    -0.256 N
ATOM     11  H5  UNL     1       7.912  10.159  13.074  1.00  0.00     0.191 HD
ENDROOT
BRANCH   1  12
HETATM   12  N1  UNL     1       9.025   8.508  14.421  1.00  0.00    -0.233 N
ATOM     13  H12 UNL     1       9.704   8.142  13.754  1.00  0.00     0.174 HD
ATOM     14  H11 UNL     1       9.336   9.438  14.703  1.00  0.00     0.174 HD
ENDBRANCH   1  12
BRANCH  10  15
HETATM   15  N6  UNL     1       6.256  11.191  12.245  1.00  0.00    -0.341 N
ATOM     16  H62 UNL     1       5.864  12.014  12.703  1.00  0.00     0.177 HD
ATOM     17  H61 UNL     1       6.191  11.083  11.233  1.00  0.00     0.177 HD
ENDBRANCH  10  15
TORSDOF 2
ENDMDL