MODEL 4
REMARK VINA RESULT: -4.690113862      7.697      8.393
REMARK  1 active torsions:
REMARK  status: ('A' for Active; 'I' for Inactive)
REMARK    1  A    between atoms: O1_2  and  N1_3
ROOT
HETATM    1  N1  UNL     1       4.776  14.919  16.613  1.00  0.00    -0.088 N
HETATM    2  N2  UNL     1       4.784  16.034  17.441  1.00  0.00     0.026 NA
HETATM    3  N3  UNL     1       4.180  15.748  18.680  1.00  0.00    -0.114 N
ATOM      4  H3  UNL     1       4.561  16.197  19.513  1.00  0.00     0.203 HD
HETATM    5  C2  UNL     1       3.086  14.884  18.840  1.00  0.00     0.693 C
HETATM    6  N4  UNL     1       2.315  14.881  19.865  1.00  0.00    -0.233 N
ATOM      7  H41 UNL     1       1.520  14.253  19.982  1.00  0.00     0.174 HD
ATOM      8  H42 UNL     1       2.500  15.540  20.622  1.00  0.00     0.174 HD
HETATM    9  N5  UNL     1       2.828  13.961  17.782  1.00  0.00    -0.138 N
ATOM     10  H5  UNL     1       2.050  13.302  17.829  1.00  0.00     0.189 HD
HETATM   11  C3  UNL     1       3.699  13.998  16.660  1.00  0.00     0.379 C
HETATM   12  O2  UNL     1       3.558  13.221  15.669  1.00  0.00    -0.242 OA
ENDROOT
BRANCH   1  13
HETATM   13  O1  UNL     1       5.830  14.720  15.747  1.00  0.00    -0.261 OA
HETATM   14  C1  UNL     1       6.415  15.993  15.600  1.00  0.00     0.240 C
ENDBRANCH   1  13
TORSDOF 1
ENDMDL