MODEL 5
REMARK VINA RESULT: -4.114184880      1.659      2.050
REMARK  1 active torsions:
REMARK  status: ('A' for Active; 'I' for Inactive)
REMARK    1  A    between atoms: S1_2  and  N1_3
ROOT
HETATM    1  N1  UNL     1       6.467  10.190  13.953  1.00  0.00    -0.300 N
ATOM      2  H1  UNL     1       7.113  10.959  13.779  1.00  0.00     0.177 HD
HETATM    3  C2  UNL     1       6.921   8.997  14.209  1.00  0.00     0.215 C
HETATM    4  N2  UNL     1       8.300   8.659  14.269  1.00  0.00    -0.255 N
ATOM      5  H2  UNL     1       9.082   9.158  13.844  1.00  0.00     0.187 HD
HETATM    6  N3  UNL     1       8.351   7.488  15.040  1.00  0.00    -0.006 NA
HETATM    7  N4  UNL     1       7.147   6.847  14.864  1.00  0.00    -0.006 NA
HETATM    8  N5  UNL     1       6.210   7.807  14.475  1.00  0.00    -0.255 N
ATOM      9  H5  UNL     1       5.202   7.674  14.398  1.00  0.00     0.187 HD
ENDROOT
BRANCH   1  10
HETATM   10  S1  UNL     1       4.744  10.464  13.910  1.00  0.00    -0.058 SA
HETATM   11  C1  UNL     1       4.426  12.074  13.141  1.00  0.00     0.115 C
ENDBRANCH   1  10
TORSDOF 1
ENDMDL