MODEL 5
REMARK VINA RESULT: -4.839232750      1.634      4.182
REMARK  5 active torsions:
REMARK  status: ('A' for Active; 'I' for Inactive)
REMARK    1  A    between atoms: N1_1  and  O1_4
REMARK    2  A    between atoms: O1_4  and  C1_5
REMARK    3  A    between atoms: C1_5  and  N2_6
REMARK    4  A    between atoms: C1_5  and  N3_10
REMARK    5  A    between atoms: N3_10  and  C2_12
ROOT
HETATM    1  N3  UNL     1       7.106   8.966  15.821  1.00  0.00    -0.170 N
ATOM      2  H3  UNL     1       6.539   8.972  16.670  1.00  0.00     0.182 HD
ENDROOT
BRANCH   1   3
HETATM    3  C1  UNL     1       8.365   8.277  15.861  1.00  0.00     0.463 C
BRANCH   3   4
HETATM    4  O1  UNL     1       9.427   9.043  15.387  1.00  0.00    -0.232 OA
BRANCH   4   5
HETATM    5  N1  UNL     1      10.072   8.405  14.372  1.00  0.00    -0.307 N
ATOM      6  H12 UNL     1      10.450   7.460  14.447  1.00  0.00     0.184 HD
ATOM      7  H11 UNL     1      10.123   8.997  13.543  1.00  0.00     0.184 HD
ENDBRANCH   4   5
ENDBRANCH   3   4
BRANCH   3   8
HETATM    8  N2  UNL     1       8.678   7.904  17.218  1.00  0.00    -0.032 N
ATOM      9  H23 UNL     1       9.680   7.895  17.408  1.00  0.00     0.279 HD
ATOM     10  H22 UNL     1       8.421   8.619  17.898  1.00  0.00     0.279 HD
ATOM     11  H21 UNL     1       8.231   7.005  17.396  1.00  0.00     0.279 HD
ENDBRANCH   3   8
ENDBRANCH   1   3
BRANCH   1  12
HETATM   12  C2  UNL     1       6.646   9.573  14.796  1.00  0.00     0.710 A
HETATM   13  N4  UNL     1       7.176   9.571  13.553  1.00  0.00    -0.118 N
HETATM   14  N5  UNL     1       6.384  10.318  12.819  1.00  0.00    -0.212 N
ATOM     15  H4  UNL     1       8.021   9.088  13.247  1.00  0.00     0.207 HD
HETATM   16  N6  UNL     1       5.386  10.781  13.563  1.00  0.00     0.009 NA
ATOM     17  H5  UNL     1       6.516  10.514  11.827  1.00  0.00     0.206 HD
HETATM   18  N7  UNL     1       5.531  10.327  14.804  1.00  0.00    -0.114 N
ATOM     19  H7  UNL     1       4.921  10.512  15.600  1.00  0.00     0.203 HD
ENDBRANCH   1  12
TORSDOF 5
ENDMDL