MODEL 2
REMARK VINA RESULT: -5.425595428      2.368      3.041
REMARK  3 active torsions:
REMARK  status: ('A' for Active; 'I' for Inactive)
REMARK    1  A    between atoms: N1_1  and  C1_4
REMARK    2  A    between atoms: C3_12  and  C4_13
REMARK       I    between atoms: C4_13  and  N5_15
REMARK    3  A    between atoms: N5_15  and  N6_17
ROOT
HETATM    1  C1  UNL     1       7.464   8.623  16.231  1.00  0.00     0.134 A
HETATM    2  N2  UNL     1       7.758   7.566  17.041  1.00  0.00    -0.336 N
ATOM      3  H2  UNL     1       8.500   7.611  17.739  1.00  0.00     0.168 HD
HETATM    4  C2  UNL     1       7.016   6.465  16.866  1.00  0.00     0.199 A
HETATM    5  N3  UNL     1       6.029   6.350  15.965  1.00  0.00    -0.295 N
ATOM      6  H3  UNL     1       5.494   5.486  15.873  1.00  0.00     0.187 HD
HETATM    7  N4  UNL     1       5.774   7.400  15.196  1.00  0.00    -0.292 N
ATOM      8  H4  UNL     1       5.027   7.333  14.504  1.00  0.00     0.187 HD
HETATM    9  C3  UNL     1       6.462   8.549  15.294  1.00  0.00     0.161 A
ENDROOT
BRANCH   9  10
HETATM   10  C4  UNL     1       6.187   9.707  14.453  1.00  0.00     0.291 C
HETATM   11  O1  UNL     1       5.401  10.610  14.836  1.00  0.00    -0.264 OA
HETATM   12  N5  UNL     1       6.786   9.869  13.176  1.00  0.00    -0.271 N
ATOM     13  H5  UNL     1       7.428   9.152  12.839  1.00  0.00     0.189 HD
BRANCH  12  14
HETATM   14  N6  UNL     1       6.530  10.963  12.375  1.00  0.00    -0.342 N
ATOM     15  H62 UNL     1       5.626  11.425  12.475  1.00  0.00     0.176 HD
ATOM     16  H61 UNL     1       7.208  11.314  11.698  1.00  0.00     0.176 HD
ENDBRANCH  12  14
ENDBRANCH   9  10
BRANCH   1  17
HETATM   17  N1  UNL     1       8.123   9.729  16.322  1.00  0.00    -0.383 N
ATOM     18  H12 UNL     1       7.691  10.500  16.832  1.00  0.00     0.157 HD
ATOM     19  H11 UNL     1       9.046   9.824  15.897  1.00  0.00     0.157 HD
ENDBRANCH   1  17
TORSDOF 3
ENDMDL