MODEL 3
REMARK VINA RESULT: -5.209422255      2.127      3.757
REMARK  3 active torsions:
REMARK  status: ('A' for Active; 'I' for Inactive)
REMARK    1  A    between atoms: N1_1  and  C1_5
REMARK    2  A    between atoms: C1_5  and  N2_6
REMARK    3  A    between atoms: C1_5  and  C2_10
ROOT
HETATM    1  C2  UNL     1       6.931   9.130  14.640  1.00  0.00     0.072 A
HETATM    2  C3  UNL     1       5.634   9.056  15.103  1.00  0.00     0.046 A
HETATM    3  C4  UNL     1       4.649   9.552  14.281  1.00  0.00     0.095 A
HETATM    4  N3  UNL     1       4.941  10.093  13.070  1.00  0.00    -0.319 N
ATOM      5  H3  UNL     1       4.185  10.451  12.486  1.00  0.00     0.170 HD
HETATM    6  C5  UNL     1       6.208  10.162  12.627  1.00  0.00     0.324 A
HETATM    7  O1  UNL     1       6.498  10.665  11.494  1.00  0.00    -0.247 OA
HETATM    8  N4  UNL     1       7.167   9.675  13.433  1.00  0.00    -0.308 N
ATOM      9  H4  UNL     1       8.133   9.722  13.109  1.00  0.00     0.170 HD
ENDROOT
BRANCH   1  10
HETATM   10  C1  UNL     1       8.052   8.603  15.496  1.00  0.00     0.427 C
BRANCH  10  11
HETATM   11  N1  UNL     1       9.049   7.946  14.687  1.00  0.00    -0.045 N
ATOM     12  H13 UNL     1       8.962   6.932  14.755  1.00  0.00     0.277 HD
ATOM     13  H12 UNL     1       8.847   8.066  13.695  1.00  0.00     0.277 HD
ATOM     14  H11 UNL     1      10.001   8.244  14.902  1.00  0.00     0.277 HD
ENDBRANCH  10  11
BRANCH  10  15
HETATM   15  N2  UNL     1       8.588   9.665  16.309  1.00  0.00    -0.045 N
ATOM     16  H23 UNL     1       9.583   9.795  16.125  1.00  0.00     0.277 HD
ATOM     17  H22 UNL     1       8.240  10.571  15.996  1.00  0.00     0.277 HD
ATOM     18  H21 UNL     1       8.418   9.534  17.306  1.00  0.00     0.277 HD
ENDBRANCH  10  15
ENDBRANCH   1  10
TORSDOF 3
ENDMDL