MODEL 4
REMARK VINA RESULT: -4.565195272      1.439      4.398
REMARK  2 active torsions:
REMARK  status: ('A' for Active; 'I' for Inactive)
REMARK    1  A    between atoms: N1_1  and  C1_5
REMARK    2  A    between atoms: C1_5  and  C2_6
ROOT
HETATM    1  C1  UNL     1      36.623  -2.854  12.592  1.00  0.00     0.180 C
HETATM    2  C5  UNL     1      36.673  -2.316  11.211  1.00  0.00     0.047 C
HETATM    3  C6  UNL     1      36.979  -3.286  10.136  1.00  0.00     0.003 C
HETATM    4  C7  UNL     1      36.445  -4.657  10.311  1.00  0.00     0.000 C
HETATM    5  C8  UNL     1      36.069  -5.026  11.703  1.00  0.00     0.003 C
HETATM    6  C9  UNL     1      37.046  -4.302  12.635  1.00  0.00     0.047 C
ENDROOT
BRANCH   1   7
HETATM    7  N1  UNL     1      35.246  -2.810  13.091  1.00  0.00    -0.063 N
ATOM      8  H13 UNL     1      34.676  -3.570  12.720  1.00  0.00     0.275 HD
ATOM      9  H12 UNL     1      35.184  -3.053  14.080  1.00  0.00     0.275 HD
ATOM     10  H11 UNL     1      34.846  -1.893  12.892  1.00  0.00     0.275 HD
ENDBRANCH   1   7
BRANCH   1  11
HETATM   11  C2  UNL     1      37.508  -2.101  13.525  1.00  0.00     0.109 C
HETATM   12  N2  UNL     1      37.360  -0.859  13.892  1.00  0.00    -0.376 N
HETATM   13  C3  UNL     1      38.396  -0.461  14.800  1.00  0.00     0.140 C
ATOM     14  H2  UNL     1      36.605  -0.250  13.575  1.00  0.00     0.160 HD
HETATM   15  C4  UNL     1      38.930  -1.785  15.315  1.00  0.00     0.140 C
HETATM   16  N3  UNL     1      38.662  -2.648  14.156  1.00  0.00    -0.376 N
ATOM     17  H3  UNL     1      39.192  -3.469  13.863  1.00  0.00     0.160 HD
ENDBRANCH   1  11
TORSDOF 2
ENDMDL