MODEL 2
REMARK VINA RESULT: -4.292087287      2.995      4.331
REMARK  3 active torsions:
REMARK  status: ('A' for Active; 'I' for Inactive)
REMARK    1  A    between atoms: C4_4  and  C5_5
REMARK    2  A    between atoms: C5_5  and  C6_6
REMARK    3  A    between atoms: C7_8  and  N1_9
ROOT
HETATM    1  C1  UNL     1      38.180  -0.596  14.498  1.00  0.00     0.039 C
HETATM    2  C2  UNL     1      38.090  -1.622  13.421  1.00  0.00     0.120 C
HETATM    3  C3  UNL     1      36.917  -2.568  13.586  1.00  0.00     0.040 C
HETATM    4  C4  UNL     1      36.959  -3.240  12.231  1.00  0.00     0.045 C
HETATM    5  C7  UNL     1      37.542  -2.173  11.361  1.00  0.00     0.323 C
HETATM    6  O1  UNL     1      37.766  -1.055  12.168  1.00  0.00    -0.354 OA
ENDROOT
BRANCH   5   7
HETATM    7  N1  UNL     1      36.708  -1.837  10.233  1.00  0.00    -0.052 N
ATOM      8  H13 UNL     1      36.616  -2.632   9.600  1.00  0.00     0.277 HD
ATOM      9  H12 UNL     1      35.734  -1.735  10.519  1.00  0.00     0.277 HD
ATOM     10  H11 UNL     1      37.025  -1.009   9.729  1.00  0.00     0.277 HD
ENDBRANCH   5   7
BRANCH   4  11
HETATM   11  C5  UNL     1      35.600  -3.702  11.777  1.00  0.00     0.020 C
BRANCH  11  12
HETATM   12  C6  UNL     1      35.773  -5.110  11.210  1.00  0.00     0.086 C
HETATM   13  S1  UNL     1      37.153  -5.168  10.041  1.00  0.00    -0.098 SA
ENDBRANCH  11  12
ENDBRANCH   4  11
TORSDOF 3
ENDMDL