MODEL 5
REMARK VINA RESULT: -4.089151121      2.298      3.818
REMARK  3 active torsions:
REMARK  status: ('A' for Active; 'I' for Inactive)
REMARK    1  A    between atoms: C2_2  and  N1_3
REMARK    2  A    between atoms: C2_2  and  C3_7
REMARK    3  A    between atoms: C3_7  and  C5_9
ROOT
HETATM    1  C3  UNL     1      36.544  -3.697  11.818  1.00  0.00     0.032 C
HETATM    2  C4  UNL     1      35.281  -3.973  12.557  1.00  0.00     0.014 C
ENDROOT
BRANCH   1   3
HETATM    3  C2  UNL     1      36.376  -3.883  10.306  1.00  0.00     0.184 C
HETATM    4  C1  UNL     1      37.230  -5.057   9.911  1.00  0.00     0.040 C
BRANCH   3   5
HETATM    5  N1  UNL     1      36.931  -2.708   9.649  1.00  0.00    -0.075 N
ATOM      6  H13 UNL     1      36.399  -1.857   9.833  1.00  0.00     0.274 HD
ATOM      7  H12 UNL     1      37.813  -2.401  10.058  1.00  0.00     0.274 HD
ATOM      8  H11 UNL     1      37.005  -2.926   8.656  1.00  0.00     0.274 HD
ENDBRANCH   3   5
ENDBRANCH   1   3
BRANCH   1   9
HETATM    9  C5  UNL     1      37.130  -2.309  12.103  1.00  0.00     0.094 C
HETATM   10  C6  UNL     1      36.705  -1.712  13.350  1.00  0.00     0.034 C
HETATM   11  C7  UNL     1      37.828  -1.166  14.158  1.00  0.00     0.094 C
HETATM   12  S1  UNL     1      39.230  -2.144  13.487  1.00  0.00    -0.066 SA
HETATM   13  N2  UNL     1      38.521  -2.374  11.890  1.00  0.00    -0.174 NA
ENDBRANCH   1   9
TORSDOF 3
ENDMDL