MODEL 1
REMARK VINA RESULT: -5.969557903      0.000      0.000
REMARK  3 active torsions:
REMARK  status: ('A' for Active; 'I' for Inactive)
REMARK    1  A    between atoms: C2_3  and  N2_4
REMARK    2  A    between atoms: C2_3  and  C3_8
REMARK    3  A    between atoms: C4_9  and  C5_11
ROOT
HETATM    1  N1  UNL     1      37.976   0.440  14.766  1.00  0.00    -0.195 NA
HETATM    2  C1  UNL     1      37.986  -0.630  14.333  1.00  0.00     0.096 C
HETATM    3  C2  UNL     1      37.978  -2.009  13.782  1.00  0.00     0.313 C
ENDROOT
BRANCH   3   4
HETATM    4  N2  UNL     1      38.736  -2.878  14.639  1.00  0.00    -0.059 N
ATOM      5  H23 UNL     1      39.055  -3.715  14.152  1.00  0.00     0.276 HD
ATOM      6  H22 UNL     1      39.648  -2.487  14.873  1.00  0.00     0.276 HD
ATOM      7  H21 UNL     1      38.190  -3.103  15.471  1.00  0.00     0.276 HD
ENDBRANCH   3   4
BRANCH   3   8
HETATM    8  C3  UNL     1      36.582  -2.504  13.663  1.00  0.00     0.043 C
HETATM    9  C4  UNL     1      36.148  -3.293  12.717  1.00  0.00     0.027 C
HETATM   10  N3  UNL     1      34.797  -3.703  12.703  1.00  0.00    -0.107 NA
BRANCH   9  11
HETATM   11  C5  UNL     1      37.068  -3.756  11.666  1.00  0.00     0.033 C
HETATM   12  C6  UNL     1      36.882  -2.911  10.394  1.00  0.00     0.010 C
HETATM   13  C7  UNL     1      37.703  -3.778   9.428  1.00  0.00     0.001 C
HETATM   14  C8  UNL     1      37.059  -5.121   9.660  1.00  0.00     0.001 C
HETATM   15  C9  UNL     1      36.655  -5.120  11.117  1.00  0.00     0.010 C
ENDBRANCH   9  11
ENDBRANCH   3   8
TORSDOF 3
ENDMDL