MODEL 3
REMARK VINA RESULT: -4.689056949      1.145      1.422
REMARK  4 active torsions:
REMARK  status: ('A' for Active; 'I' for Inactive)
REMARK    1  A    between atoms: N1_1  and  C1_5
REMARK    2  A    between atoms: C1_5  and  N2_6
REMARK    3  A    between atoms: C1_5  and  C2_10
REMARK    4  A    between atoms: C2_10  and  C3_11
ROOT
HETATM    1  C1  UNL     1      38.607  -1.003  14.097  1.00  0.00     0.380 C
ENDROOT
BRANCH   1   2
HETATM    2  N1  UNL     1      37.507  -0.229  14.608  1.00  0.00    -0.050 N
ATOM      3  H13 UNL     1      37.449  -0.233  15.626  1.00  0.00     0.276 HD
ATOM      4  H12 UNL     1      37.633   0.777  14.493  1.00  0.00     0.276 HD
ATOM      5  H11 UNL     1      36.666  -0.585  14.154  1.00  0.00     0.276 HD
ENDBRANCH   1   2
BRANCH   1   6
HETATM    6  N2  UNL     1      39.261  -0.179  13.099  1.00  0.00    -0.050 N
ATOM      7  H23 UNL     1      39.845  -0.713  12.455  1.00  0.00     0.276 HD
ATOM      8  H22 UNL     1      38.619   0.199  12.404  1.00  0.00     0.276 HD
ATOM      9  H21 UNL     1      39.776   0.540  13.608  1.00  0.00     0.276 HD
ENDBRANCH   1   6
BRANCH   1  10
HETATM   10  C2  UNL     1      38.105  -2.295  13.526  1.00  0.00     0.093 C
BRANCH  10  11
HETATM   11  C3  UNL     1      37.317  -2.196  12.272  1.00  0.00     0.125 C
HETATM   12  C4  UNL     1      37.879  -2.970  11.145  1.00  0.00     0.032 C
HETATM   13  C5  UNL     1      36.837  -3.278  10.068  1.00  0.00     0.002 C
HETATM   14  C6  UNL     1      35.667  -4.053  10.546  1.00  0.00     0.000 C
HETATM   15  C7  UNL     1      35.861  -4.882  11.762  1.00  0.00     0.002 C
HETATM   16  C8  UNL     1      34.887  -4.388  12.833  1.00  0.00     0.026 C
HETATM   17  C9  UNL     1      35.538  -3.151  13.471  1.00  0.00     0.168 C
HETATM   18  O1  UNL     1      35.961  -2.352  12.475  1.00  0.00    -0.386 OA
ENDBRANCH  10  11
ENDBRANCH   1  10
TORSDOF 4
ENDMDL