MODEL 2
REMARK VINA RESULT: -4.245543198      2.360      4.608
REMARK  3 active torsions:
REMARK  status: ('A' for Active; 'I' for Inactive)
REMARK    1  A    between atoms: S1_2  and  N1_3
REMARK    2  A    between atoms: N1_3  and  C2_4
REMARK    3  A    between atoms: C5_7  and  N2_8
ROOT
HETATM    1  C2  UNL     1      36.292  -2.833  12.357  1.00  0.00     0.088 C
HETATM    2  C3  UNL     1      36.393  -4.304  12.587  1.00  0.00     0.024 C
HETATM    3  C4  UNL     1      36.632  -5.119  11.371  1.00  0.00     0.034 C
HETATM    4  C5  UNL     1      36.720  -4.221  10.139  1.00  0.00     0.183 C
HETATM    5  C6  UNL     1      37.868  -3.252  10.445  1.00  0.00     0.034 C
HETATM    6  C7  UNL     1      37.333  -2.267  11.455  1.00  0.00     0.024 C
ENDROOT
BRANCH   4   7
HETATM    7  N2  UNL     1      37.007  -5.012   8.958  1.00  0.00    -0.075 N
ATOM      8  H23 UNL     1      37.925  -4.797   8.570  1.00  0.00     0.274 HD
ATOM      9  H22 UNL     1      37.166  -5.994   9.188  1.00  0.00     0.274 HD
ATOM     10  H21 UNL     1      36.265  -4.899   8.267  1.00  0.00     0.274 HD
ENDBRANCH   4   7
BRANCH   1  11
HETATM   11  N1  UNL     1      36.450  -2.182  13.665  1.00  0.00    -0.175 NA
BRANCH  11  12
HETATM   12  S1  UNL     1      38.123  -1.900  14.056  1.00  0.00    -0.070 SA
HETATM   13  C1  UNL     1      38.314  -0.157  14.518  1.00  0.00     0.110 C
ENDBRANCH  11  12
ENDBRANCH   1  11
TORSDOF 3
ENDMDL