MODEL 2
REMARK VINA RESULT: -4.948495802      0.961      1.657
REMARK  4 active torsions:
REMARK  status: ('A' for Active; 'I' for Inactive)
REMARK    1  A    between atoms: C2_5  and  C3_6
REMARK    2  A    between atoms: C2_5  and  N3_13
REMARK    3  A    between atoms: C3_6  and  C4_7
REMARK    4  A    between atoms: N3_13  and  N4_15
ROOT
HETATM    1  N1  UNL     1      37.456  -5.886   8.937  1.00  0.00    -0.172 NA
HETATM    2  C1  UNL     1      37.298  -5.117   9.780  1.00  0.00     0.183 C
HETATM    3  N2  UNL     1      37.114  -4.204  10.812  1.00  0.00    -0.282 N
ATOM      4  H2  UNL     1      37.022  -4.543  11.770  1.00  0.00     0.179 HD
HETATM    5  C2  UNL     1      37.060  -2.950  10.584  1.00  0.00     0.104 C
ENDROOT
BRANCH   5   6
HETATM    6  C3  UNL     1      36.864  -2.020  11.708  1.00  0.00     0.083 C
BRANCH   6   7
HETATM    7  C4  UNL     1      37.984  -2.004  12.702  1.00  0.00    -0.007 C
HETATM    8  C5  UNL     1      38.259  -0.568  13.128  1.00  0.00     0.005 C
HETATM    9  C6  UNL     1      38.368  -0.481  14.634  1.00  0.00     0.000 C
HETATM   10  C7  UNL     1      39.239  -1.589  15.175  1.00  0.00     0.000 C
HETATM   11  C8  UNL     1      38.538  -2.890  14.980  1.00  0.00     0.000 C
HETATM   12  C9  UNL     1      37.495  -2.795  13.918  1.00  0.00     0.005 C
ENDBRANCH   6   7
ENDBRANCH   5   6
BRANCH   5  13
HETATM   13  N3  UNL     1      37.182  -2.445   9.287  1.00  0.00    -0.295 N
ATOM     14  H3  UNL     1      37.601  -3.014   8.550  1.00  0.00     0.187 HD
BRANCH  13  15
HETATM   15  N4  UNL     1      36.729  -1.165   9.009  1.00  0.00    -0.344 N
ATOM     16  H42 UNL     1      35.788  -0.894   9.297  1.00  0.00     0.176 HD
ATOM     17  H41 UNL     1      37.342  -0.513   8.521  1.00  0.00     0.176 HD
ENDBRANCH  13  15
ENDBRANCH   5  13
TORSDOF 4
ENDMDL