MODEL 3
REMARK VINA RESULT: -4.868555210      1.210      1.780
REMARK  4 active torsions:
REMARK  status: ('A' for Active; 'I' for Inactive)
REMARK    1  A    between atoms: N2_3  and  C2_5
REMARK    2  A    between atoms: C2_5  and  S1_9
REMARK    3  A    between atoms: S1_9  and  C3_10
REMARK    4  A    between atoms: C3_10  and  C4_11
ROOT
HETATM    1  N1  UNL     1      36.657  -1.211   8.778  1.00  0.00    -0.172 NA
HETATM    2  C1  UNL     1      37.133  -2.175   9.152  1.00  0.00     0.183 C
HETATM    3  N2  UNL     1      37.736  -3.342   9.604  1.00  0.00    -0.274 N
ATOM      4  H2  UNL     1      38.713  -3.507   9.362  1.00  0.00     0.180 HD
ENDROOT
BRANCH   3   5
HETATM    5  C2  UNL     1      37.058  -4.326  10.391  1.00  0.00     0.146 C
HETATM    6  N3  UNL     1      37.303  -5.574  10.173  1.00  0.00    -0.379 N
ATOM      7  H32 UNL     1      37.970  -5.850   9.452  1.00  0.00     0.158 HD
ATOM      8  H31 UNL     1      36.819  -6.276  10.735  1.00  0.00     0.158 HD
BRANCH   5   9
HETATM    9  S1  UNL     1      35.893  -3.844  11.651  1.00  0.00    -0.093 SA
BRANCH   9  10
HETATM   10  C3  UNL     1      36.800  -3.810  13.253  1.00  0.00     0.087 C
BRANCH  10  11
HETATM   11  C4  UNL     1      37.016  -2.426  13.726  1.00  0.00     0.003 C
HETATM   12  C5  UNL     1      38.343  -2.130  14.305  1.00  0.00    -0.009 C
HETATM   13  C6  UNL     1      38.019  -0.681  13.949  1.00  0.00     0.010 C
HETATM   14  C8  UNL     1      38.912  -2.188  12.940  1.00  0.00     0.010 C
HETATM   15  C7  UNL     1      37.618  -1.499  12.727  1.00  0.00    -0.009 C
ENDBRANCH  10  11
ENDBRANCH   9  10
ENDBRANCH   5   9
ENDBRANCH   3   5
TORSDOF 4
ENDMDL