MODEL 4
REMARK VINA RESULT: -3.290262778      1.925      2.541
REMARK  4 active torsions:
REMARK  status: ('A' for Active; 'I' for Inactive)
REMARK    1  A    between atoms: N1_1  and  C1_5
REMARK    2  A    between atoms: C1_5  and  C2_6
REMARK    3  A    between atoms: C2_6  and  C3_7
REMARK    4  A    between atoms: C3_7  and  O1_8
ROOT
HETATM    1  C2  UNL     1      35.965  -3.719  12.327  1.00  0.00     0.053 C
HETATM    2  C4  UNL     1      35.584  -4.997  11.635  1.00  0.00     0.024 C
HETATM    3  C5  UNL     1      36.732  -5.835  11.201  1.00  0.00     0.002 C
HETATM    4  C6  UNL     1      37.522  -5.352  10.060  1.00  0.00     0.001 C
HETATM    5  C7  UNL     1      36.975  -4.197   9.307  1.00  0.00     0.010 C
HETATM    6  C8  UNL     1      37.572  -2.933   9.904  1.00  0.00     0.075 C
HETATM    7  S1  UNL     1      36.574  -2.427  11.294  1.00  0.00    -0.155 SA
ENDROOT
BRANCH   1   8
HETATM    8  C1  UNL     1      34.656  -3.208  12.957  1.00  0.00     0.252 C
BRANCH   8   9
HETATM    9  N1  UNL     1      34.897  -2.423  14.125  1.00  0.00    -0.078 N
ATOM     10  H13 UNL     1      35.675  -2.796  14.669  1.00  0.00     0.274 HD
ATOM     11  H12 UNL     1      35.290  -1.513  13.886  1.00  0.00     0.274 HD
ATOM     12  H11 UNL     1      34.058  -2.325  14.699  1.00  0.00     0.274 HD
ENDBRANCH   8   9
ENDBRANCH   1   8
BRANCH   1  13
HETATM   13  C3  UNL     1      36.900  -3.977  13.478  1.00  0.00     0.186 C
BRANCH  13  14
HETATM   14  O1  UNL     1      37.675  -2.816  13.642  1.00  0.00    -0.399 OA
ATOM     15  H1  UNL     1      37.516  -2.501  14.524  1.00  0.00     0.209 HD
ENDBRANCH  13  14
ENDBRANCH   1  13
TORSDOF 4
ENDMDL