MODEL 3
REMARK VINA RESULT: -11.294355559      2.030      4.475
REMARK  0 active torsions:
REMARK  status: ('A' for Active; 'I' for Inactive)
ROOT
HETATM    1  N1  UNL     1      -9.760  -3.249   3.666  1.00  0.00    -0.191 NA
HETATM    2  C1  UNL     1      -9.659  -2.100   3.723  1.00  0.00     0.107 C
HETATM    3  C2  UNL     1      -9.515  -0.664   3.817  1.00  0.00     0.137 A
HETATM    4  C3  UNL     1     -10.183   0.159   2.868  1.00  0.00     0.086 A
HETATM    5  N2  UNL     1     -10.921  -0.546   1.930  1.00  0.00    -0.100 NA
HETATM    6  C4  UNL     1     -10.034   1.497   2.976  1.00  0.00     0.029 A
HETATM    7  C5  UNL     1     -10.664   2.366   2.075  1.00  0.00    -0.011 A
HETATM    8  C6  UNL     1     -11.433   1.834   1.084  1.00  0.00     0.013 A
HETATM    9  C7  UNL     1     -12.071   2.703   0.173  1.00  0.00     0.001 A
HETATM   10  C8  UNL     1     -11.916   4.038   0.288  1.00  0.00     0.001 A
HETATM   11  C9  UNL     1     -11.129   4.578   1.304  1.00  0.00     0.013 A
HETATM   12  C10 UNL     1     -10.497   3.770   2.202  1.00  0.00    -0.011 A
HETATM   13  C11 UNL     1      -9.712   4.278   3.215  1.00  0.00     0.017 A
HETATM   14  C12 UNL     1      -9.084   3.402   4.115  1.00  0.00     0.005 A
HETATM   15  C13 UNL     1      -8.297   3.878   5.134  1.00  0.00     0.017 A
HETATM   16  C14 UNL     1      -8.115   5.234   5.284  1.00  0.00     0.033 A
HETATM   17  C15 UNL     1      -8.725   6.111   4.409  1.00  0.00     0.060 A
HETATM   18  N3  UNL     1      -8.692   7.454   4.362  1.00  0.00    -0.350 N
ATOM     19  H3  UNL     1      -8.186   8.071   4.997  1.00  0.00     0.166 HD
HETATM   20  C16 UNL     1      -9.434   7.821   3.346  1.00  0.00     0.181 A
HETATM   21  N4  UNL     1      -9.949   6.705   2.732  1.00  0.00    -0.350 N
ATOM     22  H4  UNL     1     -10.561   6.700   1.916  1.00  0.00     0.166 HD
HETATM   23  C17 UNL     1      -9.518   5.644   3.381  1.00  0.00     0.072 A
HETATM   24  C18 UNL     1      -9.239   2.037   4.002  1.00  0.00     0.059 A
HETATM   25  N5  UNL     1      -8.627   1.240   4.874  1.00  0.00    -0.321 N
ATOM     26  H5  UNL     1      -8.052   1.645   5.612  1.00  0.00     0.169 HD
HETATM   27  C19 UNL     1      -8.761  -0.103   4.787  1.00  0.00     0.268 A
HETATM   28  O1  UNL     1      -8.161  -0.802   5.635  1.00  0.00    -0.266 OA
ENDROOT
TORSDOF 0
ENDMDL