MODEL 1
REMARK VINA RESULT: -9.518122444      0.000      0.000
REMARK  1 active torsions:
REMARK  status: ('A' for Active; 'I' for Inactive)
REMARK       I    between atoms: N1_2  and  C3_4
REMARK       I    between atoms: C3_4  and  N3_8
REMARK    1  A    between atoms: N3_8  and  C4_10
ROOT
HETATM    1  C4  UNL     1     -10.546   5.596   3.443  1.00  0.00     0.693 A
HETATM    2  N4  UNL     1     -10.208   4.901   4.457  1.00  0.00    -0.221 N
ATOM      3  H4  UNL     1     -10.072   5.406   5.332  1.00  0.00     0.178 HD
HETATM    4  C5  UNL     1     -10.002   3.489   4.496  1.00  0.00     0.180 A
HETATM    5  C6  UNL     1     -10.221   2.848   3.189  1.00  0.00     0.005 A
HETATM    6  C7  UNL     1     -10.589   3.537   2.046  1.00  0.00     0.058 A
HETATM    7  C8  UNL     1     -10.753   2.800   0.919  1.00  0.00     0.031 A
HETATM    8  C9  UNL     1     -10.578   1.458   0.866  1.00  0.00     0.016 A
HETATM    9  C10 UNL     1     -10.202   0.713   2.012  1.00  0.00    -0.007 A
HETATM   10  C11 UNL     1     -10.038   1.457   3.146  1.00  0.00     0.027 A
HETATM   11  S1  UNL     1      -9.599   0.308   4.320  1.00  0.00    -0.088 SA
HETATM   12  C12 UNL     1      -9.630  -1.099   3.354  1.00  0.00     0.016 A
HETATM   13  C13 UNL     1      -9.381  -2.463   3.603  1.00  0.00     0.020 A
HETATM   14  C14 UNL     1      -9.489  -3.402   2.595  1.00  0.00     0.001 A
HETATM   15  C15 UNL     1      -9.848  -2.913   1.369  1.00  0.00     0.001 A
HETATM   16  C16 UNL     1     -10.093  -1.606   1.102  1.00  0.00     0.013 A
HETATM   17  C17 UNL     1      -9.989  -0.627   2.124  1.00  0.00    -0.007 A
HETATM   18  N5  UNL     1     -10.754   4.937   2.175  1.00  0.00    -0.191 N
ATOM     19  H5  UNL     1     -11.023   5.489   1.361  1.00  0.00     0.184 HD
ENDROOT
BRANCH   1  20
HETATM   20  N3  UNL     1     -10.737   7.011   3.473  1.00  0.00    -0.023 N
HETATM   21  C3  UNL     1      -9.620   7.864   3.707  1.00  0.00     0.687 C
HETATM   22  N1  UNL     1      -9.724   9.255   3.496  1.00  0.00    -0.226 N
HETATM   23  N2  UNL     1      -8.486   7.411   4.114  1.00  0.00    -0.234 N
HETATM   24  C1  UNL     1      -9.073  10.163   4.403  1.00  0.00     0.168 C
HETATM   25  C2  UNL     1     -10.483   9.740   2.369  1.00  0.00     0.168 C
ATOM     26  H22 UNL     1      -7.686   8.021   4.281  1.00  0.00     0.174 HD
ATOM     27  H21 UNL     1      -8.411   6.405   4.267  1.00  0.00     0.174 HD
ATOM     28  H3  UNL     1     -11.666   7.408   3.328  1.00  0.00     0.203 HD
ENDBRANCH   1  20
TORSDOF 1
ENDMDL