MODEL 2
REMARK VINA RESULT: -7.760252104      1.851      2.890
REMARK  4 active torsions:
REMARK  status: ('A' for Active; 'I' for Inactive)
REMARK    1  A    between atoms: N1_1  and  C1_4
REMARK    2  A    between atoms: C3_7  and  C4_8
REMARK    3  A    between atoms: C4_8  and  C5_9
REMARK    4  A    between atoms: C5_9  and  C6_10
ROOT
HETATM    1  C1  UNL     1     -11.124   2.506   1.367  1.00  0.00     0.065 A
HETATM    2  C2  UNL     1     -11.057   3.841   1.668  1.00  0.00     0.099 A
HETATM    3  N2  UNL     1     -11.620   4.825   0.762  1.00  0.00    -0.098 NA
HETATM    4  C3  UNL     1     -10.483   4.379   2.797  1.00  0.00     0.087 A
HETATM    5  S2  UNL     1      -9.818   3.237   3.871  1.00  0.00    -0.060 SA
HETATM    6  C10 UNL     1      -9.992   1.618   3.337  1.00  0.00     0.089 A
HETATM    7  N3  UNL     1      -9.526   0.555   4.053  1.00  0.00    -0.335 N
ATOM      8  H3  UNL     1      -9.057   0.731   4.942  1.00  0.00     0.168 HD
HETATM    9  C11 UNL     1      -9.661  -0.714   3.637  1.00  0.00     0.116 A
HETATM   10  N4  UNL     1      -9.308  -1.918   4.128  1.00  0.00    -0.352 N
ATOM     11  H4  UNL     1      -8.819  -2.064   5.011  1.00  0.00     0.166 HD
HETATM   12  C12 UNL     1      -9.687  -2.894   3.302  1.00  0.00     0.090 A
HETATM   13  C13 UNL     1     -10.304  -2.276   2.244  1.00  0.00     0.032 A
HETATM   14  C14 UNL     1     -10.304  -0.886   2.430  1.00  0.00     0.010 A
HETATM   15  C15 UNL     1     -10.782   0.163   1.688  1.00  0.00     0.032 A
HETATM   16  C16 UNL     1     -10.639   1.466   2.124  1.00  0.00     0.027 A
ENDROOT
BRANCH   4  17
HETATM   17  C4  UNL     1     -10.460   5.810   3.027  1.00  0.00    -0.052 C
BRANCH  17  18
HETATM   18  C5  UNL     1     -10.419   7.000   3.223  1.00  0.00    -0.060 C
BRANCH  18  19
HETATM   19  C6  UNL     1     -10.357   8.449   3.469  1.00  0.00     0.025 A
HETATM   20  C7  UNL     1     -11.450   9.213   3.586  1.00  0.00     0.028 A
HETATM   21  C8  UNL     1     -11.263  10.551   3.815  1.00  0.00     0.051 A
HETATM   22  S1  UNL     1      -9.565  10.697   3.859  1.00  0.00    -0.112 SA
HETATM   23  C9  UNL     1      -9.142   9.069   3.589  1.00  0.00     0.070 A
ENDBRANCH  18  19
ENDBRANCH  17  18
ENDBRANCH   4  17
BRANCH   1  24
HETATM   24  N1  UNL     1     -11.711   2.162   0.240  1.00  0.00    -0.397 N
ATOM     25  H12 UNL     1     -11.465   2.726  -0.574  1.00  0.00     0.156 HD
ATOM     26  H11 UNL     1     -12.356   1.372   0.263  1.00  0.00     0.156 HD
ENDBRANCH   1  24
TORSDOF 4
ENDMDL