MODEL 4
REMARK VINA RESULT: -8.780848194      2.079      6.355
REMARK  0 active torsions:
REMARK  status: ('A' for Active; 'I' for Inactive)
ROOT
HETATM    1  C1  UNL     1      -9.520  -1.422  -1.080  1.00  0.00     0.076 C
HETATM    2  C2  UNL     1      -9.818  -0.547   0.114  1.00  0.00     0.049 A
HETATM    3  N1  UNL     1      -9.436  -0.751   1.365  1.00  0.00    -0.339 N
ATOM      4  H1  UNL     1      -8.879  -1.572   1.602  1.00  0.00     0.168 HD
HETATM    5  C3  UNL     1      -9.771   0.096   2.287  1.00  0.00     0.123 A
HETATM    6  C4  UNL     1     -10.522   1.183   1.909  1.00  0.00     0.056 A
HETATM    7  S1  UNL     1     -10.697   0.911   0.230  1.00  0.00    -0.075 SA
HETATM    8  C5  UNL     1     -11.086   2.336   2.672  1.00  0.00     0.170 A
HETATM    9  C6  UNL     1     -11.047   3.646   2.033  1.00  0.00    -0.003 A
HETATM   10  C7  UNL     1     -11.581   4.441   1.016  1.00  0.00     0.012 A
HETATM   11  C8  UNL     1     -11.117   5.721   0.911  1.00  0.00     0.001 A
HETATM   12  C9  UNL     1     -10.165   6.225   1.760  1.00  0.00     0.002 A
HETATM   13  C10 UNL     1      -9.644   5.431   2.761  1.00  0.00     0.030 A
HETATM   14  C11 UNL     1     -10.089   4.135   2.895  1.00  0.00     0.044 A
HETATM   15  N2  UNL     1     -10.063   2.885   3.533  1.00  0.00    -0.327 N
HETATM   16  C12 UNL     1      -9.381   2.224   4.603  1.00  0.00     0.107 A
HETATM   17  C13 UNL     1      -8.923   2.796   5.750  1.00  0.00     0.099 A
HETATM   18  N3  UNL     1      -9.061   4.173   6.053  1.00  0.00    -0.098 NA
HETATM   19  C14 UNL     1      -8.332   1.794   6.497  1.00  0.00     0.035 A
HETATM   20  C15 UNL     1      -7.694   1.953   7.827  1.00  0.00     0.070 C
HETATM   21  N4  UNL     1      -8.420   0.624   5.833  1.00  0.00    -0.338 N
HETATM   22  C16 UNL     1      -7.942  -0.691   6.227  1.00  0.00     0.158 C
HETATM   23  C17 UNL     1      -9.060   0.867   4.669  1.00  0.00     0.138 A
HETATM   24  N5  UNL     1      -9.351  -0.121   3.664  1.00  0.00    -0.326 N
ATOM     25  H5  UNL     1      -9.251  -1.094   3.952  1.00  0.00     0.169 HD
ENDROOT
TORSDOF 0
ENDMDL