MODEL 3
REMARK VINA RESULT: -10.175353816      2.564      5.101
REMARK  1 active torsions:
REMARK  status: ('A' for Active; 'I' for Inactive)
REMARK    1  A    between atoms: N1_1  and  C1_4
ROOT
HETATM    1  C1  UNL     1     -10.105   1.152   2.182  1.00  0.00     0.113 A
HETATM    2  N2  UNL     1     -10.449  -0.018   1.556  1.00  0.00    -0.338 N
ATOM      3  H2  UNL     1     -10.870   0.056   0.630  1.00  0.00     0.168 HD
HETATM    4  C2  UNL     1     -10.282  -1.225   2.044  1.00  0.00     0.182 A
HETATM    5  N3  UNL     1      -9.731  -1.291   3.252  1.00  0.00    -0.346 N
ATOM      6  H3  UNL     1      -9.575  -2.202   3.685  1.00  0.00     0.167 HD
HETATM    7  C3  UNL     1      -9.372  -0.160   3.919  1.00  0.00     0.090 A
HETATM    8  S1  UNL     1      -8.660   0.013   5.452  1.00  0.00    -0.065 SA
HETATM    9  C4  UNL     1      -8.559   1.706   5.497  1.00  0.00     0.087 A
HETATM   10  C5  UNL     1      -8.067   2.565   6.479  1.00  0.00     0.265 A
HETATM   11  O1  UNL     1      -7.618   2.004   7.517  1.00  0.00    -0.267 OA
HETATM   12  N4  UNL     1      -8.081   3.878   6.311  1.00  0.00    -0.308 N
ATOM     13  H4  UNL     1      -7.725   4.517   7.022  1.00  0.00     0.170 HD
HETATM   14  C6  UNL     1      -8.591   4.320   5.155  1.00  0.00     0.119 A
HETATM   15  N5  UNL     1      -8.568   5.686   5.060  1.00  0.00    -0.341 N
ATOM     16  H5  UNL     1      -8.184   6.217   5.841  1.00  0.00     0.167 HD
HETATM   17  C7  UNL     1      -9.022   6.361   4.000  1.00  0.00     0.044 A
HETATM   18  C8  UNL     1      -8.977   7.738   3.953  1.00  0.00     0.030 A
HETATM   19  C9  UNL     1      -9.459   8.367   2.837  1.00  0.00     0.002 A
HETATM   20  C10 UNL     1      -9.971   7.622   1.796  1.00  0.00     0.001 A
HETATM   21  C11 UNL     1     -10.008   6.246   1.861  1.00  0.00     0.014 A
HETATM   22  C12 UNL     1      -9.532   5.609   2.966  1.00  0.00    -0.009 A
HETATM   23  C13 UNL     1      -9.553   4.208   3.067  1.00  0.00     0.030 A
HETATM   24  C14 UNL     1      -9.095   3.520   4.137  1.00  0.00     0.022 A
HETATM   25  C15 UNL     1      -9.095   2.125   4.284  1.00  0.00     0.017 A
HETATM   26  C16 UNL     1      -9.525   1.138   3.448  1.00  0.00     0.054 A
ENDROOT
BRANCH   1  27
HETATM   27  N1  UNL     1     -10.381   2.139   1.475  1.00  0.00    -0.385 N
ATOM     28  H12 UNL     1     -10.914   2.160   0.605  1.00  0.00     0.157 HD
ATOM     29  H11 UNL     1      -9.998   2.996   1.873  1.00  0.00     0.157 HD
ENDBRANCH   1  27
TORSDOF 1
ENDMDL