MODEL 3
REMARK VINA RESULT: -8.819073109      2.254      4.203
REMARK  2 active torsions:
REMARK  status: ('A' for Active; 'I' for Inactive)
REMARK    1  A    between atoms: N1_1  and  C1_4
REMARK    2  A    between atoms: C2_7  and  N3_8
ROOT
HETATM    1  C1  UNL     1      -9.639  -1.750   3.890  1.00  0.00     0.111 C
HETATM    2  N2  UNL     1      -9.662  -2.145   2.578  1.00  0.00    -0.328 N
ATOM      3  H2  UNL     1      -9.776  -3.143   2.406  1.00  0.00     0.169 HD
HETATM    4  C2  UNL     1      -9.550  -1.346   1.477  1.00  0.00     0.120 C
HETATM    5  C3  UNL     1      -9.903   0.025   1.420  1.00  0.00     0.080 A
HETATM    6  S1  UNL     1     -10.608   0.825   0.123  1.00  0.00    -0.047 SA
HETATM    7  C4  UNL     1     -10.911   2.329   0.933  1.00  0.00     0.157 A
HETATM    8  N4  UNL     1     -11.501   3.509   0.727  1.00  0.00    -0.334 N
ATOM      9  H4  UNL     1     -11.909   3.859  -0.140  1.00  0.00     0.168 HD
HETATM   10  C5  UNL     1     -11.438   4.135   1.917  1.00  0.00     0.061 A
HETATM   11  C6  UNL     1     -11.974   5.350   2.261  1.00  0.00     0.032 A
HETATM   12  C7  UNL     1     -11.920   5.829   3.528  1.00  0.00     0.002 A
HETATM   13  C8  UNL     1     -11.302   5.043   4.469  1.00  0.00     0.002 A
HETATM   14  C9  UNL     1     -10.762   3.827   4.125  1.00  0.00     0.032 A
HETATM   15  C10 UNL     1     -10.798   3.319   2.843  1.00  0.00     0.068 A
HETATM   16  N5  UNL     1     -10.441   2.147   2.200  1.00  0.00    -0.287 N
HETATM   17  C11 UNL     1      -9.916   0.978   2.445  1.00  0.00     0.074 A
HETATM   18  C12 UNL     1      -9.163   0.692   3.609  1.00  0.00     0.007 A
HETATM   19  C13 UNL     1      -8.422   1.748   4.050  1.00  0.00     0.015 A
HETATM   20  C14 UNL     1      -7.664   1.563   5.212  1.00  0.00     0.001 A
HETATM   21  C15 UNL     1      -7.635   0.369   5.913  1.00  0.00     0.001 A
HETATM   22  C16 UNL     1      -8.380  -0.694   5.455  1.00  0.00     0.016 A
HETATM   23  C17 UNL     1      -9.127  -0.522   4.314  1.00  0.00     0.020 A
ENDROOT
BRANCH   1  24
HETATM   24  N1  UNL     1     -10.062  -2.543   4.759  1.00  0.00    -0.385 N
ATOM     25  H12 UNL     1     -11.063  -2.547   4.958  1.00  0.00     0.157 HD
ATOM     26  H11 UNL     1      -9.390  -3.128   5.253  1.00  0.00     0.157 HD
ENDBRANCH   1  24
BRANCH   4  27
HETATM   27  N3  UNL     1      -9.141  -1.795   0.375  1.00  0.00    -0.384 N
ATOM     28  H32 UNL     1      -9.898  -2.098  -0.238  1.00  0.00     0.157 HD
ATOM     29  H31 UNL     1      -8.146  -1.861   0.161  1.00  0.00     0.157 HD
ENDBRANCH   4  27
TORSDOF 2
ENDMDL