MODEL 2
REMARK VINA RESULT: -10.397245774      2.160      5.448
REMARK  0 active torsions:
REMARK  status: ('A' for Active; 'I' for Inactive)
ROOT
HETATM    1  C1  UNL     1     -12.938   4.458  -0.825  1.00  0.00     0.048 C
HETATM    2  C2  UNL     1     -12.052   4.070   0.310  1.00  0.00    -0.060 A
HETATM    3  C3  UNL     1     -11.509   5.096   1.043  1.00  0.00     0.009 A
HETATM    4  C4  UNL     1     -10.680   4.843   2.109  1.00  0.00     0.032 A
HETATM    5  C5  UNL     1     -10.405   3.535   2.423  1.00  0.00     0.059 A
HETATM    6  C6  UNL     1     -10.948   2.472   1.687  1.00  0.00     0.058 A
HETATM    7  C7  UNL     1     -11.770   2.778   0.633  1.00  0.00     0.038 A
HETATM    8  N1  UNL     1     -10.754   1.090   1.892  1.00  0.00    -0.348 N
ATOM      9  H1  UNL     1     -11.519   0.500   1.563  1.00  0.00     0.163 HD
HETATM   10  C8  UNL     1      -9.647   0.364   2.493  1.00  0.00     0.206 A
HETATM   11  O1  UNL     1      -8.520   0.238   1.683  1.00  0.00    -0.294 OA
HETATM   12  C9  UNL     1      -8.704  -1.109   1.570  1.00  0.00     0.157 A
HETATM   13  N2  UNL     1      -8.275  -2.311   1.052  1.00  0.00    -0.346 N
ATOM     14  H2  UNL     1      -7.444  -2.346   0.462  1.00  0.00     0.167 HD
HETATM   15  C10 UNL     1      -8.951  -3.437   1.325  1.00  0.00     0.090 A
HETATM   16  C11 UNL     1     -10.079  -3.437   2.117  1.00  0.00     0.018 A
HETATM   17  C12 UNL     1     -10.511  -2.246   2.637  1.00  0.00     0.018 A
HETATM   18  C13 UNL     1      -9.797  -1.074   2.346  1.00  0.00     0.053 A
HETATM   19  C14 UNL     1      -9.280   0.883   3.844  1.00  0.00     0.031 A
HETATM   20  C15 UNL     1      -8.938  -0.113   4.737  1.00  0.00     0.015 A
HETATM   21  C16 UNL     1      -8.566   0.200   6.028  1.00  0.00     0.003 A
HETATM   22  C17 UNL     1      -8.541   1.516   6.414  1.00  0.00     0.029 A
HETATM   23  C18 UNL     1      -8.874   2.548   5.554  1.00  0.00     0.073 A
HETATM   24  N3  UNL     1      -8.841   3.900   5.962  1.00  0.00    -0.100 NA
HETATM   25  C19 UNL     1      -9.245   2.184   4.255  1.00  0.00     0.068 A
HETATM   26  N4  UNL     1      -9.535   3.404   3.550  1.00  0.00    -0.352 N
ATOM     27  H4  UNL     1      -9.079   4.253   3.885  1.00  0.00     0.166 HD
ENDROOT
TORSDOF 0
ENDMDL