MODEL 2
REMARK VINA RESULT: -10.025584033      1.105      1.408
REMARK  2 active torsions:
REMARK  status: ('A' for Active; 'I' for Inactive)
REMARK    1  A    between atoms: C7_11  and  N3_12
REMARK    2  A    between atoms: N3_12  and  C8_14
ROOT
HETATM    1  N3  UNL     1     -11.712   2.279   2.224  1.00  0.00    -0.173 N
ATOM      2  H3  UNL     1     -12.673   2.185   2.553  1.00  0.00     0.186 HD
ENDROOT
BRANCH   1   3
HETATM    3  C7  UNL     1     -11.020   1.163   1.698  1.00  0.00     0.699 A
HETATM    4  N2  UNL     1     -10.545   1.150   0.496  1.00  0.00    -0.131 N
HETATM    5  N1  UNL     1      -9.864   0.033  -0.001  1.00  0.00    -0.284 N
ATOM      6  H2  UNL     1     -10.670   1.968  -0.102  1.00  0.00     0.205 HD
HETATM    7  C5  UNL     1      -9.657  -1.145   0.789  1.00  0.00     0.075 A
ATOM      8  H1  UNL     1      -9.504   0.058  -0.955  1.00  0.00     0.187 HD
HETATM    9  C4  UNL     1     -10.154  -1.142   2.061  1.00  0.00     0.077 A
HETATM   10  C6  UNL     1      -8.984  -2.251   0.301  1.00  0.00     0.033 A
HETATM   11  C3  UNL     1      -9.977  -2.267   2.870  1.00  0.00     0.032 A
HETATM   12  N6  UNL     1     -10.840   0.017   2.520  1.00  0.00    -0.188 N
HETATM   13  C2  UNL     1      -9.307  -3.376   2.393  1.00  0.00     0.002 A
HETATM   14  C1  UNL     1      -8.809  -3.369   1.107  1.00  0.00     0.002 A
ATOM     15  H6  UNL     1     -11.214   0.027   3.469  1.00  0.00     0.184 HD
ENDBRANCH   1   3
BRANCH   1  16
HETATM   16  C8  UNL     1     -11.109   3.416   2.280  1.00  0.00     0.149 A
HETATM   17  N4  UNL     1     -11.395   4.461   1.478  1.00  0.00    -0.283 N
HETATM   18  N5  UNL     1     -10.607   5.468   1.787  1.00  0.00    -0.291 N
ATOM     19  H4  UNL     1     -12.108   4.470   0.749  1.00  0.00     0.188 HD
HETATM   20  C9  UNL     1      -9.794   5.055   2.812  1.00  0.00     0.104 A
ATOM     21  H5  UNL     1     -10.601   6.387   1.345  1.00  0.00     0.187 HD
HETATM   22  S1  UNL     1      -8.536   5.501   3.871  1.00  0.00    -0.070 SA
HETATM   23  C16 UNL     1     -10.064   3.774   3.164  1.00  0.00     0.057 A
HETATM   24  C10 UNL     1      -8.380   4.039   4.743  1.00  0.00     0.018 A
HETATM   25  C11 UNL     1      -7.555   3.602   5.794  1.00  0.00     0.020 A
HETATM   26  C15 UNL     1      -9.328   3.235   4.175  1.00  0.00    -0.002 A
HETATM   27  C12 UNL     1      -7.666   2.332   6.302  1.00  0.00     0.001 A
HETATM   28  C13 UNL     1      -8.612   1.509   5.744  1.00  0.00     0.001 A
HETATM   29  C14 UNL     1      -9.399   1.944   4.734  1.00  0.00     0.014 A
ENDBRANCH   1  16
TORSDOF 2
ENDMDL