MODEL 4
REMARK VINA RESULT: -9.125336250      3.130      5.160
REMARK  1 active torsions:
REMARK  status: ('A' for Active; 'I' for Inactive)
REMARK    1  A    between atoms: N1_1  and  C1_4
ROOT
HETATM    1  C1  UNL     1     -10.220  -0.033   0.917  1.00  0.00     0.142 A
HETATM    2  C2  UNL     1     -10.033  -1.226   1.581  1.00  0.00     0.058 A
HETATM    3  C3  UNL     1      -9.621  -1.224   2.881  1.00  0.00     0.037 A
HETATM    4  C4  UNL     1      -9.406   0.015   3.491  1.00  0.00     0.070 A
HETATM    5  N2  UNL     1      -9.002   0.007   4.772  1.00  0.00    -0.343 N
ATOM      6  H2  UNL     1      -8.860  -0.870   5.274  1.00  0.00     0.167 HD
HETATM    7  C5  UNL     1      -8.791   1.189   5.369  1.00  0.00     0.130 A
HETATM    8  S1  UNL     1      -8.302   1.237   6.913  1.00  0.00    -0.058 SA
HETATM    9  C6  UNL     1      -8.973   2.418   4.721  1.00  0.00     0.102 A
HETATM   10  N3  UNL     1      -8.745   3.571   5.378  1.00  0.00    -0.336 N
ATOM     11  H3  UNL     1      -8.439   3.581   6.350  1.00  0.00     0.168 HD
HETATM   12  C7  UNL     1      -8.945   4.727   4.677  1.00  0.00     0.134 A
HETATM   13  N4  UNL     1      -8.811   6.020   5.029  1.00  0.00    -0.340 N
ATOM     14  H4  UNL     1      -8.514   6.342   5.950  1.00  0.00     0.167 HD
HETATM   15  C8  UNL     1      -9.121   6.830   4.001  1.00  0.00     0.046 A
HETATM   16  C9  UNL     1      -9.146   8.209   3.840  1.00  0.00     0.030 A
HETATM   17  C10 UNL     1      -9.509   8.800   2.657  1.00  0.00     0.002 A
HETATM   18  C11 UNL     1      -9.859   7.977   1.598  1.00  0.00     0.001 A
HETATM   19  C12 UNL     1      -9.846   6.607   1.716  1.00  0.00     0.016 A
HETATM   20  C13 UNL     1      -9.477   6.048   2.919  1.00  0.00     0.021 A
HETATM   21  C14 UNL     1      -9.361   4.738   3.363  1.00  0.00     0.090 A
HETATM   22  N5  UNL     1      -9.576   3.552   2.747  1.00  0.00    -0.348 N
ATOM     23  H5  UNL     1      -9.883   3.535   1.775  1.00  0.00     0.166 HD
HETATM   24  C15 UNL     1      -9.388   2.393   3.411  1.00  0.00     0.099 A
HETATM   25  C16 UNL     1      -9.609   1.176   2.782  1.00  0.00     0.133 A
HETATM   26  O1  UNL     1     -10.001   1.106   1.547  1.00  0.00    -0.290 OA
ENDROOT
BRANCH   1  27
HETATM   27  N1  UNL     1     -10.609  -0.069  -0.311  1.00  0.00    -0.380 N
ATOM     28  H12 UNL     1     -11.456   0.407  -0.623  1.00  0.00     0.158 HD
ATOM     29  H11 UNL     1     -10.047  -0.592  -0.982  1.00  0.00     0.158 HD
ENDBRANCH   1  27
TORSDOF 1
ENDMDL