MODEL 5
REMARK VINA RESULT: -8.310838846      3.499      6.634
REMARK  3 active torsions:
REMARK  status: ('A' for Active; 'I' for Inactive)
REMARK    1  A    between atoms: C2_2  and  C5_5
REMARK    2  A    between atoms: C8_8  and  N1_9
REMARK    3  A    between atoms: C12_16  and  N3_17
ROOT
HETATM    1  C5  UNL     1     -10.845   2.559   1.656  1.00  0.00    -0.032 A
HETATM    2  C6  UNL     1     -11.296   3.826   1.359  1.00  0.00     0.011 A
HETATM    3  C7  UNL     1     -10.782   4.841   2.139  1.00  0.00     0.031 A
HETATM    4  C8  UNL     1      -9.885   4.664   3.153  1.00  0.00     0.048 A
HETATM    5  C13 UNL     1      -9.416   3.369   3.467  1.00  0.00     0.032 A
HETATM    6  C14 UNL     1      -8.537   3.018   4.429  1.00  0.00     0.089 A
HETATM    7  C15 UNL     1      -7.888   3.962   5.354  1.00  0.00     0.103 C
HETATM    8  N4  UNL     1      -7.380   4.718   6.095  1.00  0.00    -0.191 NA
HETATM    9  C16 UNL     1      -8.233   1.688   4.544  1.00  0.00     0.109 A
HETATM   10  N5  UNL     1      -7.359   1.016   5.442  1.00  0.00    -0.093 NA
HETATM   11  S1  UNL     1      -9.173   0.968   3.320  1.00  0.00    -0.072 SA
HETATM   12  C17 UNL     1      -9.926   2.366   2.693  1.00  0.00     0.028 A
ENDROOT
BRANCH   4  13
HETATM   13  N1  UNL     1      -9.461   5.819   3.854  1.00  0.00    -0.321 N
HETATM   14  C9  UNL     1      -9.412   6.999   3.335  1.00  0.00     0.230 A
HETATM   15  N2  UNL     1      -8.988   7.998   4.126  1.00  0.00    -0.332 N
HETATM   16  O1  UNL     1      -9.750   7.253   2.097  1.00  0.00    -0.262 OA
HETATM   17  C10 UNL     1      -8.906   9.253   3.668  1.00  0.00     0.096 A
ATOM     18  H2  UNL     1      -8.723   7.797   5.091  1.00  0.00     0.168 HD
HETATM   19  C11 UNL     1      -9.258   9.522   2.373  1.00  0.00     0.073 A
HETATM   20  C12 UNL     1      -9.687   8.462   1.602  1.00  0.00     0.146 A
ATOM     21  H1  UNL     1      -9.178   5.713   4.828  1.00  0.00     0.169 HD
BRANCH  20  22
HETATM   22  N3  UNL     1     -10.020   8.727   0.375  1.00  0.00    -0.380 N
ATOM     23  H32 UNL     1     -10.106   9.683   0.028  1.00  0.00     0.158 HD
ATOM     24  H31 UNL     1     -10.194   7.931  -0.237  1.00  0.00     0.158 HD
ENDBRANCH  20  22
ENDBRANCH   4  13
BRANCH   1  25
HETATM   25  C2  UNL     1     -11.311   1.387   0.903  1.00  0.00    -0.023 C
HETATM   26  C1  UNL     1     -10.123   0.586   0.414  1.00  0.00     0.019 C
HETATM   27  C3  UNL     1     -12.098   1.789  -0.339  1.00  0.00     0.019 C
HETATM   28  C4  UNL     1     -12.135   0.524   1.822  1.00  0.00     0.019 C
ENDBRANCH   1  25
TORSDOF 3
ENDMDL