MODEL 5
REMARK VINA RESULT: -8.330428202      2.460      4.673
REMARK  5 active torsions:
REMARK  status: ('A' for Active; 'I' for Inactive)
REMARK    1  A    between atoms: C1_4  and  N2_5
REMARK    2  A    between atoms: C1_4  and  C4_16
REMARK       I    between atoms: N2_5  and  C2_7
REMARK    3  A    between atoms: N4_9  and  N5_11
REMARK    4  A    between atoms: C6_22  and  C7_23
REMARK    5  A    between atoms: N10_24  and  N11_26
ROOT
HETATM    1  C4  UNL     1       8.612  36.916  -0.577  1.00  0.00     0.152 A
HETATM    2  N8  UNL     1       9.684  37.007   0.236  1.00  0.00    -0.335 N
ATOM      3  H8  UNL     1      10.582  36.654  -0.096  1.00  0.00     0.168 HD
HETATM    4  C5  UNL     1       9.616  37.544   1.467  1.00  0.00     0.183 A
HETATM    5  N9  UNL     1       8.418  38.000   1.878  1.00  0.00    -0.337 N
ATOM      6  H9  UNL     1       8.348  38.411   2.809  1.00  0.00     0.168 HD
HETATM    7  C6  UNL     1       7.311  37.941   1.118  1.00  0.00     0.124 A
HETATM    8  N14 UNL     1       7.449  37.391  -0.103  1.00  0.00    -0.324 N
ATOM      9  H14 UNL     1       6.624  37.332  -0.701  1.00  0.00     0.169 HD
ENDROOT
BRANCH   1  10
HETATM   10  C1  UNL     1       8.738  36.326  -1.904  1.00  0.00     0.146 C
HETATM   11  N1  UNL     1       9.905  36.104  -2.390  1.00  0.00    -0.382 N
ATOM     12  H12 UNL     1       9.992  35.691  -3.319  1.00  0.00     0.157 HD
ATOM     13  H11 UNL     1      10.726  36.347  -1.836  1.00  0.00     0.157 HD
BRANCH  10  14
HETATM   14  N2  UNL     1       7.609  35.992  -2.666  1.00  0.00    -0.313 N
HETATM   15  C2  UNL     1       6.554  35.249  -2.095  1.00  0.00     0.208 C
HETATM   16  N3  UNL     1       5.309  35.863  -1.869  1.00  0.00    -0.062 NA
HETATM   17  N4  UNL     1       6.734  34.026  -1.786  1.00  0.00    -0.271 N
ATOM     18  H4  UNL     1       7.652  33.620  -1.967  1.00  0.00     0.189 HD
ATOM     19  H2  UNL     1       7.550  36.289  -3.641  1.00  0.00     0.170 HD
BRANCH  17  20
HETATM   20  N5  UNL     1       5.765  33.206  -1.220  1.00  0.00    -0.274 N
HETATM   21  C3  UNL     1       5.841  32.798   0.016  1.00  0.00     0.215 C
HETATM   22  N6  UNL     1       6.922  33.173   0.848  1.00  0.00    -0.065 NA
HETATM   23  N7  UNL     1       4.787  31.960   0.487  1.00  0.00    -0.065 NA
ATOM     24  H5  UNL     1       4.970  32.914  -1.789  1.00  0.00     0.189 HD
ENDBRANCH  17  20
ENDBRANCH  10  14
ENDBRANCH   1  10
BRANCH   7  25
HETATM   25  C7  UNL     1       6.017  38.437   1.571  1.00  0.00     0.155 C
HETATM   26  N10 UNL     1       5.620  39.619   1.345  1.00  0.00    -0.306 N
ATOM     27  H10 UNL     1       4.697  39.862   1.706  1.00  0.00     0.186 HD
BRANCH  26  28
HETATM   28  N11 UNL     1       6.291  40.610   0.668  1.00  0.00    -0.276 N
HETATM   29  C8  UNL     1       6.347  40.685  -0.630  1.00  0.00     0.215 C
HETATM   30  N12 UNL     1       7.067  41.748  -1.240  1.00  0.00    -0.065 NA
HETATM   31  N13 UNL     1       5.716  39.746  -1.487  1.00  0.00    -0.065 NA
ATOM     32  H11 UNL     1       6.772  41.326   1.213  1.00  0.00     0.189 HD
ENDBRANCH  26  28
ENDBRANCH   7  25
TORSDOF 5
ENDMDL