MODEL 3
REMARK VINA RESULT: -8.277340814      1.174      1.751
REMARK  8 active torsions:
REMARK  status: ('A' for Active; 'I' for Inactive)
REMARK    1  A    between atoms: C1_2  and  C2_4
REMARK    2  A    between atoms: C2_4  and  C3_5
REMARK    3  A    between atoms: C3_5  and  N2_6
REMARK    4  A    between atoms: N2_6  and  C4_8
REMARK    5  A    between atoms: C6_13  and  C7_14
REMARK    6  A    between atoms: N5_15  and  N6_17
REMARK       I    between atoms: N6_17  and  C8_19
REMARK    7  A    between atoms: N8_21  and  N9_23
REMARK    8  A    between atoms: N9_23  and  O2_25
ROOT
HETATM    1  C4  UNL     1       5.228  31.765  -2.111  1.00  0.00     0.682 A
HETATM    2  N3  UNL     1       5.479  31.873  -0.806  1.00  0.00    -0.178 N
ATOM      3  H3  UNL     1       5.318  31.062  -0.208  1.00  0.00     0.185 HD
HETATM    4  C5  UNL     1       5.937  33.009  -0.244  1.00  0.00     0.149 A
HETATM    5  N4  UNL     1       6.206  33.134   1.147  1.00  0.00    -0.081 NA
HETATM    6  C6  UNL     1       6.145  34.086  -1.080  1.00  0.00     0.091 A
HETATM    7  C9  UNL     1       5.891  33.993  -2.434  1.00  0.00     0.274 A
HETATM    8  O3  UNL     1       6.076  34.966  -3.209  1.00  0.00    -0.267 OA
HETATM    9  N10 UNL     1       5.434  32.819  -2.919  1.00  0.00    -0.155 N
ATOM     10  H10 UNL     1       5.241  32.730  -3.917  1.00  0.00     0.187 HD
ENDROOT
BRANCH   6  11
HETATM   11  C7  UNL     1       6.642  35.330  -0.488  1.00  0.00     0.127 C
HETATM   12  N5  UNL     1       5.782  36.228  -0.181  1.00  0.00    -0.308 N
ATOM     13  H5  UNL     1       4.797  36.038  -0.362  1.00  0.00     0.186 HD
BRANCH  12  14
HETATM   14  N6  UNL     1       6.127  37.458   0.390  1.00  0.00    -0.273 N
HETATM   15  C8  UNL     1       6.654  38.520  -0.388  1.00  0.00     0.223 C
HETATM   16  N7  UNL     1       6.187  38.748  -1.698  1.00  0.00    -0.061 NA
HETATM   17  N8  UNL     1       7.567  39.298   0.079  1.00  0.00    -0.253 N
ATOM     18  H8  UNL     1       7.923  40.052  -0.509  1.00  0.00     0.191 HD
ATOM     19  H6  UNL     1       5.996  37.594   1.392  1.00  0.00     0.189 HD
BRANCH  17  20
HETATM   20  N9  UNL     1       8.085  39.141   1.369  1.00  0.00    -0.208 N
ATOM     21  H9  UNL     1       8.853  38.484   1.508  1.00  0.00     0.215 HD
BRANCH  20  22
HETATM   22  O2  UNL     1       7.655  39.761   2.352  1.00  0.00    -0.274 OA
ATOM     23  H2  UNL     1       7.920  39.569   3.244  1.00  0.00     0.246 HD
ENDBRANCH  20  22
ENDBRANCH  17  20
ENDBRANCH  12  14
ENDBRANCH   6  11
BRANCH   1  24
HETATM   24  N2  UNL     1       4.798  30.685  -2.625  1.00  0.00    -0.225 N
ATOM     25  H2  UNL     1       4.668  30.631  -3.635  1.00  0.00     0.177 HD
BRANCH  24  26
HETATM   26  C3  UNL     1       4.490  29.543  -1.819  1.00  0.00     0.147 C
BRANCH  26  27
HETATM   27  C2  UNL     1       3.004  29.404  -1.552  1.00  0.00     0.119 C
BRANCH  27  28
HETATM   28  C1  UNL     1       2.692  29.738  -0.141  1.00  0.00     0.232 C
HETATM   29  N1  UNL     1       3.712  29.964   0.793  1.00  0.00    -0.062 NA
HETATM   30  O1  UNL     1       1.488  29.814   0.203  1.00  0.00    -0.277 OA
ENDBRANCH  27  28
ENDBRANCH  26  27
ENDBRANCH  24  26
ENDBRANCH   1  24
TORSDOF 8
ENDMDL