MODEL 3
REMARK VINA RESULT: -7.903724105      1.364      2.685
REMARK  9 active torsions:
REMARK  status: ('A' for Active; 'I' for Inactive)
REMARK    1  A    between atoms: N1_1  and  C1_4
REMARK    2  A    between atoms: N4_14  and  C5_15
REMARK    3  A    between atoms: C5_15  and  O3_16
REMARK    4  A    between atoms: O3_16  and  C6_17
REMARK    5  A    between atoms: C6_17  and  C7_18
REMARK    6  A    between atoms: C6_17  and  C8_21
REMARK    7  A    between atoms: C8_21  and  N6_22
REMARK    8  A    between atoms: C8_21  and  C9_26
REMARK    9  A    between atoms: C9_26  and  N7_27
ROOT
HETATM    1  C1  UNL     1       6.441  40.588  -0.642  1.00  0.00     0.680 A
HETATM    2  N2  UNL     1       7.395  41.370  -1.172  1.00  0.00    -0.154 N
ATOM      3  H2  UNL     1       7.547  42.304  -0.792  1.00  0.00     0.187 HD
HETATM    4  C2  UNL     1       8.154  40.939  -2.194  1.00  0.00     0.290 A
HETATM    5  O1  UNL     1       9.058  41.658  -2.710  1.00  0.00    -0.265 OA
HETATM    6  C3  UNL     1       7.970  39.672  -2.730  1.00  0.00     0.151 A
HETATM    7  N3  UNL     1       8.557  38.983  -3.726  1.00  0.00    -0.300 N
ATOM      8  H3  UNL     1       9.319  39.313  -4.318  1.00  0.00     0.171 HD
HETATM    9  C4  UNL     1       7.958  37.783  -3.799  1.00  0.00     0.330 A
HETATM   10  O2  UNL     1       8.277  36.873  -4.646  1.00  0.00    -0.246 OA
HETATM   11  N4  UNL     1       7.005  37.716  -2.861  1.00  0.00    -0.260 N
HETATM   12  C10 UNL     1       6.988  38.865  -2.186  1.00  0.00     0.161 A
HETATM   13  N8  UNL     1       6.243  39.349  -1.147  1.00  0.00    -0.174 N
ATOM     14  H8  UNL     1       5.517  38.758  -0.740  1.00  0.00     0.186 HD
ENDROOT
BRANCH  11  15
HETATM   15  C5  UNL     1       6.161  36.560  -2.659  1.00  0.00     0.306 C
BRANCH  15  16
HETATM   16  O3  UNL     1       6.844  35.476  -2.175  1.00  0.00    -0.355 OA
BRANCH  16  17
HETATM   17  C6  UNL     1       6.330  35.178  -0.886  1.00  0.00     0.244 C
BRANCH  17  18
HETATM   18  C7  UNL     1       7.110  35.879   0.142  1.00  0.00     0.262 C
HETATM   19  N5  UNL     1       6.623  36.933   0.937  1.00  0.00    -0.060 NA
HETATM   20  O4  UNL     1       8.315  35.526   0.348  1.00  0.00    -0.274 OA
ENDBRANCH  17  18
BRANCH  17  21
HETATM   21  C8  UNL     1       6.275  33.683  -0.734  1.00  0.00     0.246 C
BRANCH  21  22
HETATM   22  N6  UNL     1       6.113  33.252   0.641  1.00  0.00    -0.070 N
ATOM     23  H63 UNL     1       6.993  33.330   1.151  1.00  0.00     0.274 HD
ATOM     24  H62 UNL     1       5.553  33.922   1.168  1.00  0.00     0.274 HD
ATOM     25  H61 UNL     1       5.727  32.311   0.726  1.00  0.00     0.274 HD
ENDBRANCH  21  22
BRANCH  21  26
HETATM   26  C9  UNL     1       5.293  32.988  -1.605  1.00  0.00     0.265 C
BRANCH  26  27
HETATM   27  N7  UNL     1       5.780  32.926  -3.001  1.00  0.00    -0.077 N
ATOM     28  H73 UNL     1       5.040  32.649  -3.646  1.00  0.00     0.274 HD
ATOM     29  H72 UNL     1       5.971  33.855  -3.375  1.00  0.00     0.274 HD
ATOM     30  H71 UNL     1       6.592  32.314  -3.074  1.00  0.00     0.274 HD
ENDBRANCH  26  27
ENDBRANCH  21  26
ENDBRANCH  17  21
ENDBRANCH  16  17
ENDBRANCH  15  16
ENDBRANCH  11  15
BRANCH   1  31
HETATM   31  N1  UNL     1       5.743  41.045   0.336  1.00  0.00    -0.234 N
ATOM     32  H12 UNL     1       4.749  40.838   0.436  1.00  0.00     0.174 HD
ATOM     33  H11 UNL     1       6.203  41.633   1.031  1.00  0.00     0.174 HD
ENDBRANCH   1  31
TORSDOF 9
ENDMDL