MODEL 5
REMARK VINA RESULT: -7.282669269      2.250      3.885
REMARK  10 active torsions:
REMARK  status: ('A' for Active; 'I' for Inactive)
REMARK    1  A    between atoms: C2_2  and  N1_3
REMARK    2  A    between atoms: N1_3  and  C3_5
REMARK    3  A    between atoms: N3_9  and  N4_11
REMARK    4  A    between atoms: N5_14  and  C5_15
REMARK    5  A    between atoms: C5_15  and  C6_16
REMARK    6  A    between atoms: C7_19  and  N7_20
REMARK    7  A    between atoms: C8_27  and  N10_28
REMARK    8  A    between atoms: N10_28  and  C9_30
REMARK    9  A    between atoms: C9_30  and  C10_31
REMARK   10  A    between atoms: C10_31  and  O1_32
ROOT
HETATM    1  C3  UNL     1       7.457  37.211  -3.882  1.00  0.00     0.707 A
HETATM    2  N2  UNL     1       7.811  38.443  -3.479  1.00  0.00    -0.020 N
ATOM      3  H2  UNL     1       7.908  39.198  -4.158  1.00  0.00     0.203 HD
HETATM    4  C4  UNL     1       8.034  38.674  -2.181  1.00  0.00     0.728 A
HETATM    5  N3  UNL     1       8.372  39.862  -1.780  1.00  0.00    -0.137 N
ATOM      6  H3  UNL     1       8.537  40.018  -0.786  1.00  0.00     0.205 HD
HETATM    7  N5  UNL     1       7.905  37.661  -1.259  1.00  0.00    -0.005 N
HETATM    8  C8  UNL     1       7.551  36.417  -1.619  1.00  0.00     0.710 A
HETATM    9  N11 UNL     1       7.333  36.242  -2.987  1.00  0.00    -0.021 N
ATOM     10  H11 UNL     1       7.063  35.315  -3.315  1.00  0.00     0.203 HD
ENDROOT
BRANCH   7  11
HETATM   11  C5  UNL     1       8.181  38.024   0.124  1.00  0.00     0.245 C
BRANCH  11  12
HETATM   12  C6  UNL     1       6.968  38.474   0.847  1.00  0.00     0.132 A
HETATM   13  N6  UNL     1       6.817  39.723   1.393  1.00  0.00    -0.177 N
HETATM   14  C7  UNL     1       5.625  39.824   1.984  1.00  0.00     0.691 A
ATOM     15  H6  UNL     1       7.514  40.467   1.352  1.00  0.00     0.185 HD
HETATM   16  N8  UNL     1       5.013  38.654   1.822  1.00  0.00    -0.131 N
HETATM   17  N9  UNL     1       5.833  37.840   1.131  1.00  0.00    -0.273 N
ATOM     18  H8  UNL     1       4.082  38.416   2.162  1.00  0.00     0.205 HD
ATOM     19  H9  UNL     1       5.616  36.879   0.866  1.00  0.00     0.189 HD
BRANCH  14  20
HETATM   20  N7  UNL     1       5.140  40.853   2.600  1.00  0.00    -0.233 N
ATOM     21  H72 UNL     1       5.683  41.573   3.078  1.00  0.00     0.174 HD
ATOM     22  H71 UNL     1       4.157  41.103   2.707  1.00  0.00     0.174 HD
ENDBRANCH  14  20
ENDBRANCH  11  12
ENDBRANCH   7  11
BRANCH   8  23
HETATM   23  N10 UNL     1       7.330  35.447  -0.899  1.00  0.00    -0.223 N
ATOM     24  H10 UNL     1       8.104  35.403  -0.237  1.00  0.00     0.177 HD
BRANCH  23  25
HETATM   25  C9  UNL     1       6.514  34.407  -0.592  1.00  0.00     0.164 C
BRANCH  25  26
HETATM   26  C10 UNL     1       6.882  33.718   0.736  1.00  0.00     0.184 C
BRANCH  26  27
HETATM   27  O1  UNL     1       5.795  32.955   1.147  1.00  0.00    -0.399 OA
ATOM     28  H1  UNL     1       6.107  32.083   1.358  1.00  0.00     0.209 HD
ENDBRANCH  26  27
ENDBRANCH  25  26
ENDBRANCH  23  25
ENDBRANCH   8  23
BRANCH   5  29
HETATM   29  N4  UNL     1       8.515  40.930  -2.665  1.00  0.00    -0.331 N
ATOM     30  H42 UNL     1       9.418  41.403  -2.702  1.00  0.00     0.177 HD
ATOM     31  H41 UNL     1       7.752  41.243  -3.265  1.00  0.00     0.177 HD
ENDBRANCH   5  29
BRANCH   1  32
HETATM   32  N1  UNL     1       7.231  36.937  -5.130  1.00  0.00    -0.225 N
ATOM     33  H1  UNL     1       7.930  36.455  -5.696  1.00  0.00     0.177 HD
BRANCH  32  34
HETATM   34  C2  UNL     1       5.962  37.333  -5.697  1.00  0.00     0.133 C
HETATM   35  C1  UNL     1       5.969  36.965  -7.166  1.00  0.00     0.027 C
ENDBRANCH  32  34
ENDBRANCH   1  32
TORSDOF 10
ENDMDL