MODEL 4
REMARK VINA RESULT: -7.539145250      3.760      6.368
REMARK  8 active torsions:
REMARK  status: ('A' for Active; 'I' for Inactive)
REMARK    1  A    between atoms: N2_5  and  C3_6
REMARK    2  A    between atoms: C3_6  and  C4_7
REMARK    3  A    between atoms: C4_7  and  O2_8
REMARK    4  A    between atoms: O2_8  and  C5_9
REMARK    5  A    between atoms: C5_9  and  C6_10
REMARK    6  A    between atoms: C6_10  and  O3_11
REMARK    7  A    between atoms: C8_16  and  N4_17
REMARK    8  A    between atoms: C9_22  and  N6_23
REMARK       I    between atoms: N6_23  and  C10_25
ROOT
HETATM    1  C1  UNL     1       6.148  35.819  -0.230  1.00  0.00     0.161 C
HETATM    2  N1  UNL     1       6.509  36.575  -1.434  1.00  0.00    -0.297 N
HETATM    3  C2  UNL     1       6.460  36.165  -2.706  1.00  0.00     0.330 A
HETATM    4  O1  UNL     1       6.075  35.010  -3.034  1.00  0.00    -0.246 OA
HETATM    5  N2  UNL     1       6.870  37.140  -3.535  1.00  0.00    -0.281 N
HETATM    6  C7  UNL     1       7.182  38.184  -2.774  1.00  0.00     0.158 A
HETATM    7  N3  UNL     1       7.641  39.412  -3.061  1.00  0.00    -0.174 N
ATOM      8  H3  UNL     1       7.809  39.674  -4.033  1.00  0.00     0.186 HD
HETATM    9  C8  UNL     1       7.882  40.299  -2.082  1.00  0.00     0.679 A
HETATM   10  N5  UNL     1       7.663  39.964  -0.777  1.00  0.00    -0.174 N
ATOM     11  H5  UNL     1       7.851  40.654  -0.049  1.00  0.00     0.186 HD
HETATM   12  C9  UNL     1       7.204  38.748  -0.423  1.00  0.00     0.154 A
HETATM   13  C11 UNL     1       6.959  37.841  -1.435  1.00  0.00     0.128 A
ENDROOT
BRANCH   5  14
HETATM   14  C3  UNL     1       6.942  37.034  -4.982  1.00  0.00     0.162 C
BRANCH  14  15
HETATM   15  C4  UNL     1       5.690  37.510  -5.626  1.00  0.00     0.188 C
BRANCH  15  16
HETATM   16  O2  UNL     1       5.494  36.888  -6.847  1.00  0.00    -0.387 OA
BRANCH  16  17
HETATM   17  C5  UNL     1       6.630  36.587  -7.549  1.00  0.00     0.193 C
BRANCH  17  18
HETATM   18  C6  UNL     1       6.328  35.293  -8.324  1.00  0.00     0.190 C
BRANCH  18  19
HETATM   19  O3  UNL     1       7.450  34.891  -9.011  1.00  0.00    -0.399 OA
ATOM     20  H3  UNL     1       7.257  34.106  -9.510  1.00  0.00     0.209 HD
ENDBRANCH  18  19
ENDBRANCH  17  18
ENDBRANCH  16  17
ENDBRANCH  15  16
ENDBRANCH  14  15
ENDBRANCH   5  14
BRANCH   9  21
HETATM   21  N4  UNL     1       8.323  41.492  -2.313  1.00  0.00    -0.234 N
ATOM     22  H42 UNL     1       8.136  41.881  -3.237  1.00  0.00     0.174 HD
ATOM     23  H41 UNL     1       8.837  42.033  -1.617  1.00  0.00     0.174 HD
ENDBRANCH   9  21
BRANCH  12  24
HETATM   24  N6  UNL     1       6.997  38.436   0.832  1.00  0.00    -0.315 N
HETATM   25  C10 UNL     1       6.925  39.407   1.836  1.00  0.00     0.187 C
HETATM   26  N7  UNL     1       5.782  39.916   2.143  1.00  0.00    -0.373 N
HETATM   27  N8  UNL     1       8.094  39.824   2.509  1.00  0.00    -0.064 NA
ATOM     28  H72 UNL     1       4.937  39.614   1.657  1.00  0.00     0.158 HD
ATOM     29  H71 UNL     1       5.729  40.624   2.876  1.00  0.00     0.158 HD
ATOM     30  H6  UNL     1       6.886  37.454   1.084  1.00  0.00     0.170 HD
ENDBRANCH  12  24
TORSDOF 8
ENDMDL