MODEL 1
REMARK VINA RESULT: -7.713449908      0.000      0.000
REMARK  8 active torsions:
REMARK  status: ('A' for Active; 'I' for Inactive)
REMARK       I    between atoms: C2_5  and  N4_7
REMARK    1  A    between atoms: N4_7  and  C3_9
REMARK    2  A    between atoms: C3_9  and  C4_10
REMARK    3  A    between atoms: C4_10  and  N5_11
REMARK    4  A    between atoms: N5_11  and  C5_13
REMARK    5  A    between atoms: C6_16  and  C7_17
REMARK       I    between atoms: C7_17  and  N7_19
REMARK    6  A    between atoms: N7_19  and  N8_21
REMARK    7  A    between atoms: C8_24  and  N9_25
REMARK    8  A    between atoms: C9_28  and  N10_29
ROOT
HETATM    1  N1  UNL     1       5.110  39.100   2.244  1.00  0.00    -0.172 NA
HETATM    2  C1  UNL     1       5.649  39.854   1.543  1.00  0.00     0.184 C
HETATM    3  N2  UNL     1       6.310  40.744   0.688  1.00  0.00    -0.268 N
ATOM      4  H2  UNL     1       6.860  41.511   1.074  1.00  0.00     0.180 HD
HETATM    5  C2  UNL     1       6.221  40.590  -0.587  1.00  0.00     0.197 C
HETATM    6  N3  UNL     1       5.458  39.527  -1.133  1.00  0.00    -0.063 NA
HETATM    7  N4  UNL     1       6.911  41.515  -1.445  1.00  0.00    -0.362 N
ATOM      8  H4  UNL     1       7.083  42.484  -1.176  1.00  0.00     0.162 HD
ENDROOT
BRANCH   7   9
HETATM    9  C3  UNL     1       7.342  40.980  -2.707  1.00  0.00     0.142 C
BRANCH   9  10
HETATM   10  C4  UNL     1       8.587  40.127  -2.621  1.00  0.00     0.157 C
BRANCH  10  11
HETATM   11  N5  UNL     1       8.187  38.780  -2.937  1.00  0.00    -0.224 N
ATOM     12  H5  UNL     1       8.143  38.515  -3.921  1.00  0.00     0.177 HD
BRANCH  11  13
HETATM   13  C5  UNL     1       7.885  37.897  -2.071  1.00  0.00     0.680 A
HETATM   14  N6  UNL     1       7.062  36.898  -2.370  1.00  0.00    -0.184 N
HETATM   15  C6  UNL     1       6.754  35.963  -1.422  1.00  0.00     0.155 A
ATOM     16  H6  UNL     1       6.661  36.829  -3.305  1.00  0.00     0.184 HD
HETATM   17  C8  UNL     1       7.295  36.059  -0.164  1.00  0.00     0.179 A
HETATM   18  C9  UNL     1       8.148  37.112   0.111  1.00  0.00     0.150 A
HETATM   19  N11 UNL     1       8.423  38.007  -0.851  1.00  0.00    -0.175 N
ATOM     20  H11 UNL     1       9.052  38.783  -0.648  1.00  0.00     0.186 HD
BRANCH  15  21
HETATM   21  C7  UNL     1       5.865  34.880  -1.797  1.00  0.00     0.289 C
HETATM   22  O1  UNL     1       4.723  34.827  -1.296  1.00  0.00    -0.264 OA
HETATM   23  N7  UNL     1       6.252  33.883  -2.710  1.00  0.00    -0.271 N
ATOM     24  H7  UNL     1       7.176  33.893  -3.141  1.00  0.00     0.189 HD
BRANCH  23  25
HETATM   25  N8  UNL     1       5.309  32.859  -3.014  1.00  0.00    -0.342 N
ATOM     26  H82 UNL     1       4.320  33.086  -3.114  1.00  0.00     0.176 HD
ATOM     27  H81 UNL     1       5.660  31.907  -3.125  1.00  0.00     0.176 HD
ENDBRANCH  23  25
ENDBRANCH  15  21
BRANCH  17  28
HETATM   28  N9  UNL     1       6.999  35.120   0.832  1.00  0.00    -0.109 N
HETATM   29  O2  UNL     1       6.139  35.368   1.729  1.00  0.00    -0.532 OA
HETATM   30  O3  UNL     1       7.629  33.905   0.924  1.00  0.00    -0.532 OA
ENDBRANCH  17  28
BRANCH  18  31
HETATM   31  N10 UNL     1       8.641  37.178   1.297  1.00  0.00    -0.383 N
ATOM     32 2H10 UNL     1       8.323  36.590   2.068  1.00  0.00     0.157 HD
ATOM     33 1H10 UNL     1       9.386  37.855   1.457  1.00  0.00     0.157 HD
ENDBRANCH  18  31
ENDBRANCH  11  13
ENDBRANCH  10  11
ENDBRANCH   9  10
ENDBRANCH   7   9
TORSDOF 8
ENDMDL