MODEL 2
REMARK VINA RESULT: -8.171031955      0.771      2.522
REMARK  8 active torsions:
REMARK  status: ('A' for Active; 'I' for Inactive)
REMARK    1  A    between atoms: C6_13  and  N5_14
REMARK    2  A    between atoms: N5_14  and  C7_16
REMARK    3  A    between atoms: C7_16  and  C8_17
REMARK    4  A    between atoms: C8_17  and  C9_18
REMARK    5  A    between atoms: C9_18  and  N6_19
REMARK    6  A    between atoms: N6_19  and  C10_21
REMARK    7  A    between atoms: C11_24  and  N8_25
REMARK    8  A    between atoms: C12_30  and  N10_31
ROOT
HETATM    1  C9  UNL     1       6.225  37.066  -3.578  1.00  0.00     0.139 C
ENDROOT
BRANCH   1   2
HETATM    2  C8  UNL     1       7.745  37.175  -3.708  1.00  0.00     0.040 C
BRANCH   2   3
HETATM    3  C7  UNL     1       8.149  38.635  -3.686  1.00  0.00     0.123 C
BRANCH   3   4
HETATM    4  N5  UNL     1       8.533  39.053  -2.359  1.00  0.00    -0.376 N
ATOM      5  H5  UNL     1       9.456  38.793  -2.012  1.00  0.00     0.161 HD
BRANCH   4   6
HETATM    6  C6  UNL     1       7.665  39.823  -1.504  1.00  0.00     0.113 A
HETATM    7  C3  UNL     1       7.356  39.393  -0.293  1.00  0.00     0.069 A
HETATM    8  C2  UNL     1       7.679  38.293   0.434  1.00  0.00     0.126 A
HETATM    9  C4  UNL     1       6.510  40.223   0.450  1.00  0.00     0.134 A
HETATM   10  N2  UNL     1       7.054  38.423   1.605  1.00  0.00    -0.307 N
HETATM   11  N1  UNL     1       6.363  39.552   1.630  1.00  0.00    -0.281 N
ATOM     12  H2  UNL     1       7.102  37.751   2.371  1.00  0.00     0.186 HD
HETATM   13  C1  UNL     1       5.559  40.026   2.738  1.00  0.00     0.179 C
HETATM   14  N3  UNL     1       6.051  41.330   0.002  1.00  0.00    -0.358 N
HETATM   15  C5  UNL     1       6.317  41.889  -1.289  1.00  0.00     0.246 A
ATOM     16  H3  UNL     1       5.440  41.862   0.621  1.00  0.00     0.162 HD
HETATM   17  N4  UNL     1       7.185  41.038  -2.043  1.00  0.00    -0.360 N
ATOM     18  H4  UNL     1       7.462  41.313  -2.985  1.00  0.00     0.162 HD
ENDBRANCH   4   6
ENDBRANCH   3   4
ENDBRANCH   2   3
ENDBRANCH   1   2
BRANCH   1  19
HETATM   19  N6  UNL     1       5.867  36.637  -2.264  1.00  0.00    -0.225 N
ATOM     20  H6  UNL     1       5.604  37.362  -1.596  1.00  0.00     0.177 HD
BRANCH  19  21
HETATM   21  C10 UNL     1       5.844  35.420  -1.844  1.00  0.00     0.707 A
HETATM   22  N7  UNL     1       5.605  34.372  -2.675  1.00  0.00    -0.022 N
HETATM   23  C11 UNL     1       5.598  33.110  -2.231  1.00  0.00     0.705 A
ATOM     24  H7  UNL     1       5.425  34.552  -3.663  1.00  0.00     0.203 HD
HETATM   25  N9  UNL     1       5.830  32.858  -0.943  1.00  0.00    -0.022 N
HETATM   26  C12 UNL     1       6.071  33.864  -0.087  1.00  0.00     0.705 A
ATOM     27  H9  UNL     1       5.824  31.896  -0.605  1.00  0.00     0.203 HD
HETATM   28  N11 UNL     1       6.076  35.139  -0.544  1.00  0.00    -0.022 N
ATOM     29  H11 UNL     1       6.259  35.902   0.108  1.00  0.00     0.203 HD
BRANCH  23  30
HETATM   30  N8  UNL     1       5.366  32.106  -3.034  1.00  0.00    -0.234 N
ATOM     31  H82 UNL     1       5.949  31.998  -3.863  1.00  0.00     0.174 HD
ATOM     32  H81 UNL     1       4.620  31.436  -2.847  1.00  0.00     0.174 HD
ENDBRANCH  23  30
BRANCH  26  33
HETATM   33  N10 UNL     1       6.319  33.631   1.171  1.00  0.00    -0.234 N
ATOM     34 2H10 UNL     1       5.691  33.030   1.704  1.00  0.00     0.174 HD
ATOM     35 1H10 UNL     1       7.123  34.052   1.635  1.00  0.00     0.174 HD
ENDBRANCH  26  33
ENDBRANCH  19  21
ENDBRANCH   1  19
TORSDOF 8
ENDMDL