MODEL 4
REMARK VINA RESULT: -8.132990937      3.387      6.873
REMARK  6 active torsions:
REMARK  status: ('A' for Active; 'I' for Inactive)
REMARK    1  A    between atoms: N1_1  and  C1_4
REMARK    2  A    between atoms: C2_9  and  C3_10
REMARK    3  A    between atoms: N4_11  and  N5_13
REMARK       I    between atoms: N5_13  and  C4_15
REMARK    4  A    between atoms: C4_15  and  C5_17
REMARK    5  A    between atoms: C5_17  and  C6_18
REMARK    6  A    between atoms: C6_18  and  N6_19
ROOT
HETATM    1  C3  UNL     1       6.070  33.292  -0.158  1.00  0.00     0.143 C
HETATM    2  N4  UNL     1       6.050  34.494  -0.311  1.00  0.00    -0.307 N
ATOM      3  H4  UNL     1       6.591  34.870   0.467  1.00  0.00     0.186 HD
ENDROOT
BRANCH   2   4
HETATM    4  N5  UNL     1       5.660  35.557  -1.007  1.00  0.00    -0.270 N
HETATM    5  C4  UNL     1       6.555  36.195  -1.921  1.00  0.00     0.240 C
HETATM    6  O1  UNL     1       7.713  35.758  -2.073  1.00  0.00    -0.271 OA
ATOM      7  H5  UNL     1       4.715  35.921  -0.887  1.00  0.00     0.190 HD
BRANCH   5   8
HETATM    8  C5  UNL     1       6.119  37.387  -2.701  1.00  0.00     0.149 C
BRANCH   8   9
HETATM    9  C6  UNL     1       7.039  38.524  -2.379  1.00  0.00     0.073 C
BRANCH   9  10
HETATM   10  N6  UNL     1       7.514  38.544  -1.079  1.00  0.00    -0.341 N
HETATM   11  C7  UNL     1       7.312  39.222  -0.057  1.00  0.00     0.192 C
HETATM   12  N7  UNL     1       6.443  40.317   0.164  1.00  0.00    -0.346 N
HETATM   13  N9  UNL     1       7.963  39.011   1.218  1.00  0.00    -0.274 N
HETATM   14  C8  UNL     1       6.084  40.247   1.578  1.00  0.00     0.259 C
ATOM     15  H7  UNL     1       6.134  41.008  -0.518  1.00  0.00     0.163 HD
HETATM   16  N8  UNL     1       7.225  39.612   2.207  1.00  0.00    -0.119 NA
ATOM     17  H9  UNL     1       8.833  38.496   1.359  1.00  0.00     0.185 HD
ATOM     18  H6  UNL     1       8.208  37.814  -0.918  1.00  0.00     0.168 HD
ENDBRANCH   9  10
ENDBRANCH   8   9
ENDBRANCH   5   8
ENDBRANCH   2   4
BRANCH   1  19
HETATM   19  C2  UNL     1       5.504  32.179  -0.892  1.00  0.00     0.134 A
HETATM   20  N3  UNL     1       4.991  31.088  -0.242  1.00  0.00    -0.280 N
HETATM   21  N2  UNL     1       4.469  30.056  -0.872  1.00  0.00    -0.132 N
ATOM     22  H3  UNL     1       5.014  31.074   0.777  1.00  0.00     0.188 HD
HETATM   23  C1  UNL     1       4.422  30.045  -2.215  1.00  0.00     0.693 A
ATOM     24  H2  UNL     1       4.101  29.266  -0.341  1.00  0.00     0.205 HD
HETATM   25  N10 UNL     1       4.901  31.070  -2.936  1.00  0.00    -0.153 N
HETATM   26  C9  UNL     1       5.439  32.130  -2.249  1.00  0.00     0.289 A
ATOM     27  H10 UNL     1       4.866  31.062  -3.956  1.00  0.00     0.187 HD
HETATM   28  O2  UNL     1       5.865  33.049  -2.969  1.00  0.00    -0.265 OA
BRANCH  23  29
HETATM   29  N1  UNL     1       3.912  29.037  -2.833  1.00  0.00    -0.233 N
ATOM     30  H12 UNL     1       2.996  28.696  -2.543  1.00  0.00     0.174 HD
ATOM     31  H11 UNL     1       4.423  28.596  -3.598  1.00  0.00     0.174 HD
ENDBRANCH  23  29
ENDBRANCH   1  19
TORSDOF 6
ENDMDL