MODEL 2
REMARK VINA RESULT: -7.593914310      2.900      5.546
REMARK  9 active torsions:
REMARK  status: ('A' for Active; 'I' for Inactive)
REMARK    1  A    between atoms: N1_1  and  C1_4
REMARK    2  A    between atoms: N3_8  and  C3_10
REMARK    3  A    between atoms: C3_10  and  N4_11
REMARK    4  A    between atoms: N7_23  and  C7_24
REMARK    5  A    between atoms: C7_24  and  C8_25
REMARK    6  A    between atoms: C8_25  and  O2_26
REMARK    7  A    between atoms: O2_26  and  C9_27
REMARK       I    between atoms: C9_27  and  N8_29
REMARK    8  A    between atoms: N8_29  and  C10_31
REMARK    9  A    between atoms: C10_31  and  N9_32
ROOT
HETATM    1  C1  UNL     1       8.023  40.342  -2.235  1.00  0.00     0.679 A
HETATM    2  N2  UNL     1       7.783  40.089  -0.940  1.00  0.00    -0.175 N
ATOM      3  H2  UNL     1       7.975  40.819  -0.255  1.00  0.00     0.186 HD
HETATM    4  C2  UNL     1       7.299  38.912  -0.511  1.00  0.00     0.149 A
HETATM    5  N3  UNL     1       7.070  38.661   0.727  1.00  0.00    -0.351 N
ATOM      6  H3  UNL     1       6.701  37.749   0.999  1.00  0.00     0.162 HD
HETATM    7  C4  UNL     1       7.041  37.931  -1.447  1.00  0.00     0.128 A
HETATM    8  C5  UNL     1       7.291  38.194  -2.805  1.00  0.00     0.156 A
HETATM    9  N5  UNL     1       7.775  39.400  -3.137  1.00  0.00    -0.174 N
ATOM     10  H5  UNL     1       7.961  39.601  -4.120  1.00  0.00     0.186 HD
HETATM   11  N6  UNL     1       6.969  37.100  -3.528  1.00  0.00    -0.292 N
ATOM     12  H6  UNL     1       7.050  37.008  -4.541  1.00  0.00     0.172 HD
HETATM   13  C6  UNL     1       6.526  36.157  -2.689  1.00  0.00     0.328 A
HETATM   14  O1  UNL     1       6.123  34.992  -2.929  1.00  0.00    -0.246 OA
HETATM   15  N7  UNL     1       6.573  36.672  -1.421  1.00  0.00    -0.291 N
ENDROOT
BRANCH  15  16
HETATM   16  C7  UNL     1       6.167  35.950  -0.244  1.00  0.00     0.161 C
BRANCH  16  17
HETATM   17  C8  UNL     1       7.331  35.221   0.374  1.00  0.00     0.200 C
BRANCH  17  18
HETATM   18  O2  UNL     1       6.951  33.999   0.958  1.00  0.00    -0.302 OA
BRANCH  18  19
HETATM   19  C9  UNL     1       6.132  33.077   0.349  1.00  0.00     0.361 C
HETATM   20  O3  UNL     1       5.378  32.407   1.124  1.00  0.00    -0.238 OA
HETATM   21  N8  UNL     1       6.094  32.854  -1.049  1.00  0.00    -0.313 N
ATOM     22  H8  UNL     1       6.696  33.391  -1.672  1.00  0.00     0.166 HD
BRANCH  21  23
HETATM   23  C10 UNL     1       5.193  31.858  -1.585  1.00  0.00     0.356 C
BRANCH  23  24
HETATM   24  N9  UNL     1       5.252  31.957  -3.037  1.00  0.00    -0.063 N
ATOM     25  H93 UNL     1       5.148  32.914  -3.376  1.00  0.00     0.276 HD
ATOM     26  H92 UNL     1       6.185  31.786  -3.410  1.00  0.00     0.276 HD
ATOM     27  H91 UNL     1       4.549  31.321  -3.413  1.00  0.00     0.276 HD
ENDBRANCH  23  24
ENDBRANCH  21  23
ENDBRANCH  18  19
ENDBRANCH  17  18
ENDBRANCH  16  17
ENDBRANCH  15  16
BRANCH   5  28
HETATM   28  C3  UNL     1       7.331  39.662   1.736  1.00  0.00     0.353 C
BRANCH  28  29
HETATM   29  N4  UNL     1       6.118  40.255   2.263  1.00  0.00    -0.064 N
ATOM     30  H43 UNL     1       5.475  40.503   1.510  1.00  0.00     0.276 HD
ATOM     31  H42 UNL     1       5.550  39.559   2.743  1.00  0.00     0.276 HD
ATOM     32  H41 UNL     1       6.302  41.057   2.866  1.00  0.00     0.276 HD
ENDBRANCH  28  29
ENDBRANCH   5  28
BRANCH   1  33
HETATM   33  N1  UNL     1       8.495  41.503  -2.618  1.00  0.00    -0.234 N
ATOM     34  H12 UNL     1       8.525  42.281  -1.959  1.00  0.00     0.174 HD
ATOM     35  H11 UNL     1       8.835  41.642  -3.569  1.00  0.00     0.174 HD
ENDBRANCH   1  33
TORSDOF 9
ENDMDL