MODEL 4
REMARK VINA RESULT: -7.750697415      1.825      3.857
REMARK  8 active torsions:
REMARK  status: ('A' for Active; 'I' for Inactive)
REMARK       I    between atoms: N1_2  and  C2_4
REMARK       I    between atoms: C2_4  and  N3_8
REMARK    1  A    between atoms: N3_8  and  C3_10
REMARK    2  A    between atoms: C3_10  and  C4_11
REMARK    3  A    between atoms: C4_11  and  C5_12
REMARK    4  A    between atoms: C5_12  and  N4_13
REMARK    5  A    between atoms: N4_13  and  C6_15
REMARK    6  A    between atoms: C10_24  and  C11_25
REMARK    7  A    between atoms: C11_25  and  O2_26
REMARK    8  A    between atoms: N8_29  and  N9_30
ROOT
HETATM    1  C6  UNL     1       7.222  38.190   0.991  1.00  0.00     0.717 A
HETATM    2  N5  UNL     1       6.320  38.760   1.810  1.00  0.00    -0.151 N
ATOM      3  H5  UNL     1       6.038  38.277   2.664  1.00  0.00     0.188 HD
HETATM    4  C7  UNL     1       5.788  39.954   1.520  1.00  0.00     0.290 A
HETATM    5  O1  UNL     1       4.946  40.531   2.247  1.00  0.00    -0.265 OA
HETATM    6  C8  UNL     1       6.201  40.587   0.336  1.00  0.00     0.144 A
HETATM    7  C9  UNL     1       5.861  41.787  -0.242  1.00  0.00     0.127 A
HETATM    8  N6  UNL     1       6.569  41.881  -1.374  1.00  0.00    -0.350 N
ATOM      9  H6  UNL     1       6.532  42.665  -2.024  1.00  0.00     0.166 HD
HETATM   10  C10 UNL     1       7.348  40.769  -1.527  1.00  0.00     0.130 A
HETATM   11  N7  UNL     1       7.111  39.975  -0.458  1.00  0.00    -0.199 N
HETATM   12  N8  UNL     1       7.622  38.797  -0.151  1.00  0.00    -0.018 N
ENDROOT
BRANCH   1  13
HETATM   13  N4  UNL     1       7.735  37.047   1.264  1.00  0.00    -0.223 N
ATOM     14  H4  UNL     1       8.724  36.972   1.500  1.00  0.00     0.177 HD
BRANCH  13  15
HETATM   15  C5  UNL     1       6.900  35.857   1.236  1.00  0.00     0.140 C
BRANCH  15  16
HETATM   16  C4  UNL     1       7.410  34.934   0.156  1.00  0.00     0.040 C
BRANCH  16  17
HETATM   17  C3  UNL     1       6.272  34.437  -0.704  1.00  0.00     0.139 C
BRANCH  17  18
HETATM   18  N3  UNL     1       6.565  34.702  -2.097  1.00  0.00    -0.227 N
HETATM   19  C2  UNL     1       6.471  36.038  -2.631  1.00  0.00     0.667 C
HETATM   20  N1  UNL     1       7.329  36.451  -3.678  1.00  0.00    -0.231 N
HETATM   21  N2  UNL     1       5.594  36.828  -2.127  1.00  0.00    -0.235 N
HETATM   22  C1  UNL     1       6.834  37.389  -4.664  1.00  0.00     0.165 C
ATOM     23  H1  UNL     1       8.282  36.092  -3.738  1.00  0.00     0.177 HD
ATOM     24  H22 UNL     1       5.527  37.773  -2.504  1.00  0.00     0.174 HD
ATOM     25  H21 UNL     1       4.976  36.531  -1.371  1.00  0.00     0.174 HD
ATOM     26  H3  UNL     1       6.842  33.934  -2.709  1.00  0.00     0.177 HD
ENDBRANCH  17  18
ENDBRANCH  16  17
ENDBRANCH  15  16
ENDBRANCH  13  15
ENDBRANCH   1  13
BRANCH  12  27
HETATM   27  N9  UNL     1       8.555  38.223  -1.009  1.00  0.00    -0.308 N
ATOM     28  H92 UNL     1       8.236  37.839  -1.898  1.00  0.00     0.179 HD
ATOM     29  H91 UNL     1       9.547  38.174  -0.779  1.00  0.00     0.179 HD
ENDBRANCH  12  27
BRANCH  10  30
HETATM   30  C11 UNL     1       8.259  40.539  -2.663  1.00  0.00     0.242 C
BRANCH  30  31
HETATM   31  O2  UNL     1       9.225  41.563  -2.782  1.00  0.00    -0.393 OA
ATOM     32  H2  UNL     1      10.098  41.256  -2.566  1.00  0.00     0.209 HD
ENDBRANCH  30  31
ENDBRANCH  10  30
TORSDOF 8
ENDMDL