MODEL 1
REMARK VINA RESULT: -7.138415772      0.000      0.000
REMARK  6 active torsions:
REMARK  status: ('A' for Active; 'I' for Inactive)
REMARK    1  A    between atoms: C2_4  and  C3_5
REMARK    2  A    between atoms: C5_8  and  O2_9
REMARK    3  A    between atoms: C6_11  and  N2_12
REMARK    4  A    between atoms: N2_12  and  C7_14
REMARK    5  A    between atoms: C9_18  and  C10_19
REMARK    6  A    between atoms: C12_22  and  N4_23
ROOT
HETATM    1  C10 UNL     1     -30.691 -18.776  -3.795  1.00  0.00    -0.026 C
HETATM    2  C11 UNL     1     -31.549 -19.624  -3.744  1.00  0.00     0.111 C
HETATM    3  F1  UNL     1     -32.495 -20.571  -3.668  1.00  0.00    -0.143 F
ENDROOT
BRANCH   1   4
HETATM    4  C9  UNL     1     -29.672 -17.755  -3.846  1.00  0.00     0.080 A
HETATM    5  C8  UNL     1     -29.166 -17.382  -5.067  1.00  0.00     0.130 A
HETATM    6  N3  UNL     1     -28.214 -16.428  -5.120  1.00  0.00    -0.200 N
HETATM    7  C7  UNL     1     -27.725 -15.813  -4.020  1.00  0.00     0.680 A
ATOM      8  H3  UNL     1     -27.845 -16.158  -6.032  1.00  0.00     0.183 HD
HETATM    9  N5  UNL     1     -28.235 -16.194  -2.831  1.00  0.00    -0.176 N
HETATM   10  C12 UNL     1     -29.194 -17.147  -2.707  1.00  0.00     0.135 A
ATOM     11  H5  UNL     1     -27.884 -15.745  -1.986  1.00  0.00     0.186 HD
BRANCH   7  12
HETATM   12  N2  UNL     1     -26.822 -14.909  -4.086  1.00  0.00    -0.215 N
ATOM     13  H2  UNL     1     -27.032 -14.085  -4.648  1.00  0.00     0.178 HD
BRANCH  12  14
HETATM   14  C6  UNL     1     -25.554 -14.948  -3.447  1.00  0.00     0.170 C
HETATM   15  C3  UNL     1     -24.540 -14.017  -4.070  1.00  0.00     0.122 C
HETATM   16  O1  UNL     1     -23.589 -13.901  -3.062  1.00  0.00    -0.364 OA
HETATM   17  C13 UNL     1     -25.041 -12.653  -3.654  1.00  0.00     0.055 C
HETATM   18  C4  UNL     1     -24.557 -13.203  -2.348  1.00  0.00     0.161 C
HETATM   19  C5  UNL     1     -25.573 -14.308  -2.048  1.00  0.00     0.174 C
HETATM   20  C14 UNL     1     -24.188 -11.496  -4.101  1.00  0.00     0.016 C
BRANCH  15  21
HETATM   21  C2  UNL     1     -24.132 -14.223  -5.423  1.00  0.00     0.095 C
HETATM   22  N1  UNL     1     -22.932 -14.510  -5.752  1.00  0.00    -0.404 N
HETATM   23  C1  UNL     1     -21.885 -14.651  -4.792  1.00  0.00     0.145 C
ATOM     24  H1  UNL     1     -22.713 -14.643  -6.740  1.00  0.00     0.158 HD
ENDBRANCH  15  21
BRANCH  19  25
HETATM   25  O2  UNL     1     -26.760 -13.708  -1.756  1.00  0.00    -0.391 OA
ATOM     26  H2  UNL     1     -26.894 -13.778  -0.818  1.00  0.00     0.210 HD
ENDBRANCH  19  25
ENDBRANCH  12  14
ENDBRANCH   7  12
BRANCH  10  27
HETATM   27  N4  UNL     1     -29.672 -17.502  -1.577  1.00  0.00    -0.384 N
ATOM     28  H42 UNL     1     -29.490 -18.417  -1.164  1.00  0.00     0.157 HD
ATOM     29  H41 UNL     1     -30.260 -16.844  -1.066  1.00  0.00     0.157 HD
ENDBRANCH  10  27
ENDBRANCH   1   4
TORSDOF 6
ENDMDL