MODEL 3
REMARK VINA RESULT: -6.975245126      1.489      1.574
REMARK  6 active torsions:
REMARK  status: ('A' for Active; 'I' for Inactive)
REMARK    1  A    between atoms: O1_1  and  C1_3
REMARK    2  A    between atoms: C1_3  and  C2_4
REMARK    3  A    between atoms: C3_6  and  N1_7
REMARK    4  A    between atoms: C7_12  and  O3_13
REMARK    5  A    between atoms: C9_16  and  O4_17
REMARK    6  A    between atoms: C10_19  and  O5_20
ROOT
HETATM    1  C2  UNL     1     -29.516 -17.997  -3.920  1.00  0.00     0.179 C
HETATM    2  O2  UNL     1     -29.899 -17.180  -2.847  1.00  0.00    -0.354 OA
HETATM    3  C3  UNL     1     -28.785 -16.385  -2.706  1.00  0.00     0.259 C
HETATM    4  C9  UNL     1     -28.404 -15.937  -4.122  1.00  0.00     0.198 C
HETATM    5  C10 UNL     1     -29.149 -16.958  -4.957  1.00  0.00     0.182 C
ENDROOT
BRANCH   3   6
HETATM    6  N1  UNL     1     -28.971 -15.270  -1.822  1.00  0.00    -0.335 N
HETATM    7  C4  UNL     1     -28.618 -15.242  -0.535  1.00  0.00     0.095 A
HETATM    8  C5  UNL     1     -28.820 -14.138   0.281  1.00  0.00     0.039 A
HETATM    9  C6  UNL     1     -29.410 -13.014  -0.248  1.00  0.00     0.046 A
HETATM   10 BR1  UNL     1     -29.733 -11.439   0.793  1.00  0.00    -0.048 Br
HETATM   11  C7  UNL     1     -29.778 -13.033  -1.576  1.00  0.00     0.098 A
HETATM   12  C8  UNL     1     -29.548 -14.163  -2.330  1.00  0.00     0.131 A
BRANCH  11  13
HETATM   13  O3  UNL     1     -30.379 -11.923  -2.166  1.00  0.00    -0.358 OA
ATOM     14  H3  UNL     1     -30.915 -12.016  -2.944  1.00  0.00     0.217 HD
ENDBRANCH  11  13
ENDBRANCH   3   6
BRANCH   4  15
HETATM   15  O4  UNL     1     -27.056 -16.116  -4.323  1.00  0.00    -0.388 OA
ATOM     16  H4  UNL     1     -26.867 -16.134  -5.254  1.00  0.00     0.210 HD
ENDBRANCH   4  15
BRANCH   1  17
HETATM   17  C1  UNL     1     -30.650 -18.882  -4.376  1.00  0.00     0.198 C
BRANCH  17  18
HETATM   18  O1  UNL     1     -31.188 -18.459  -5.566  1.00  0.00    -0.398 OA
ATOM     19  H1  UNL     1     -31.663 -17.641  -5.472  1.00  0.00     0.209 HD
ENDBRANCH  17  18
ENDBRANCH   1  17
BRANCH   5  20
HETATM   20  O5  UNL     1     -28.347 -17.517  -5.939  1.00  0.00    -0.390 OA
ATOM     21  H5  UNL     1     -27.491 -17.107  -5.940  1.00  0.00     0.210 HD
ENDBRANCH   5  20
TORSDOF 6
ENDMDL