MODEL 5
REMARK VINA RESULT: -5.776097999      1.218      1.448
REMARK  5 active torsions:
REMARK  status: ('A' for Active; 'I' for Inactive)
REMARK    1  A    between atoms: C2_2  and  O1_3
REMARK    2  A    between atoms: C4_6  and  N1_7
REMARK    3  A    between atoms: N1_7  and  S1_9
REMARK    4  A    between atoms: C6_13  and  O4_14
REMARK    5  A    between atoms: C7_16  and  O5_17
ROOT
HETATM    1  C1  UNL     1     -27.174 -15.134  -0.550  1.00  0.00     0.047 C
HETATM    2  C2  UNL     1     -28.463 -15.632  -1.118  1.00  0.00     0.072 C
HETATM    3  C3  UNL     1     -28.203 -16.743  -2.107  1.00  0.00     0.067 C
HETATM    4  C4  UNL     1     -28.560 -16.252  -3.479  1.00  0.00     0.127 C
HETATM    5  C6  UNL     1     -27.880 -14.935  -3.733  1.00  0.00     0.171 C
HETATM    6  C7  UNL     1     -28.539 -13.887  -2.868  1.00  0.00     0.166 C
HETATM    7  C8  UNL     1     -29.285 -14.505  -1.707  1.00  0.00     0.123 C
HETATM    8 BR1  UNL     1     -29.523 -13.118  -0.378  1.00  0.00    -0.085 Br
ENDROOT
BRANCH   4   9
HETATM    9  N1  UNL     1     -28.351 -17.218  -4.514  1.00  0.00    -0.312 N
ATOM     10  H1  UNL     1     -27.434 -17.368  -4.936  1.00  0.00     0.172 HD
BRANCH   9  11
HETATM   11  S1  UNL     1     -29.712 -18.095  -4.997  1.00  0.00     0.223 S
HETATM   12  C5  UNL     1     -30.557 -18.861  -3.621  1.00  0.00     0.185 C
HETATM   13  O2  UNL     1     -30.665 -17.330  -5.863  1.00  0.00    -0.206 OA
HETATM   14  O3  UNL     1     -29.216 -19.257  -5.851  1.00  0.00    -0.206 OA
ENDBRANCH   9  11
ENDBRANCH   4   9
BRANCH   5  15
HETATM   15  O4  UNL     1     -28.107 -14.581  -5.057  1.00  0.00    -0.391 OA
ATOM     16  H4  UNL     1     -28.728 -13.863  -5.068  1.00  0.00     0.210 HD
ENDBRANCH   5  15
BRANCH   2  17
HETATM   17  O1  UNL     1     -29.223 -16.137  -0.038  1.00  0.00    -0.389 OA
ATOM     18  H1  UNL     1     -28.654 -16.717   0.456  1.00  0.00     0.210 HD
ENDBRANCH   2  17
BRANCH   6  19
HETATM   19  O5  UNL     1     -29.394 -13.055  -3.582  1.00  0.00    -0.392 OA
ATOM     20  H5  UNL     1     -29.127 -12.938  -4.487  1.00  0.00     0.210 HD
ENDBRANCH   6  19
TORSDOF 5
ENDMDL