MODEL 3
REMARK VINA RESULT: -5.490774280      3.235      5.090
REMARK  6 active torsions:
REMARK  status: ('A' for Active; 'I' for Inactive)
REMARK    1  A    between atoms: C3_3  and  O1_4
REMARK    2  A    between atoms: C4_6  and  O2_7
REMARK    3  A    between atoms: C5_9  and  O3_10
REMARK    4  A    between atoms: C7_14  and  O4_15
REMARK    5  A    between atoms: O4_15  and  S1_16
REMARK    6  A    between atoms: S1_16  and  N1_17
ROOT
HETATM    1  C1  UNL     1     -27.687 -16.559  -3.878  1.00  0.00     0.015 C
HETATM    2  C2  UNL     1     -28.054 -15.434  -2.913  1.00  0.00     0.044 C
HETATM    3  C3  UNL     1     -29.080 -15.921  -1.948  1.00  0.00     0.155 C
HETATM    4  C4  UNL     1     -28.505 -16.724  -0.811  1.00  0.00     0.177 C
HETATM    5  C5  UNL     1     -27.541 -15.815  -0.089  1.00  0.00     0.166 C
HETATM    6  C6  UNL     1     -26.417 -15.444  -1.005  1.00  0.00     0.120 C
HETATM    7 BR1  UNL     1     -25.299 -14.172  -0.024  1.00  0.00    -0.086 Br
HETATM    8  C7  UNL     1     -26.828 -14.864  -2.304  1.00  0.00     0.167 C
ENDROOT
BRANCH   8   9
HETATM    9  O4  UNL     1     -25.780 -15.102  -3.227  1.00  0.00    -0.253 OA
BRANCH   9  10
HETATM   10  S1  UNL     1     -25.214 -13.718  -3.920  1.00  0.00     0.356 S
HETATM   11  O5  UNL     1     -26.154 -12.564  -3.853  1.00  0.00    -0.176 OA
HETATM   12  O6  UNL     1     -24.955 -14.003  -5.387  1.00  0.00    -0.176 OA
BRANCH  10  13
HETATM   13  N1  UNL     1     -23.679 -13.339  -3.214  1.00  0.00    -0.306 N
ATOM     14  H12 UNL     1     -22.831 -13.894  -3.325  1.00  0.00     0.171 HD
ATOM     15  H11 UNL     1     -23.775 -12.477  -2.677  1.00  0.00     0.171 HD
ENDBRANCH  10  13
ENDBRANCH   9  10
ENDBRANCH   8   9
BRANCH   3  16
HETATM   16  O1  UNL     1     -29.974 -16.762  -2.638  1.00  0.00    -0.392 OA
ATOM     17  H1  UNL     1     -30.691 -16.979  -2.055  1.00  0.00     0.210 HD
ENDBRANCH   3  16
BRANCH   5  18
HETATM   18  O3  UNL     1     -27.060 -16.357   1.073  1.00  0.00    -0.392 OA
ATOM     19  H3  UNL     1     -27.509 -16.038   1.846  1.00  0.00     0.210 HD
ENDBRANCH   5  18
BRANCH   4  20
HETATM   20  O2  UNL     1     -29.520 -17.137   0.024  1.00  0.00    -0.390 OA
ATOM     21  H2  UNL     1     -30.033 -17.812  -0.407  1.00  0.00     0.210 HD
ENDBRANCH   4  20
TORSDOF 6
ENDMDL