MODEL 4
REMARK VINA RESULT: -5.686212338      3.994      5.504
REMARK  6 active torsions:
REMARK  status: ('A' for Active; 'I' for Inactive)
REMARK    1  A    between atoms: O1_1  and  C1_3
REMARK    2  A    between atoms: C1_3  and  C2_4
REMARK    3  A    between atoms: C3_6  and  N1_7
REMARK    4  A    between atoms: C9_14  and  C10_15
REMARK    5  A    between atoms: C10_15  and  O3_16
REMARK    6  A    between atoms: C11_18  and  O4_19
ROOT
HETATM    1  C2  UNL     1     -29.443 -16.821  -4.445  1.00  0.00     0.177 C
HETATM    2  O2  UNL     1     -28.577 -15.847  -4.829  1.00  0.00    -0.356 OA
HETATM    3  C3  UNL     1     -27.395 -15.988  -4.063  1.00  0.00     0.236 C
HETATM    4  C9  UNL     1     -27.735 -16.738  -2.846  1.00  0.00     0.090 C
HETATM    5  C11 UNL     1     -29.236 -16.932  -2.956  1.00  0.00     0.159 C
ENDROOT
BRANCH   3   6
HETATM    6  N1  UNL     1     -26.757 -14.713  -3.868  1.00  0.00    -0.338 N
HETATM    7  C4  UNL     1     -27.451 -13.601  -3.601  1.00  0.00     0.093 A
HETATM    8  C5  UNL     1     -26.831 -12.366  -3.411  1.00  0.00     0.019 A
HETATM    9  C6  UNL     1     -25.456 -12.301  -3.504  1.00  0.00     0.022 A
HETATM   10  C7  UNL     1     -24.740 -13.459  -3.782  1.00  0.00     0.026 A
HETATM   11 BR1  UNL     1     -22.839 -13.401  -3.918  1.00  0.00    -0.050 Br
HETATM   12  C8  UNL     1     -25.423 -14.637  -3.956  1.00  0.00     0.112 A
ENDBRANCH   3   6
BRANCH   4  13
HETATM   13  C10 UNL     1     -27.312 -16.149  -1.550  1.00  0.00     0.175 C
BRANCH  13  14
HETATM   14  O3  UNL     1     -27.772 -16.764  -0.428  1.00  0.00    -0.400 OA
ATOM     15  H3  UNL     1     -28.218 -17.594  -0.554  1.00  0.00     0.209 HD
ENDBRANCH  13  14
ENDBRANCH   4  13
BRANCH   1  16
HETATM   16  C1  UNL     1     -29.300 -18.128  -5.160  1.00  0.00     0.198 C
BRANCH  16  17
HETATM   17  O1  UNL     1     -30.262 -19.055  -4.840  1.00  0.00    -0.398 OA
ATOM     18  H1  UNL     1     -30.238 -19.346  -3.936  1.00  0.00     0.209 HD
ENDBRANCH  16  17
ENDBRANCH   1  16
BRANCH   5  19
HETATM   19  O4  UNL     1     -29.946 -16.006  -2.230  1.00  0.00    -0.392 OA
ATOM     20  H4  UNL     1     -29.919 -16.155  -1.293  1.00  0.00     0.210 HD
ENDBRANCH   5  19
TORSDOF 6
ENDMDL