MODEL 2
REMARK VINA RESULT: -6.693778077      4.171      5.576
REMARK  5 active torsions:
REMARK  status: ('A' for Active; 'I' for Inactive)
REMARK    1  A    between atoms: C5_8  and  C6_9
REMARK    2  A    between atoms: C12_16  and  O2_17
REMARK    3  A    between atoms: C13_19  and  O3_20
REMARK    4  A    between atoms: C14_23  and  C15_24
REMARK    5  A    between atoms: C15_24  and  O4_25
ROOT
HETATM    1  C1  UNL     1     -22.485 -12.828  -3.337  1.00  0.00     0.037 C
HETATM    2  C2  UNL     1     -22.905 -12.850  -4.768  1.00  0.00     0.066 C
HETATM    3  C3  UNL     1     -22.199 -11.763  -5.544  1.00  0.00     0.037 C
HETATM    4  N1  UNL     1     -24.363 -12.634  -4.786  1.00  0.00    -0.108 NA
HETATM    5  N2  UNL     1     -24.854 -13.922  -4.445  1.00  0.00    -0.181 N
HETATM    6  C4  UNL     1     -26.003 -14.111  -3.876  1.00  0.00     0.182 C
HETATM    7  O1  UNL     1     -26.942 -13.160  -3.501  1.00  0.00    -0.322 OA
HETATM    8  C5  UNL     1     -28.102 -13.819  -2.984  1.00  0.00     0.195 C
HETATM    9  C12 UNL     1     -27.489 -15.035  -2.367  1.00  0.00     0.189 C
HETATM   10  C13 UNL     1     -26.544 -15.448  -3.508  1.00  0.00     0.227 C
HETATM   11  N3  UNL     1     -23.921 -14.896  -4.816  1.00  0.00    -0.110 NA
HETATM   12  C14 UNL     1     -22.824 -14.182  -5.427  1.00  0.00     0.150 C
ENDROOT
BRANCH  10  13
HETATM   13  O3  UNL     1     -27.285 -15.894  -4.602  1.00  0.00    -0.385 OA
ATOM     14  H3  UNL     1     -27.106 -16.823  -4.691  1.00  0.00     0.210 HD
ENDBRANCH  10  13
BRANCH   8  15
HETATM   15  C6  UNL     1     -28.850 -12.974  -2.044  1.00  0.00    -0.023 A
HETATM   16  C7  UNL     1     -30.060 -13.437  -1.569  1.00  0.00     0.010 A
HETATM   17  C8  UNL     1     -30.840 -12.718  -0.683  1.00  0.00     0.004 A
HETATM   18  C9  UNL     1     -30.344 -11.486  -0.283  1.00  0.00     0.042 A
HETATM   19  C10 UNL     1     -29.141 -11.023  -0.755  1.00  0.00     0.117 A
HETATM   20  F1  UNL     1     -28.658  -9.814  -0.360  1.00  0.00    -0.206 F
HETATM   21  C11 UNL     1     -28.378 -11.751  -1.636  1.00  0.00     0.052 A
ENDBRANCH   8  15
BRANCH   9  22
HETATM   22  O2  UNL     1     -26.647 -14.733  -1.298  1.00  0.00    -0.390 OA
ATOM     23  H2  UNL     1     -25.743 -14.974  -1.462  1.00  0.00     0.210 HD
ENDBRANCH   9  22
BRANCH  12  24
HETATM   24  C15 UNL     1     -21.508 -14.872  -5.297  1.00  0.00     0.189 C
BRANCH  24  25
HETATM   25  O4  UNL     1     -21.409 -15.782  -6.362  1.00  0.00    -0.399 OA
ATOM     26  H4  UNL     1     -21.461 -15.279  -7.166  1.00  0.00     0.209 HD
ENDBRANCH  24  25
ENDBRANCH  12  24
TORSDOF 5
ENDMDL