MODEL 3
REMARK VINA RESULT: -6.937709530      3.131      4.060
REMARK  6 active torsions:
REMARK  status: ('A' for Active; 'I' for Inactive)
REMARK    1  A    between atoms: O1_1  and  C1_3
REMARK    2  A    between atoms: C1_3  and  C2_4
REMARK    3  A    between atoms: C3_6  and  N1_7
REMARK    4  A    between atoms: C9_14  and  O3_15
REMARK    5  A    between atoms: C10_17  and  O4_18
REMARK    6  A    between atoms: C11_20  and  O5_21
ROOT
HETATM    1  C2  UNL     1     -29.410 -17.222  -4.094  1.00  0.00     0.179 C
HETATM    2  O2  UNL     1     -28.090 -16.745  -3.995  1.00  0.00    -0.354 OA
HETATM    3  C3  UNL     1     -28.142 -15.529  -3.284  1.00  0.00     0.259 C
HETATM    4  C9  UNL     1     -28.840 -15.686  -1.969  1.00  0.00     0.198 C
HETATM    5  C10 UNL     1     -29.040 -17.146  -1.687  1.00  0.00     0.182 C
HETATM    6  C11 UNL     1     -29.906 -17.739  -2.757  1.00  0.00     0.180 C
ENDROOT
BRANCH   3   7
HETATM    7  N1  UNL     1     -26.833 -14.940  -3.182  1.00  0.00    -0.336 N
HETATM    8  C4  UNL     1     -26.437 -14.348  -2.018  1.00  0.00     0.093 A
HETATM    9  C5  UNL     1     -25.177 -13.791  -1.950  1.00  0.00     0.019 A
HETATM   10  C6  UNL     1     -24.310 -13.819  -3.026  1.00  0.00     0.022 A
HETATM   11  C7  UNL     1     -24.722 -14.419  -4.197  1.00  0.00     0.026 A
HETATM   12 BR1  UNL     1     -23.599 -14.507  -5.736  1.00  0.00    -0.050 Br
HETATM   13  C8  UNL     1     -25.991 -14.965  -4.225  1.00  0.00     0.112 A
ENDBRANCH   3   7
BRANCH   4  14
HETATM   14  O3  UNL     1     -30.089 -15.077  -1.961  1.00  0.00    -0.388 OA
ATOM     15  H3  UNL     1     -30.140 -14.370  -1.327  1.00  0.00     0.210 HD
ENDBRANCH   4  14
BRANCH   1  16
HETATM   16  C1  UNL     1     -29.490 -18.376  -5.069  1.00  0.00     0.198 C
BRANCH  16  17
HETATM   17  O1  UNL     1     -30.803 -18.748  -5.328  1.00  0.00    -0.398 OA
ATOM     18  H1  UNL     1     -30.857 -19.609  -5.725  1.00  0.00     0.209 HD
ENDBRANCH  16  17
ENDBRANCH   1  16
BRANCH   5  19
HETATM   19  O4  UNL     1     -29.596 -17.281  -0.416  1.00  0.00    -0.390 OA
ATOM     20  H4  UNL     1     -30.072 -18.102  -0.380  1.00  0.00     0.210 HD
ENDBRANCH   5  19
BRANCH   6  21
HETATM   21  O5  UNL     1     -29.755 -19.131  -2.702  1.00  0.00    -0.390 OA
ATOM     22  H5  UNL     1     -29.038 -19.399  -3.264  1.00  0.00     0.210 HD
ENDBRANCH   6  21
TORSDOF 6
ENDMDL