MODEL 3
REMARK VINA RESULT: -5.566283543      2.111      4.260
REMARK  5 active torsions:
REMARK  status: ('A' for Active; 'I' for Inactive)
REMARK    1  A    between atoms: C3_3  and  O1_4
REMARK    2  A    between atoms: C5_8  and  O2_9
REMARK    3  A    between atoms: C7_13  and  C8_14
REMARK    4  A    between atoms: C11_17  and  C12_18
REMARK    5  A    between atoms: C12_18  and  N1_19
ROOT
HETATM    1  C1  UNL     1     -30.043 -12.935  -1.792  1.00  0.00     0.015 C
HETATM    2  C2  UNL     1     -29.048 -13.611  -1.684  1.00  0.00    -0.077 C
HETATM    3  C3  UNL     1     -27.815 -14.420  -1.563  1.00  0.00     0.141 C
HETATM    4  C4  UNL     1     -27.838 -15.121  -0.243  1.00  0.00     0.136 C
HETATM    5 BR1  UNL     1     -27.819 -13.942   1.249  1.00  0.00    -0.084 Br
HETATM    6  C5  UNL     1     -29.064 -16.019  -0.267  1.00  0.00     0.165 C
HETATM    7  C6  UNL     1     -28.780 -17.133  -1.206  1.00  0.00     0.159 C
HETATM    8  O3  UNL     1     -29.853 -17.426  -2.058  1.00  0.00    -0.377 OA
HETATM    9  C7  UNL     1     -28.882 -17.642  -3.063  1.00  0.00     0.129 C
HETATM   10  C10 UNL     1     -27.897 -16.809  -2.351  1.00  0.00     0.056 C
HETATM   11  C11 UNL     1     -27.702 -15.405  -2.691  1.00  0.00     0.068 C
ENDROOT
BRANCH   3  12
HETATM   12  O1  UNL     1     -26.762 -13.504  -1.540  1.00  0.00    -0.376 OA
ATOM     13  H1  UNL     1     -26.313 -13.607  -2.371  1.00  0.00     0.211 HD
ENDBRANCH   3  12
BRANCH  11  14
HETATM   14  C12 UNL     1     -26.292 -15.219  -3.278  1.00  0.00     0.238 C
BRANCH  14  15
HETATM   15  N1  UNL     1     -26.311 -14.277  -4.373  1.00  0.00    -0.079 N
ATOM     16  H13 UNL     1     -27.056 -14.487  -5.038  1.00  0.00     0.274 HD
ATOM     17  H12 UNL     1     -26.627 -13.356  -4.072  1.00  0.00     0.274 HD
ATOM     18  H11 UNL     1     -25.401 -14.234  -4.830  1.00  0.00     0.274 HD
ENDBRANCH  14  15
ENDBRANCH  11  14
BRANCH   6  19
HETATM   19  O2  UNL     1     -29.373 -16.468   1.011  1.00  0.00    -0.392 OA
ATOM     20  H2  UNL     1     -29.585 -17.394   1.003  1.00  0.00     0.210 HD
ENDBRANCH   6  19
BRANCH   9  21
HETATM   21  C8  UNL     1     -29.406 -17.238  -4.378  1.00  0.00     0.028 C
HETATM   22  C9  UNL     1     -29.728 -18.513  -5.169  1.00  0.00     0.007 C
ENDBRANCH   9  21
TORSDOF 5
ENDMDL