MODEL 5
REMARK VINA RESULT: -5.372588506      3.277      4.453
REMARK  8 active torsions:
REMARK  status: ('A' for Active; 'I' for Inactive)
REMARK    1  A    between atoms: N1_1  and  N2_4
REMARK    2  A    between atoms: N2_4  and  N3_5
REMARK    3  A    between atoms: N3_5  and  C1_7
REMARK    4  A    between atoms: C3_10  and  O1_11
REMARK    5  A    between atoms: C5_14  and  O2_15
REMARK    6  A    between atoms: C6_17  and  O3_18
REMARK    7  A    between atoms: C7_20  and  C8_21
REMARK    8  A    between atoms: C8_21  and  N4_22
ROOT
HETATM    1  C1  UNL     1     -27.739 -14.890  -3.211  1.00  0.00     0.367 C
HETATM    2  C2  UNL     1     -26.847 -13.901  -2.453  1.00  0.00     0.144 C
HETATM    3 BR1  UNL     1     -25.800 -12.852  -3.676  1.00  0.00    -0.084 Br
HETATM    4  C3  UNL     1     -27.966 -13.062  -1.825  1.00  0.00     0.172 C
HETATM    5  C4  UNL     1     -28.960 -14.142  -1.457  1.00  0.00     0.287 C
HETATM    6  C5  UNL     1     -28.890 -14.402   0.001  1.00  0.00     0.185 C
HETATM    7  C6  UNL     1     -28.290 -15.772   0.136  1.00  0.00     0.184 C
HETATM    8  C7  UNL     1     -28.088 -16.293  -1.283  1.00  0.00     0.282 C
HETATM    9  N5  UNL     1     -28.616 -15.321  -2.174  1.00  0.00     0.133 N
ENDROOT
BRANCH   1  10
HETATM   10  N3  UNL     1     -27.000 -15.907  -3.863  1.00  0.00    -0.217 N
ATOM     11  H3  UNL     1     -26.026 -16.086  -3.619  1.00  0.00     0.199 HD
BRANCH  10  12
HETATM   12  N2  UNL     1     -27.577 -16.577  -4.745  1.00  0.00    -0.246 NA
BRANCH  12  13
HETATM   13  N1  UNL     1     -28.136 -17.282  -5.586  1.00  0.00    -0.261 N
ATOM     14  H12 UNL     1     -27.320 -16.791  -5.951  1.00  0.00     0.193 HD
ATOM     15  H11 UNL     1     -28.629 -17.878  -6.252  1.00  0.00     0.193 HD
ENDBRANCH  12  13
ENDBRANCH  10  12
ENDBRANCH   1  10
BRANCH   4  16
HETATM   16  O1  UNL     1     -28.544 -12.259  -2.806  1.00  0.00    -0.392 OA
ATOM     17  H1  UNL     1     -28.000 -11.492  -2.945  1.00  0.00     0.210 HD
ENDBRANCH   4  16
BRANCH   8  18
HETATM   18  C8  UNL     1     -28.769 -17.632  -1.358  1.00  0.00     0.268 C
BRANCH  18  19
HETATM   19  N4  UNL     1     -29.968 -17.638  -2.129  1.00  0.00    -0.077 N
ATOM     20  H43 UNL     1     -29.866 -17.044  -2.951  1.00  0.00     0.274 HD
ATOM     21  H42 UNL     1     -30.096 -18.542  -2.584  1.00  0.00     0.274 HD
ATOM     22  H41 UNL     1     -30.805 -17.382  -1.605  1.00  0.00     0.274 HD
ENDBRANCH  18  19
ENDBRANCH   8  18
BRANCH   6  23
HETATM   23  O2  UNL     1     -30.149 -14.299   0.588  1.00  0.00    -0.391 OA
ATOM     24  H2  UNL     1     -30.835 -14.356  -0.067  1.00  0.00     0.210 HD
ENDBRANCH   6  23
BRANCH   7  25
HETATM   25  O3  UNL     1     -29.208 -16.558   0.841  1.00  0.00    -0.391 OA
ATOM     26  H3  UNL     1     -28.749 -17.342   1.121  1.00  0.00     0.210 HD
ENDBRANCH   7  25
TORSDOF 8
ENDMDL