MODEL 3
REMARK VINA RESULT: -6.296770631      3.648      5.937
REMARK  6 active torsions:
REMARK  status: ('A' for Active; 'I' for Inactive)
REMARK    1  A    between atoms: O1_1  and  C1_3
REMARK    2  A    between atoms: C1_3  and  C2_4
REMARK    3  A    between atoms: C3_6  and  N1_7
REMARK    4  A    between atoms: C9_14  and  O3_15
REMARK    5  A    between atoms: C10_17  and  O4_18
REMARK    6  A    between atoms: C11_20  and  O5_21
ROOT
HETATM    1  C2  UNL     1     -28.680 -17.363  -3.991  1.00  0.00     0.179 C
HETATM    2  O2  UNL     1     -27.797 -16.375  -4.344  1.00  0.00    -0.354 OA
HETATM    3  C3  UNL     1     -27.625 -15.490  -3.306  1.00  0.00     0.259 C
HETATM    4  C9  UNL     1     -27.397 -16.313  -2.044  1.00  0.00     0.198 C
HETATM    5  C10 UNL     1     -28.805 -16.690  -1.582  1.00  0.00     0.182 C
HETATM    6  C11 UNL     1     -29.581 -17.010  -2.844  1.00  0.00     0.180 C
ENDROOT
BRANCH   3   7
HETATM    7  N1  UNL     1     -26.582 -14.540  -3.543  1.00  0.00    -0.337 N
HETATM    8  C4  UNL     1     -25.428 -14.953  -4.075  1.00  0.00     0.094 A
HETATM    9  C5  UNL     1     -24.417 -14.053  -4.309  1.00  0.00     0.036 A
HETATM   10  C6  UNL     1     -24.604 -12.726  -3.989  1.00  0.00     0.013 A
HETATM   11 BR1  UNL     1     -23.163 -11.498  -4.332  1.00  0.00    -0.051 Br
HETATM   12  C7  UNL     1     -25.795 -12.295  -3.439  1.00  0.00     0.036 A
HETATM   13  C8  UNL     1     -26.784 -13.257  -3.226  1.00  0.00     0.094 A
ENDBRANCH   3   7
BRANCH   4  14
HETATM   14  O3  UNL     1     -26.689 -15.641  -1.088  1.00  0.00    -0.388 OA
ATOM     15  H3  UNL     1     -27.244 -15.186  -0.465  1.00  0.00     0.210 HD
ENDBRANCH   4  14
BRANCH   1  16
HETATM   16  C1  UNL     1     -29.573 -17.633  -5.195  1.00  0.00     0.198 C
BRANCH  16  17
HETATM   17  O1  UNL     1     -29.733 -19.034  -5.274  1.00  0.00    -0.398 OA
ATOM     18  H1  UNL     1     -29.491 -19.385  -4.425  1.00  0.00     0.209 HD
ENDBRANCH  16  17
ENDBRANCH   1  16
BRANCH   5  19
HETATM   19  O4  UNL     1     -28.802 -17.708  -0.666  1.00  0.00    -0.390 OA
ATOM     20  H4  UNL     1     -28.771 -17.392   0.230  1.00  0.00     0.210 HD
ENDBRANCH   5  19
BRANCH   6  21
HETATM   21  O5  UNL     1     -30.343 -18.163  -2.557  1.00  0.00    -0.390 OA
ATOM     22  H5  UNL     1     -30.858 -17.964  -1.784  1.00  0.00     0.210 HD
ENDBRANCH   6  21
TORSDOF 6
ENDMDL