MODEL 5
REMARK VINA RESULT: -6.618737434      3.169      5.172
REMARK  4 active torsions:
REMARK  status: ('A' for Active; 'I' for Inactive)
REMARK    1  A    between atoms: C6_10  and  O1_11
REMARK    2  A    between atoms: C8_14  and  C9_15
REMARK    3  A    between atoms: C9_15  and  N2_16
REMARK    4  A    between atoms: N2_16  and  S2_18
ROOT
HETATM    1  C1  UNL     1     -26.074 -17.395   3.128  1.00  0.00     0.040 C
HETATM    2  C2  UNL     1     -26.190 -17.801   1.690  1.00  0.00     0.071 C
HETATM    3  C3  UNL     1     -25.311 -18.962   1.319  1.00  0.00     0.040 C
HETATM    4  S1  UNL     1     -27.926 -18.064   1.186  1.00  0.00    -0.118 SA
HETATM    5  C4  UNL     1     -27.859 -17.691  -0.547  1.00  0.00     0.195 C
HETATM    6  C5  UNL     1     -29.135 -17.091  -1.123  1.00  0.00     0.242 C
HETATM    7  N1  UNL     1     -29.900 -18.137  -1.728  1.00  0.00    -0.041 N
ATOM      8  H11 UNL     1     -30.897 -17.934  -1.788  1.00  0.00     0.280 HD
ATOM      9  H12 UNL     1     -29.981 -18.972  -1.148  1.00  0.00     0.280 HD
HETATM   10  C6  UNL     1     -29.281 -18.379  -3.004  1.00  0.00     0.320 C
HETATM   11  C7  UNL     1     -28.934 -17.028  -3.521  1.00  0.00     0.084 C
HETATM   12  C8  UNL     1     -28.678 -16.234  -2.167  1.00  0.00     0.093 C
HETATM   13  C11 UNL     1     -27.161 -16.169  -2.093  1.00  0.00     0.243 C
HETATM   14  O4  UNL     1     -26.360 -15.763  -2.980  1.00  0.00    -0.271 OA
HETATM   15  N3  UNL     1     -26.885 -16.668  -0.783  1.00  0.00    -0.273 N
HETATM   16  S3  UNL     1     -25.775 -16.440   0.548  1.00  0.00    -0.029 SA
ENDROOT
BRANCH  12  17
HETATM   17  C9  UNL     1     -29.151 -14.861  -2.452  1.00  0.00     0.153 C
BRANCH  17  18
HETATM   18  N2  UNL     1     -29.904 -14.256  -1.410  1.00  0.00    -0.319 N
ATOM     19  H2  UNL     1     -30.704 -14.623  -0.894  1.00  0.00     0.172 HD
BRANCH  18  20
HETATM   20  S2  UNL     1     -29.086 -12.703  -1.247  1.00  0.00     0.222 S
HETATM   21  C10 UNL     1     -29.798 -11.606  -0.159  1.00  0.00     0.185 C
HETATM   22  O2  UNL     1     -27.706 -13.156  -0.613  1.00  0.00    -0.206 OA
HETATM   23  O3  UNL     1     -28.676 -12.162  -2.571  1.00  0.00    -0.206 OA
ENDBRANCH  18  20
ENDBRANCH  17  18
ENDBRANCH  12  17
BRANCH  10  24
HETATM   24  O1  UNL     1     -30.180 -19.042  -3.858  1.00  0.00    -0.370 OA
ATOM     25  H1  UNL     1     -29.879 -18.984  -4.757  1.00  0.00     0.212 HD
ENDBRANCH  10  24
TORSDOF 4
ENDMDL