MODEL 3
REMARK VINA RESULT: -7.416053677      1.021      1.315
REMARK  8 active torsions:
REMARK  status: ('A' for Active; 'I' for Inactive)
REMARK    1  A    between atoms: C4_5  and  C5_6
REMARK    2  A    between atoms: N2_9  and  C8_10
REMARK    3  A    between atoms: C9_12  and  C10_13
REMARK    4  A    between atoms: C10_13  and  O2_14
REMARK    5  A    between atoms: C11_16  and  O3_17
REMARK    6  A    between atoms: C12_19  and  O4_20
REMARK    7  A    between atoms: C13_22  and  O5_23
REMARK    8  A    between atoms: N3_29  and  O6_30
ROOT
HETATM    1  N1  UNL     1     -29.881 -18.912  -5.061  1.00  0.00    -0.190 NA
HETATM    2  C1  UNL     1     -29.350 -18.231  -4.292  1.00  0.00     0.120 C
HETATM    3  C2  UNL     1     -28.659 -17.385  -3.335  1.00  0.00     0.142 A
HETATM    4  C3  UNL     1     -27.603 -16.585  -3.710  1.00  0.00     0.056 A
HETATM    5  C4  UNL     1     -26.907 -15.760  -2.849  1.00  0.00    -0.022 A
HETATM    6  C16 UNL     1     -27.311 -15.749  -1.533  1.00  0.00     0.032 A
HETATM    7  C17 UNL     1     -28.371 -16.557  -1.178  1.00  0.00     0.125 A
HETATM    8  N3  UNL     1     -29.027 -17.350  -2.043  1.00  0.00    -0.226 N
ENDROOT
BRANCH   8   9
HETATM    9  O6  UNL     1     -30.085 -18.148  -1.662  1.00  0.00    -0.282 OA
ATOM     10  H6  UNL     1     -30.233 -18.944  -2.159  1.00  0.00     0.245 HD
ENDBRANCH   8   9
BRANCH   5  11
HETATM   11  C5  UNL     1     -25.800 -14.948  -3.339  1.00  0.00    -0.023 A
HETATM   12  C6  UNL     1     -24.909 -15.382  -4.288  1.00  0.00     0.029 A
HETATM   13  C7  UNL     1     -23.893 -14.537  -4.687  1.00  0.00     0.094 A
HETATM   14  N2  UNL     1     -23.724 -13.298  -4.195  1.00  0.00    -0.337 N
HETATM   15  C14 UNL     1     -24.581 -12.846  -3.265  1.00  0.00     0.094 A
HETATM   16  C15 UNL     1     -25.614 -13.669  -2.842  1.00  0.00     0.029 A
BRANCH  14  17
HETATM   17  C8  UNL     1     -22.632 -12.436  -4.648  1.00  0.00     0.259 C
HETATM   18  O1  UNL     1     -21.494 -12.899  -4.066  1.00  0.00    -0.354 OA
HETATM   19  C9  UNL     1     -20.334 -12.402  -4.617  1.00  0.00     0.179 C
HETATM   20  C11 UNL     1     -20.254 -13.017  -6.021  1.00  0.00     0.180 C
HETATM   21  C12 UNL     1     -21.332 -12.331  -6.804  1.00  0.00     0.182 C
HETATM   22  C13 UNL     1     -22.653 -12.343  -6.118  1.00  0.00     0.198 C
BRANCH  19  23
HETATM   23  C10 UNL     1     -19.107 -12.740  -3.817  1.00  0.00     0.198 C
BRANCH  23  24
HETATM   24  O2  UNL     1     -19.241 -13.985  -3.256  1.00  0.00    -0.398 OA
ATOM     25  H2  UNL     1     -18.633 -14.592  -3.663  1.00  0.00     0.209 HD
ENDBRANCH  23  24
ENDBRANCH  19  23
BRANCH  20  26
HETATM   26  O3  UNL     1     -20.632 -14.365  -5.895  1.00  0.00    -0.390 OA
ATOM     27  H3  UNL     1     -21.444 -14.468  -6.377  1.00  0.00     0.210 HD
ENDBRANCH  20  26
BRANCH  21  28
HETATM   28  O4  UNL     1     -20.933 -10.984  -6.955  1.00  0.00    -0.390 OA
ATOM     29  H4  UNL     1     -21.472 -10.470  -6.366  1.00  0.00     0.210 HD
ENDBRANCH  21  28
BRANCH  22  30
HETATM   30  O5  UNL     1     -23.330 -11.166  -6.522  1.00  0.00    -0.388 OA
ATOM     31  H5  UNL     1     -24.042 -10.978  -5.923  1.00  0.00     0.210 HD
ENDBRANCH  22  30
ENDBRANCH  14  17
ENDBRANCH   5  11
TORSDOF 8
ENDMDL