MODEL 3
REMARK VINA RESULT: -6.717456405      1.491      2.705
REMARK  6 active torsions:
REMARK  status: ('A' for Active; 'I' for Inactive)
REMARK    1  A    between atoms: C2_2  and  C3_3
REMARK    2  A    between atoms: N2_11  and  O3_12
REMARK    3  A    between atoms: O3_12  and  C7_13
REMARK    4  A    between atoms: C8_14  and  O4_15
REMARK    5  A    between atoms: C9_17  and  O5_18
REMARK    6  A    between atoms: C10_20  and  O6_21
ROOT
HETATM    1  C7  UNL     1     -24.313 -14.054  -3.753  1.00  0.00     0.204 C
HETATM    2  C8  UNL     1     -23.941 -14.694  -5.084  1.00  0.00     0.182 C
HETATM    3  C9  UNL     1     -22.519 -15.035  -5.253  1.00  0.00     0.179 C
HETATM    4  C10 UNL     1     -21.503 -14.089  -4.646  1.00  0.00     0.164 C
HETATM    5  C11 UNL     1     -21.985 -13.843  -3.232  1.00  0.00     0.100 A
HETATM    6  S1  UNL     1     -22.285 -12.574  -2.266  1.00  0.00    -0.146 SA
HETATM    7  C12 UNL     1     -23.241 -12.977  -3.521  1.00  0.00     0.051 A
HETATM    8  C13 UNL     1     -23.190 -12.031  -4.727  1.00  0.00     0.031 C
ENDROOT
BRANCH   1   9
HETATM    9  O3  UNL     1     -25.481 -13.438  -3.725  1.00  0.00    -0.258 OA
BRANCH   9  10
HETATM   10  N2  UNL     1     -26.569 -13.806  -3.171  1.00  0.00    -0.143 N
HETATM   11  C6  UNL     1     -27.667 -12.861  -3.111  1.00  0.00     0.342 C
HETATM   12  C5  UNL     1     -28.932 -13.238  -2.491  1.00  0.00     0.313 C
HETATM   13  O2  UNL     1     -27.500 -11.721  -3.602  1.00  0.00    -0.259 OA
HETATM   14  N1  UNL     1     -29.041 -14.550  -1.959  1.00  0.00    -0.335 N
HETATM   15  O1  UNL     1     -29.915 -12.444  -2.415  1.00  0.00    -0.262 OA
HETATM   16  C3  UNL     1     -28.241 -15.582  -2.608  1.00  0.00     0.113 C
ATOM     17  H1  UNL     1     -29.647 -14.759  -1.165  1.00  0.00     0.164 HD
HETATM   18  C4  UNL     1     -28.350 -16.916  -1.942  1.00  0.00     0.049 C
HETATM   19  C14 UNL     1     -26.846 -15.061  -2.595  1.00  0.00     0.279 C
HETATM   20  O7  UNL     1     -25.976 -15.783  -2.058  1.00  0.00    -0.268 OA
BRANCH  16  21
HETATM   21  C2  UNL     1     -28.777 -15.737  -4.010  1.00  0.00     0.036 C
HETATM   22  C1  UNL     1     -28.768 -17.243  -4.314  1.00  0.00     0.008 C
ENDBRANCH  16  21
ENDBRANCH   9  10
ENDBRANCH   1   9
BRANCH   2  23
HETATM   23  O4  UNL     1     -24.650 -15.926  -5.086  1.00  0.00    -0.390 OA
ATOM     24  H4  UNL     1     -25.465 -15.725  -4.639  1.00  0.00     0.210 HD
ENDBRANCH   2  23
BRANCH   3  25
HETATM   25  O5  UNL     1     -22.256 -15.244  -6.603  1.00  0.00    -0.390 OA
ATOM     26  H5  UNL     1     -21.390 -15.620  -6.698  1.00  0.00     0.210 HD
ENDBRANCH   3  25
BRANCH   4  27
HETATM   27  O6  UNL     1     -20.304 -14.793  -4.546  1.00  0.00    -0.392 OA
ATOM     28  H6  UNL     1     -19.902 -14.537  -3.725  1.00  0.00     0.210 HD
ENDBRANCH   4  27
TORSDOF 6
ENDMDL