MODEL 5
REMARK VINA RESULT: -6.363586025      5.860      7.749
REMARK  9 active torsions:
REMARK  status: ('A' for Active; 'I' for Inactive)
REMARK    1  A    between atoms: S1_2  and  C2_5
REMARK    2  A    between atoms: C2_5  and  C3_6
REMARK    3  A    between atoms: C6_9  and  C7_10
REMARK    4  A    between atoms: C8_11  and  C9_12
REMARK    5  A    between atoms: C10_14  and  C11_15
REMARK    6  A    between atoms: C11_15  and  O4_16
REMARK    7  A    between atoms: C12_18  and  O5_19
REMARK    8  A    between atoms: C13_21  and  O6_22
REMARK    9  A    between atoms: C14_24  and  O7_25
ROOT
HETATM    1  C9  UNL     1     -29.100 -16.954  -2.058  1.00  0.00     0.232 C
HETATM    2  O3  UNL     1     -30.013 -17.928  -2.003  1.00  0.00    -0.361 OA
HETATM    3  C10 UNL     1     -30.482 -18.532  -3.095  1.00  0.00     0.178 C
HETATM    4  C12 UNL     1     -29.663 -18.476  -4.334  1.00  0.00     0.180 C
HETATM    5  C13 UNL     1     -29.301 -17.000  -4.550  1.00  0.00     0.181 C
HETATM    6  C14 UNL     1     -28.442 -16.658  -3.352  1.00  0.00     0.190 C
ENDROOT
BRANCH   1   7
HETATM    7  C8  UNL     1     -28.067 -17.221  -1.024  1.00  0.00    -0.066 C
HETATM    8  C7  UNL     1     -27.244 -17.433  -0.168  1.00  0.00    -0.064 C
BRANCH   8   9
HETATM    9  C6  UNL     1     -26.277 -17.702   0.863  1.00  0.00     0.017 A
HETATM   10  C5  UNL     1     -25.745 -18.964   0.987  1.00  0.00     0.021 A
HETATM   11  C4  UNL     1     -24.813 -19.305   1.945  1.00  0.00     0.009 A
HETATM   12  C3  UNL     1     -24.421 -18.294   2.809  1.00  0.00    -0.044 A
HETATM   13  C16 UNL     1     -24.919 -17.012   2.734  1.00  0.00     0.009 A
HETATM   14  C15 UNL     1     -25.847 -16.745   1.749  1.00  0.00     0.021 A
BRANCH  12  15
HETATM   15  C2  UNL     1     -23.425 -18.617   3.852  1.00  0.00     0.178 C
BRANCH  15  16
HETATM   16  S1  UNL     1     -24.243 -19.046   5.378  1.00  0.00     0.144 S
HETATM   17  C1  UNL     1     -23.067 -20.027   6.317  1.00  0.00     0.161 C
HETATM   18  O1  UNL     1     -24.602 -17.790   6.080  1.00  0.00    -0.228 OA
HETATM   19  O2  UNL     1     -25.421 -19.939   5.122  1.00  0.00    -0.228 OA
ENDBRANCH  15  16
ENDBRANCH  12  15
ENDBRANCH   8   9
ENDBRANCH   1   7
BRANCH   6  20
HETATM   20  O7  UNL     1     -27.223 -17.340  -3.525  1.00  0.00    -0.389 OA
ATOM     21  H7  UNL     1     -27.261 -18.251  -3.258  1.00  0.00     0.210 HD
ENDBRANCH   6  20
BRANCH   3  22
HETATM   22  C11 UNL     1     -30.786 -19.993  -2.768  1.00  0.00     0.198 C
BRANCH  22  23
HETATM   23  O4  UNL     1     -31.812 -20.486  -3.579  1.00  0.00    -0.398 OA
ATOM     24  H4  UNL     1     -31.503 -21.201  -4.124  1.00  0.00     0.209 HD
ENDBRANCH  22  23
ENDBRANCH   3  22
BRANCH   5  25
HETATM   25  O6  UNL     1     -28.610 -16.926  -5.728  1.00  0.00    -0.390 OA
ATOM     26  H6  UNL     1     -28.593 -17.801  -6.098  1.00  0.00     0.210 HD
ENDBRANCH   5  25
BRANCH   4  27
HETATM   27  O5  UNL     1     -30.340 -18.979  -5.423  1.00  0.00    -0.390 OA
ATOM     28  H5  UNL     1     -29.748 -19.255  -6.113  1.00  0.00     0.210 HD
ENDBRANCH   4  27
TORSDOF 9
ENDMDL