MODEL 5
REMARK VINA RESULT: -6.896320397      3.251      6.375
REMARK  9 active torsions:
REMARK  status: ('A' for Active; 'I' for Inactive)
REMARK    1  A    between atoms: N1_1  and  N2_4
REMARK    2  A    between atoms: N2_4  and  C1_6
REMARK    3  A    between atoms: C1_6  and  O1_8
REMARK    4  A    between atoms: O1_8  and  C2_9
REMARK    5  A    between atoms: C3_10  and  O2_11
REMARK    6  A    between atoms: C4_13  and  O3_14
REMARK    7  A    between atoms: C5_16  and  C6_17
REMARK    8  A    between atoms: C6_17  and  O4_18
REMARK    9  A    between atoms: C7_21  and  N3_22
ROOT
HETATM    1  C2  UNL     1     -28.450 -15.573  -2.474  1.00  0.00     0.211 C
HETATM    2  C3  UNL     1     -28.704 -14.494  -3.481  1.00  0.00     0.183 C
HETATM    3  C4  UNL     1     -28.368 -13.108  -3.033  1.00  0.00     0.180 C
HETATM    4  C5  UNL     1     -27.216 -13.013  -2.081  1.00  0.00     0.179 C
HETATM    5  O5  UNL     1     -27.266 -13.974  -1.083  1.00  0.00    -0.353 OA
HETATM    6  C7  UNL     1     -27.289 -15.261  -1.539  1.00  0.00     0.259 C
ENDROOT
BRANCH   6   7
HETATM    7  N3  UNL     1     -27.396 -16.124  -0.359  1.00  0.00    -0.336 N
HETATM    8  C8  UNL     1     -28.419 -16.022   0.507  1.00  0.00     0.094 A
HETATM    9  C9  UNL     1     -28.503 -16.839   1.608  1.00  0.00     0.029 A
HETATM   10  C10 UNL     1     -27.543 -17.787   1.861  1.00  0.00    -0.023 A
HETATM   11  C11 UNL     1     -27.568 -18.647   2.952  1.00  0.00     0.012 A
HETATM   12  C15 UNL     1     -26.495 -17.907   0.993  1.00  0.00    -0.010 A
HETATM   13  C12 UNL     1     -26.587 -19.587   3.170  1.00  0.00     0.001 A
HETATM   14  C13 UNL     1     -25.541 -19.689   2.280  1.00  0.00     0.001 A
HETATM   15  C14 UNL     1     -25.502 -18.843   1.192  1.00  0.00     0.013 A
HETATM   16  C16 UNL     1     -26.453 -17.051  -0.118  1.00  0.00     0.105 A
ENDBRANCH   6   7
BRANCH   1  17
HETATM   17  O1  UNL     1     -28.338 -16.834  -3.041  1.00  0.00    -0.313 OA
BRANCH  17  18
HETATM   18  C1  UNL     1     -29.316 -17.753  -3.299  1.00  0.00     0.229 C
HETATM   19  S1  UNL     1     -29.864 -18.103  -4.786  1.00  0.00    -0.032 SA
BRANCH  18  20
HETATM   20  N2  UNL     1     -29.910 -18.467  -2.200  1.00  0.00    -0.277 N
ATOM     21  H2  UNL     1     -29.763 -18.120  -1.253  1.00  0.00     0.189 HD
BRANCH  20  22
HETATM   22  N1  UNL     1     -30.678 -19.615  -2.382  1.00  0.00    -0.343 N
ATOM     23  H12 UNL     1     -31.247 -19.677  -3.226  1.00  0.00     0.176 HD
ATOM     24  H11 UNL     1     -30.688 -20.381  -1.708  1.00  0.00     0.176 HD
ENDBRANCH  20  22
ENDBRANCH  18  20
ENDBRANCH  17  18
ENDBRANCH   1  17
BRANCH   2  25
HETATM   25  O2  UNL     1     -27.953 -14.718  -4.659  1.00  0.00    -0.390 OA
ATOM     26  H2  UNL     1     -28.485 -15.137  -5.326  1.00  0.00     0.210 HD
ENDBRANCH   2  25
BRANCH   4  27
HETATM   27  C6  UNL     1     -27.192 -11.670  -1.373  1.00  0.00     0.198 C
BRANCH  27  28
HETATM   28  O4  UNL     1     -27.203 -10.625  -2.293  1.00  0.00    -0.398 OA
ATOM     29  H4  UNL     1     -28.065 -10.524  -2.679  1.00  0.00     0.209 HD
ENDBRANCH  27  28
ENDBRANCH   4  27
BRANCH   3  30
HETATM   30  O3  UNL     1     -29.522 -12.548  -2.455  1.00  0.00    -0.390 OA
ATOM     31  H3  UNL     1     -29.313 -11.660  -2.188  1.00  0.00     0.210 HD
ENDBRANCH   3  30
TORSDOF 9
ENDMDL