MODEL 2
REMARK VINA RESULT: -7.441697298      0.705      1.198
REMARK  6 active torsions:
REMARK  status: ('A' for Active; 'I' for Inactive)
REMARK    1  A    between atoms: C4_4  and  N1_5
REMARK    2  A    between atoms: N1_5  and  S1_7
REMARK    3  A    between atoms: S1_7  and  C5_10
REMARK    4  A    between atoms: C14_20  and  O4_21
REMARK    5  A    between atoms: C15_23  and  O5_24
REMARK    6  A    between atoms: C16_26  and  O6_27
ROOT
HETATM    1  C1  UNL     1     -27.078 -14.939   1.771  1.00  0.00     0.012 C
HETATM    2  C2  UNL     1     -27.678 -14.673   0.759  1.00  0.00    -0.105 C
HETATM    3  C3  UNL     1     -28.434 -14.356  -0.477  1.00  0.00     0.145 C
HETATM    4  C4  UNL     1     -27.477 -13.881  -1.518  1.00  0.00     0.249 C
HETATM    5  O3  UNL     1     -26.523 -13.081  -0.887  1.00  0.00    -0.357 OA
HETATM    6  C12 UNL     1     -26.875 -11.736  -0.892  1.00  0.00     0.151 C
HETATM    7  C13 UNL     1     -27.031 -11.160  -2.262  1.00  0.00     0.042 C
HETATM    8  C14 UNL     1     -28.035 -11.505   0.017  1.00  0.00     0.178 C
HETATM    9  C15 UNL     1     -29.340 -12.009  -0.470  1.00  0.00     0.179 C
HETATM   10  C16 UNL     1     -29.587 -13.466  -0.222  1.00  0.00     0.169 C
ENDROOT
BRANCH   4  11
HETATM   11  N1  UNL     1     -26.761 -15.031  -2.037  1.00  0.00    -0.287 N
ATOM     12  H1  UNL     1     -26.027 -15.516  -1.521  1.00  0.00     0.175 HD
BRANCH  11  13
HETATM   13  S1  UNL     1     -27.275 -15.492  -3.605  1.00  0.00     0.260 S
HETATM   14  O1  UNL     1     -26.058 -16.089  -4.299  1.00  0.00    -0.200 OA
HETATM   15  O2  UNL     1     -27.724 -14.349  -4.432  1.00  0.00    -0.200 OA
BRANCH  13  16
HETATM   16  C5  UNL     1     -28.484 -16.757  -3.574  1.00  0.00     0.079 A
HETATM   17  C6  UNL     1     -29.103 -17.144  -4.727  1.00  0.00     0.026 A
HETATM   18  C7  UNL     1     -30.055 -18.143  -4.687  1.00  0.00     0.008 A
HETATM   19  C8  UNL     1     -30.409 -18.773  -3.511  1.00  0.00    -0.062 A
HETATM   20  C9  UNL     1     -31.452 -19.857  -3.510  1.00  0.00     0.048 C
HETATM   21  C10 UNL     1     -29.779 -18.376  -2.351  1.00  0.00     0.008 A
HETATM   22  C11 UNL     1     -28.833 -17.381  -2.398  1.00  0.00     0.026 A
ENDBRANCH  13  16
ENDBRANCH  11  13
ENDBRANCH   4  11
BRANCH  10  23
HETATM   23  O6  UNL     1     -30.659 -13.855  -1.051  1.00  0.00    -0.391 OA
ATOM     24  H6  UNL     1     -31.021 -14.672  -0.727  1.00  0.00     0.210 HD
ENDBRANCH  10  23
BRANCH   9  25
HETATM   25  O5  UNL     1     -30.343 -11.308   0.245  1.00  0.00    -0.390 OA
ATOM     26  H5  UNL     1     -30.517 -10.509  -0.238  1.00  0.00     0.210 HD
ENDBRANCH   9  25
BRANCH   8  27
HETATM   27  O4  UNL     1     -28.143 -10.119   0.277  1.00  0.00    -0.390 OA
ATOM     28  H4  UNL     1     -29.060  -9.899   0.392  1.00  0.00     0.210 HD
ENDBRANCH   8  27
TORSDOF 6
ENDMDL