MODEL 4
REMARK VINA RESULT: -6.449740295      2.892      5.440
REMARK  6 active torsions:
REMARK  status: ('A' for Active; 'I' for Inactive)
REMARK    1  A    between atoms: C2_2  and  S1_3
REMARK    2  A    between atoms: S1_3  and  C3_6
REMARK    3  A    between atoms: C5_10  and  C6_11
REMARK    4  A    between atoms: C6_11  and  O4_12
REMARK    5  A    between atoms: N2_14  and  O5_16
REMARK    6  A    between atoms: C8_22  and  O7_24
ROOT
HETATM    1  C3  UNL     1     -25.417 -14.736  -3.098  1.00  0.00     0.206 C
HETATM    2  C4  UNL     1     -26.844 -14.248  -3.102  1.00  0.00     0.241 C
HETATM    3  O3  UNL     1     -27.280 -13.385  -3.862  1.00  0.00    -0.272 OA
HETATM    4  N1  UNL     1     -27.482 -14.996  -2.080  1.00  0.00    -0.314 N
HETATM    5  C5  UNL     1     -28.892 -15.139  -1.768  1.00  0.00     0.267 C
HETATM    6  N3  UNL     1     -29.140 -15.983  -0.632  1.00  0.00    -0.330 N
ATOM      7  H3  UNL     1     -30.024 -16.488  -0.566  1.00  0.00     0.165 HD
HETATM    8  C7  UNL     1     -28.185 -16.123   0.388  1.00  0.00     0.256 C
HETATM    9  O6  UNL     1     -28.559 -16.368   1.557  1.00  0.00    -0.270 OA
HETATM   10  C8  UNL     1     -26.713 -15.979   0.079  1.00  0.00     0.155 C
HETATM   11  C9  UNL     1     -26.146 -17.379   0.389  1.00  0.00     0.059 C
HETATM   12  C10 UNL     1     -26.482 -15.683  -1.322  1.00  0.00     0.138 C
HETATM   13  C11 UNL     1     -25.216 -14.864  -1.630  1.00  0.00     0.035 C
HETATM   14  C12 UNL     1     -25.261 -13.592  -0.857  1.00  0.00     0.014 C
ENDROOT
BRANCH   5  15
HETATM   15  C6  UNL     1     -29.595 -13.867  -1.527  1.00  0.00     0.179 C
HETATM   16  N2  UNL     1     -29.083 -12.718  -1.654  1.00  0.00    -0.248 N
ATOM     17  H2  UNL     1     -28.108 -12.635  -1.944  1.00  0.00     0.196 HD
BRANCH  15  18
HETATM   18  O4  UNL     1     -30.943 -13.995  -1.124  1.00  0.00    -0.345 OA
ATOM     19  H4  UNL     1     -31.169 -13.537  -0.324  1.00  0.00     0.219 HD
ENDBRANCH  15  18
BRANCH  16  20
HETATM   20  O5  UNL     1     -29.805 -11.592  -1.412  1.00  0.00    -0.288 OA
ATOM     21  H5  UNL     1     -29.412 -10.730  -1.479  1.00  0.00     0.244 HD
ENDBRANCH  16  20
ENDBRANCH   5  15
BRANCH   1  22
HETATM   22  S1  UNL     1     -24.339 -13.873  -4.075  1.00  0.00     0.157 S
HETATM   23  O1  UNL     1     -24.540 -14.283  -5.534  1.00  0.00    -0.227 OA
HETATM   24  O2  UNL     1     -24.447 -12.382  -4.071  1.00  0.00    -0.227 OA
BRANCH  22  25
HETATM   25  C2  UNL     1     -22.652 -14.268  -3.712  1.00  0.00     0.136 C
HETATM   26  C1  UNL     1     -21.973 -14.982  -4.830  1.00  0.00     0.021 C
ENDBRANCH  22  25
ENDBRANCH   1  22
BRANCH  10  27
HETATM   27  O7  UNL     1     -26.190 -15.163   1.043  1.00  0.00    -0.378 OA
ATOM     28  H7  UNL     1     -25.602 -14.563   0.599  1.00  0.00     0.211 HD
ENDBRANCH  10  27
TORSDOF 6
ENDMDL