MODEL 3
REMARK VINA RESULT: -6.592161773      3.092      5.528
REMARK  6 active torsions:
REMARK  status: ('A' for Active; 'I' for Inactive)
REMARK    1  A    between atoms: C4_5  and  O2_6
REMARK    2  A    between atoms: C7_10  and  O3_11
REMARK    3  A    between atoms: C9_14  and  O4_15
REMARK    4  A    between atoms: C12_19  and  O5_20
REMARK    5  A    between atoms: O5_20  and  S1_21
REMARK    6  A    between atoms: C14_25  and  O8_26
ROOT
HETATM    1  C1  UNL     1     -29.155 -15.964  -1.386  1.00  0.00     0.023 C
HETATM    2  C2  UNL     1     -29.049 -14.753  -1.872  1.00  0.00    -0.009 C
HETATM    3  C3  UNL     1     -29.758 -13.664  -1.229  1.00  0.00     0.184 C
HETATM    4  O1  UNL     1     -30.562 -13.823  -0.269  1.00  0.00    -0.290 OA
HETATM    5  C4  UNL     1     -29.503 -12.271  -1.757  1.00  0.00     0.199 C
HETATM    6  C5  UNL     1     -27.962 -12.236  -1.967  1.00  0.00     0.054 C
HETATM    7  C6  UNL     1     -27.395 -12.420  -0.652  1.00  0.00     0.016 C
HETATM    8  C7  UNL     1     -27.741 -13.050  -3.133  1.00  0.00     0.084 C
HETATM    9  C8  UNL     1     -28.241 -14.497  -3.037  1.00  0.00     0.096 C
HETATM   10  C9  UNL     1     -26.838 -14.962  -3.139  1.00  0.00     0.095 C
HETATM   11  C10 UNL     1     -26.084 -15.361  -1.968  1.00  0.00     0.010 C
HETATM   12  C11 UNL     1     -24.801 -15.007  -1.868  1.00  0.00     0.008 C
HETATM   13  C12 UNL     1     -24.198 -14.203  -2.980  1.00  0.00     0.194 C
HETATM   14  C14 UNL     1     -25.168 -13.069  -3.370  1.00  0.00     0.162 C
HETATM   15  C15 UNL     1     -26.517 -13.574  -3.685  1.00  0.00     0.092 C
ENDROOT
BRANCH  13  16
HETATM   16  O5  UNL     1     -23.841 -14.968  -4.065  1.00  0.00    -0.264 OA
BRANCH  16  17
HETATM   17  S1  UNL     1     -22.346 -14.545  -4.695  1.00  0.00     0.262 S
HETATM   18  C13 UNL     1     -21.321 -13.742  -3.490  1.00  0.00     0.194 C
HETATM   19  O6  UNL     1     -22.474 -13.639  -5.884  1.00  0.00    -0.199 OA
HETATM   20  O7  UNL     1     -21.650 -15.820  -5.102  1.00  0.00    -0.199 OA
ENDBRANCH  16  17
ENDBRANCH  13  16
BRANCH  14  21
HETATM   21  O8  UNL     1     -24.565 -12.460  -4.476  1.00  0.00    -0.392 OA
ATOM     22  H8  UNL     1     -24.822 -11.548  -4.412  1.00  0.00     0.210 HD
ENDBRANCH  14  21
BRANCH  10  23
HETATM   23  O4  UNL     1     -26.679 -16.002  -4.097  1.00  0.00    -0.384 OA
ATOM     24  H4  UNL     1     -26.377 -16.812  -3.705  1.00  0.00     0.211 HD
ENDBRANCH  10  23
BRANCH   8  25
HETATM   25  O3  UNL     1     -28.541 -12.440  -4.159  1.00  0.00    -0.388 OA
ATOM     26  H3  UNL     1     -28.326 -11.516  -4.113  1.00  0.00     0.210 HD
ENDBRANCH   8  25
BRANCH   5  27
HETATM   27  O2  UNL     1     -29.903 -11.299  -0.871  1.00  0.00    -0.387 OA
ATOM     28  H2  UNL     1     -29.246 -10.621  -0.763  1.00  0.00     0.210 HD
ENDBRANCH   5  27
TORSDOF 6
ENDMDL