MODEL 4
REMARK VINA RESULT: -6.576241718      2.948      6.400
REMARK  6 active torsions:
REMARK  status: ('A' for Active; 'I' for Inactive)
REMARK    1  A    between atoms: C2_2  and  C3_3
REMARK    2  A    between atoms: C5_5  and  C6_6
REMARK    3  A    between atoms: C16_18  and  C18_20
REMARK    4  A    between atoms: C19_22  and  O4_23
REMARK    5  A    between atoms: C20_25  and  O5_26
REMARK    6  A    between atoms: C22_30  and  O7_31
ROOT
HETATM    1  C3  UNL     1      26.151  18.370 -12.944  1.00  0.00     0.127 C
HETATM    2  C4  UNL     1      24.755  18.091 -12.648  1.00  0.00     0.032 C
HETATM    3  C5  UNL     1      24.115  16.924 -12.413  1.00  0.00     0.026 C
HETATM    4  C7  UNL     1      24.722  15.583 -12.408  1.00  0.00    -0.007 C
HETATM    5  C8  UNL     1      23.785  14.477 -12.834  1.00  0.00     0.021 C
HETATM    6  C9  UNL     1      25.207  15.143 -11.045  1.00  0.00     0.021 C
HETATM    7  C10 UNL     1      25.837  15.639 -13.447  1.00  0.00     0.039 C
HETATM    8  C11 UNL     1      26.242  14.296 -13.978  1.00  0.00     0.020 C
HETATM    9  C12 UNL     1      27.106  14.556 -15.218  1.00  0.00     0.047 C
HETATM   10  C13 UNL     1      28.253  15.368 -14.829  1.00  0.00    -0.046 C
HETATM   11  C14 UNL     1      29.246  15.519 -15.711  1.00  0.00    -0.020 C
HETATM   12  C15 UNL     1      29.127  14.862 -17.011  1.00  0.00     0.046 C
HETATM   13  C16 UNL     1      28.410  13.554 -17.023  1.00  0.00     0.039 C
HETATM   14  C17 UNL     1      29.511  12.479 -17.087  1.00  0.00     0.026 C
HETATM   15  C19 UNL     1      27.626  13.253 -15.783  1.00  0.00     0.141 C
HETATM   16  C20 UNL     1      28.310  16.017 -13.510  1.00  0.00     0.185 C
HETATM   17  C21 UNL     1      26.914  16.578 -13.177  1.00  0.00     0.126 C
HETATM   18  O6  UNL     1      26.728  17.730 -14.003  1.00  0.00    -0.352 OA
HETATM   19  C22 UNL     1      26.996  17.477 -12.057  1.00  0.00     0.198 C
ENDROOT
BRANCH   3  20
HETATM   20  C6  UNL     1      22.721  17.127 -12.164  1.00  0.00     0.205 C
HETATM   21  O1  UNL     1      22.235  17.111 -10.977  1.00  0.00    -0.644 OA
HETATM   22  O2  UNL     1      21.845  17.349 -13.201  1.00  0.00    -0.644 OA
ENDBRANCH   3  20
BRANCH   1  23
HETATM   23  C2  UNL     1      26.529  19.801 -12.927  1.00  0.00     0.007 C
HETATM   24  C1  UNL     1      26.531  20.589 -13.966  1.00  0.00     0.010 C
ENDBRANCH   1  23
BRANCH  19  25
HETATM   25  O7  UNL     1      28.269  18.082 -11.961  1.00  0.00    -0.389 OA
ATOM     26  H7  UNL     1      28.773  17.567 -11.341  1.00  0.00     0.210 HD
ENDBRANCH  19  25
BRANCH  16  27
HETATM   27  O5  UNL     1      28.786  15.158 -12.546  1.00  0.00    -0.388 OA
ATOM     28  H5  UNL     1      29.049  15.626 -11.762  1.00  0.00     0.210 HD
ENDBRANCH  16  27
BRANCH  15  29
HETATM   29  O4  UNL     1      26.526  12.460 -16.181  1.00  0.00    -0.394 OA
ATOM     30  H4  UNL     1      25.888  13.017 -16.610  1.00  0.00     0.210 HD
ENDBRANCH  15  29
BRANCH  13  31
HETATM   31  C18 UNL     1      27.587  13.454 -18.248  1.00  0.00     0.243 C
HETATM   32  O3  UNL     1      27.576  12.434 -18.902  1.00  0.00    -0.306 OA
ENDBRANCH  13  31
TORSDOF 6
ENDMDL