MODEL 5
REMARK VINA RESULT: -6.374122705      2.077      6.102
REMARK  7 active torsions:
REMARK  status: ('A' for Active; 'I' for Inactive)
REMARK    1  A    between atoms: C5_5  and  O1_6
REMARK    2  A    between atoms: C10_12  and  C11_13
REMARK    3  A    between atoms: C17_22  and  C18_23
REMARK    4  A    between atoms: C17_22  and  C19_26
REMARK    5  A    between atoms: C18_23  and  O4_24
REMARK    6  A    between atoms: C19_26  and  O5_27
REMARK    7  A    between atoms: C20_29  and  O6_30
ROOT
HETATM    1  C1  UNL     1      23.584  15.521 -14.927  1.00  0.00     0.023 C
HETATM    2  C2  UNL     1      25.034  15.803 -14.489  1.00  0.00     0.007 C
HETATM    3  C3  UNL     1      25.826  14.687 -15.076  1.00  0.00    -0.016 C
HETATM    4  C4  UNL     1      26.957  14.264 -14.585  1.00  0.00     0.003 C
HETATM    5  C5  UNL     1      27.520  14.891 -13.388  1.00  0.00     0.162 C
HETATM    6  C6  UNL     1      26.702  15.948 -12.755  1.00  0.00     0.073 C
HETATM    7  C7  UNL     1      27.020  15.953 -11.276  1.00  0.00     0.027 C
HETATM    8  C8  UNL     1      26.403  14.866 -10.484  1.00  0.00     0.008 C
HETATM    9  C9  UNL     1      25.296  14.213 -11.208  1.00  0.00     0.005 C
HETATM   10  C10 UNL     1      24.296  13.474 -10.351  1.00  0.00     0.052 C
HETATM   11  C12 UNL     1      22.978  13.984 -10.801  1.00  0.00     0.013 C
HETATM   12  C13 UNL     1      23.298  14.412 -12.253  1.00  0.00     0.011 C
HETATM   13  C14 UNL     1      24.493  15.256 -12.013  1.00  0.00    -0.033 C
HETATM   14  C15 UNL     1      24.006  16.259 -10.941  1.00  0.00     0.016 C
HETATM   15  C16 UNL     1      25.214  15.958 -13.036  1.00  0.00     0.032 C
HETATM   16  S1  UNL     1      27.340  17.494 -13.373  1.00  0.00     0.043 S
HETATM   17  O3  UNL     1      27.267  18.652 -12.151  1.00  0.00    -0.256 OA
HETATM   18  C17 UNL     1      26.483  17.924 -14.807  1.00  0.00     0.107 C
HETATM   19  C20 UNL     1      25.341  17.109 -15.243  1.00  0.00     0.155 C
ENDROOT
BRANCH  18  20
HETATM   20  C18 UNL     1      26.103  19.394 -14.696  1.00  0.00     0.192 C
BRANCH  20  21
HETATM   21  O4  UNL     1      27.149  20.265 -14.762  1.00  0.00    -0.399 OA
ATOM     22  H4  UNL     1      27.093  21.004 -14.167  1.00  0.00     0.209 HD
ENDBRANCH  20  21
ENDBRANCH  18  20
BRANCH  18  23
HETATM   23  C19 UNL     1      27.500  17.884 -15.958  1.00  0.00     0.192 C
BRANCH  23  24
HETATM   24  O5  UNL     1      28.788  17.733 -15.460  1.00  0.00    -0.399 OA
ATOM     25  H5  UNL     1      28.950  16.825 -15.231  1.00  0.00     0.209 HD
ENDBRANCH  23  24
ENDBRANCH  18  23
BRANCH  19  26
HETATM   26  O6  UNL     1      25.372  16.801 -16.612  1.00  0.00    -0.393 OA
ATOM     27  H6  UNL     1      24.480  16.862 -16.935  1.00  0.00     0.210 HD
ENDBRANCH  19  26
BRANCH   5  28
HETATM   28  O1  UNL     1      28.783  15.397 -13.807  1.00  0.00    -0.390 OA
ATOM     29  H1  UNL     1      29.419  14.897 -13.308  1.00  0.00     0.210 HD
ENDBRANCH   5  28
BRANCH  10  30
HETATM   30  C11 UNL     1      24.568  13.554  -8.902  1.00  0.00     0.236 C
HETATM   31  O2  UNL     1      23.805  14.103  -8.161  1.00  0.00    -0.306 OA
ENDBRANCH  10  30
TORSDOF 7
ENDMDL