MODEL 1
REMARK VINA RESULT: -7.429263862      0.000      0.000
REMARK  7 active torsions:
REMARK  status: ('A' for Active; 'I' for Inactive)
REMARK    1  A    between atoms: C2_2  and  C4_4
REMARK    2  A    between atoms: C4_4  and  O1_5
REMARK    3  A    between atoms: C4_4  and  C5_7
REMARK    4  A    between atoms: C14_16  and  O2_17
REMARK    5  A    between atoms: C15_19  and  N1_20
REMARK    6  A    between atoms: C20_26  and  O4_27
REMARK    7  A    between atoms: C22_30  and  O5_31
ROOT
HETATM    1  C5  UNL     1      28.481  16.387 -10.551  1.00  0.00     0.045 C
HETATM    2  C6  UNL     1      27.433  15.276 -10.276  1.00  0.00     0.020 C
HETATM    3  C7  UNL     1      26.405  15.675 -11.313  1.00  0.00    -0.031 C
HETATM    4  C8  UNL     1      26.991  15.402 -12.653  1.00  0.00     0.016 C
HETATM    5  C9  UNL     1      25.068  15.049 -11.173  1.00  0.00    -0.001 C
HETATM    6  C10 UNL     1      25.011  13.841 -10.291  1.00  0.00     0.007 C
HETATM    7  C11 UNL     1      23.726  13.118 -10.633  1.00  0.00     0.012 C
HETATM    8  C12 UNL     1      22.512  13.959 -10.533  1.00  0.00    -0.011 C
HETATM    9  C13 UNL     1      21.610  13.580  -9.351  1.00  0.00     0.018 C
HETATM   10  C14 UNL     1      21.676  13.853 -11.803  1.00  0.00     0.147 C
HETATM   11  C15 UNL     1      22.046  15.266 -12.176  1.00  0.00     0.123 C
HETATM   12  C17 UNL     1      22.637  15.389 -10.787  1.00  0.00     0.023 C
HETATM   13  C18 UNL     1      23.994  16.004 -10.702  1.00  0.00    -0.001 C
HETATM   14  C19 UNL     1      23.944  17.290 -11.495  1.00  0.00     0.037 C
HETATM   15  C20 UNL     1      25.349  17.797 -11.855  1.00  0.00     0.126 C
HETATM   16  C21 UNL     1      26.278  17.122 -10.948  1.00  0.00     0.052 C
HETATM   17  C22 UNL     1      27.691  17.607 -10.880  1.00  0.00     0.132 C
ENDROOT
BRANCH   1  18
HETATM   18  C4  UNL     1      29.440  16.466  -9.413  1.00  0.00     0.128 C
BRANCH  18  19
HETATM   19  C2  UNL     1      30.867  16.378  -9.824  1.00  0.00     0.006 C
HETATM   20  C1  UNL     1      31.638  17.626  -9.298  1.00  0.00     0.012 C
HETATM   21  C3  UNL     1      31.081  16.488 -11.343  1.00  0.00     0.012 C
ENDBRANCH  18  19
BRANCH  18  22
HETATM   22  O1  UNL     1      29.159  17.410  -8.448  1.00  0.00    -0.395 OA
ATOM     23  H1  UNL     1      28.432  17.201  -7.873  1.00  0.00     0.210 HD
ENDBRANCH  18  22
ENDBRANCH   1  18
BRANCH  17  24
HETATM   24  O5  UNL     1      28.105  18.228 -12.054  1.00  0.00    -0.395 OA
ATOM     25  H5  UNL     1      27.808  17.782 -12.839  1.00  0.00     0.210 HD
ENDBRANCH  17  24
BRANCH  15  26
HETATM   26  O4  UNL     1      25.407  19.189 -11.801  1.00  0.00    -0.395 OA
ATOM     27  H4  UNL     1      24.767  19.579 -12.383  1.00  0.00     0.210 HD
ENDBRANCH  15  26
BRANCH  11  28
HETATM   28  N1  UNL     1      20.940  16.177 -12.413  1.00  0.00    -0.163 NA
HETATM   29  C16 UNL     1      20.090  16.143 -13.464  1.00  0.00     0.315 A
HETATM   30  O3  UNL     1      21.102  17.154 -13.334  1.00  0.00    -0.284 OA
ENDBRANCH  11  28
BRANCH  10  31
HETATM   31  O2  UNL     1      22.133  12.885 -12.702  1.00  0.00    -0.393 OA
ATOM     32  H2  UNL     1      21.464  12.564 -13.295  1.00  0.00     0.210 HD
ENDBRANCH  10  31
TORSDOF 7
ENDMDL