MODEL 4
REMARK VINA RESULT: -6.574915261      1.089      1.111
REMARK  6 active torsions:
REMARK  status: ('A' for Active; 'I' for Inactive)
REMARK    1  A    between atoms: C3_3  and  C4_4
REMARK    2  A    between atoms: C6_7  and  C7_8
REMARK    3  A    between atoms: C9_11  and  O3_12
REMARK    4  A    between atoms: C10_14  and  C11_15
REMARK    5  A    between atoms: C13_19  and  O6_20
REMARK    6  A    between atoms: C14_22  and  O7_23
ROOT
HETATM    1  C4  UNL     1      25.477  16.297 -15.327  1.00  0.00     0.090 C
HETATM    2  C5  UNL     1      25.246  17.744 -15.580  1.00  0.00     0.149 C
HETATM    3  O1  UNL     1      24.681  18.251 -16.500  1.00  0.00    -0.296 OA
HETATM    4  C6  UNL     1      25.861  18.529 -14.445  1.00  0.00     0.161 C
HETATM    5  C9  UNL     1      26.144  17.426 -13.444  1.00  0.00     0.101 C
HETATM    6  C10 UNL     1      26.829  17.891 -12.273  1.00  0.00     0.155 C
HETATM    7  C12 UNL     1      28.076  17.239 -11.757  1.00  0.00    -0.020 A
HETATM    8  C13 UNL     1      28.406  16.948 -10.547  1.00  0.00     0.077 A
HETATM    9  C14 UNL     1      29.662  16.388 -10.871  1.00  0.00     0.186 A
HETATM   10  C15 UNL     1      29.338  16.734 -12.261  1.00  0.00     0.076 A
HETATM   11  C16 UNL     1      29.292  15.542 -13.130  1.00  0.00    -0.012 C
HETATM   12  C17 UNL     1      28.392  14.848 -13.769  1.00  0.00    -0.086 C
HETATM   13  C18 UNL     1      28.907  13.683 -14.532  1.00  0.00     0.043 C
HETATM   14  C19 UNL     1      26.904  15.057 -13.854  1.00  0.00     0.046 C
HETATM   15  C20 UNL     1      26.723  16.438 -14.400  1.00  0.00     0.007 C
HETATM   16  C21 UNL     1      27.784  16.939 -15.306  1.00  0.00     0.020 C
ENDROOT
BRANCH   1  17
HETATM   17  C3  UNL     1      25.776  15.538 -16.540  1.00  0.00    -0.018 C
HETATM   18  C2  UNL     1      24.933  14.610 -16.949  1.00  0.00    -0.034 C
HETATM   19  C1  UNL     1      25.170  13.791 -18.180  1.00  0.00     0.036 C
ENDBRANCH   1  17
BRANCH   4  20
HETATM   20  C7  UNL     1      25.105  19.684 -14.069  1.00  0.00     0.137 C
HETATM   21  C8  UNL     1      23.661  19.648 -13.784  1.00  0.00     0.091 C
HETATM   22  O2  UNL     1      25.639  20.778 -13.965  1.00  0.00    -0.297 OA
ENDBRANCH   4  20
BRANCH   5  23
HETATM   23  O3  UNL     1      24.867  16.876 -13.115  1.00  0.00    -0.387 OA
ATOM     24  H3  UNL     1      24.815  16.910 -12.166  1.00  0.00     0.210 HD
ENDBRANCH   5  23
BRANCH   6  25
HETATM   25  C11 UNL     1      25.846  18.012 -11.159  1.00  0.00     0.184 C
HETATM   26  O4  UNL     1      25.384  19.089 -10.746  1.00  0.00    -0.647 OA
HETATM   27  O5  UNL     1      25.425  16.846 -10.550  1.00  0.00    -0.647 OA
ENDBRANCH   6  25
BRANCH   8  28
HETATM   28  O6  UNL     1      27.800  17.095  -9.264  1.00  0.00    -0.362 OA
ATOM     29  H6  UNL     1      27.719  17.797  -8.629  1.00  0.00     0.217 HD
ENDBRANCH   8  28
BRANCH   9  30
HETATM   30  O7  UNL     1      30.814  17.030 -10.367  1.00  0.00    -0.388 OA
ATOM     31  H7  UNL     1      31.580  16.494 -10.201  1.00  0.00     0.210 HD
ENDBRANCH   9  30
TORSDOF 6
ENDMDL