MODEL 4
REMARK VINA RESULT: -6.349473587      2.431      4.946
REMARK  9 active torsions:
REMARK  status: ('A' for Active; 'I' for Inactive)
REMARK    1  A    between atoms: C2_2  and  C3_3
REMARK    2  A    between atoms: C4_4  and  C5_5
REMARK    3  A    between atoms: C5_5  and  C6_6
REMARK    4  A    between atoms: N1_9  and  S1_10
REMARK    5  A    between atoms: S1_10  and  C9_13
REMARK    6  A    between atoms: C12_16  and  C13_17
REMARK    7  A    between atoms: C13_17  and  O3_18
REMARK    8  A    between atoms: N2_20  and  O4_22
REMARK    9  A    between atoms: C15_25  and  O5_26
ROOT
HETATM    1  C6  UNL     1      28.256  16.273 -13.080  1.00  0.00     0.093 C
HETATM    2  C7  UNL     1      27.651  17.320 -13.951  1.00  0.00     0.060 C
HETATM    3  C8  UNL     1      26.221  17.158 -14.326  1.00  0.00     0.077 C
HETATM    4  N1  UNL     1      25.359  18.248 -14.127  1.00  0.00    -0.277 N
HETATM    5  C12 UNL     1      24.493  18.345 -13.052  1.00  0.00     0.179 C
HETATM    6  C14 UNL     1      24.654  17.457 -11.884  1.00  0.00     0.068 C
HETATM    7  C15 UNL     1      25.738  17.901 -10.891  1.00  0.00     0.138 C
HETATM    8  C16 UNL     1      26.404  16.704 -10.290  1.00  0.00     0.154 C
HETATM    9  N3  UNL     1      27.806  16.566 -10.542  1.00  0.00    -0.358 N
ATOM     10  H3  UNL     1      28.356  16.246  -9.745  1.00  0.00     0.162 HD
HETATM   11  C17 UNL     1      28.536  16.798 -11.699  1.00  0.00     0.223 C
HETATM   12  O6  UNL     1      29.578  17.543 -11.614  1.00  0.00    -0.273 OA
ENDROOT
BRANCH   5  13
HETATM   13  C13 UNL     1      23.087  18.292 -13.532  1.00  0.00     0.160 C
HETATM   14  N2  UNL     1      22.360  19.329 -13.614  1.00  0.00    -0.249 N
ATOM     15  H2  UNL     1      21.418  19.144 -13.960  1.00  0.00     0.196 HD
BRANCH  13  16
HETATM   16  O3  UNL     1      22.462  17.101 -13.923  1.00  0.00    -0.347 OA
ATOM     17  H3  UNL     1      21.565  16.890 -13.692  1.00  0.00     0.219 HD
ENDBRANCH  13  16
BRANCH  14  18
HETATM   18  O4  UNL     1      22.588  20.610 -13.337  1.00  0.00    -0.288 OA
ATOM     19  H4  UNL     1      22.014  21.364 -13.271  1.00  0.00     0.244 HD
ENDBRANCH  14  18
ENDBRANCH   5  13
BRANCH   4  20
HETATM   20  S1  UNL     1      25.779  19.638 -14.969  1.00  0.00     0.236 S
HETATM   21  O1  UNL     1      24.597  20.426 -15.509  1.00  0.00    -0.205 OA
HETATM   22  O2  UNL     1      26.592  20.644 -14.204  1.00  0.00    -0.205 OA
BRANCH  20  23
HETATM   23  C9  UNL     1      26.746  19.212 -16.427  1.00  0.00     0.121 C
HETATM   24  C10 UNL     1      25.876  18.982 -17.626  1.00  0.00     0.027 C
HETATM   25  C11 UNL     1      27.595  20.456 -16.720  1.00  0.00     0.027 C
ENDBRANCH  20  23
ENDBRANCH   4  20
BRANCH   7  26
HETATM   26  O5  UNL     1      25.133  18.714  -9.894  1.00  0.00    -0.394 OA
ATOM     27  H5  UNL     1      25.651  19.504  -9.793  1.00  0.00     0.210 HD
ENDBRANCH   7  26
BRANCH   1  28
HETATM   28  C5  UNL     1      27.593  14.939 -13.069  1.00  0.00     0.108 C
BRANCH  28  29
HETATM   29  C4  UNL     1      28.239  14.146 -14.156  1.00  0.00    -0.106 C
HETATM   30  C3  UNL     1      28.776  13.499 -15.019  1.00  0.00    -0.107 C
BRANCH  30  31
HETATM   31  C2  UNL     1      29.446  12.710 -16.054  1.00  0.00     0.089 C
HETATM   32  C1  UNL     1      30.213  13.674 -16.905  1.00  0.00     0.018 C
ENDBRANCH  30  31
ENDBRANCH  28  29
ENDBRANCH   1  28
TORSDOF 9
ENDMDL