MODEL 4
REMARK VINA RESULT: -6.707205299      2.244      5.125
REMARK  7 active torsions:
REMARK  status: ('A' for Active; 'I' for Inactive)
REMARK    1  A    between atoms: C8_8  and  C9_9
REMARK    2  A    between atoms: C9_9  and  C10_10
REMARK    3  A    between atoms: C10_10  and  O1_11
REMARK    4  A    between atoms: C13_15  and  O2_16
REMARK    5  A    between atoms: C14_18  and  C15_19
REMARK    6  A    between atoms: C16_20  and  O3_21
REMARK    7  A    between atoms: C19_26  and  O5_27
ROOT
HETATM    1  C1  UNL     1      24.229  20.167 -18.106  1.00  0.00     0.044 C
HETATM    2  C2  UNL     1      24.274  19.452 -16.785  1.00  0.00    -0.069 C
HETATM    3  C3  UNL     1      23.147  19.086 -16.209  1.00  0.00    -0.017 C
HETATM    4  C4  UNL     1      23.191  18.389 -14.928  1.00  0.00     0.024 C
HETATM    5  C5  UNL     1      21.916  18.318 -14.142  1.00  0.00     0.013 C
HETATM    6  C6  UNL     1      22.169  17.034 -13.280  1.00  0.00     0.028 C
HETATM    7  C7  UNL     1      23.226  17.603 -12.339  1.00  0.00    -0.023 C
HETATM    8  C8  UNL     1      24.215  18.376 -12.742  1.00  0.00    -0.070 C
HETATM    9  C11 UNL     1      24.415  18.814 -14.148  1.00  0.00     0.019 C
HETATM   10  C12 UNL     1      24.279  20.334 -14.025  1.00  0.00     0.024 C
HETATM   11  C13 UNL     1      25.510  18.302 -14.957  1.00  0.00     0.092 C
HETATM   12  C14 UNL     1      26.894  18.039 -14.654  1.00  0.00     0.039 C
HETATM   13  C20 UNL     1      27.615  18.208 -15.981  1.00  0.00     0.087 C
HETATM   14  C21 UNL     1      26.508  18.367 -17.001  1.00  0.00     0.142 C
HETATM   15  O6  UNL     1      26.484  17.912 -18.080  1.00  0.00    -0.297 OA
HETATM   16  C22 UNL     1      25.574  19.226 -16.187  1.00  0.00     0.072 C
HETATM   17  C23 UNL     1      26.360  20.476 -16.015  1.00  0.00     0.031 C
ENDROOT
BRANCH  12  18
HETATM   18  C15 UNL     1      27.279  16.724 -14.094  1.00  0.00     0.056 C
HETATM   19  C16 UNL     1      28.224  15.812 -14.796  1.00  0.00     0.157 C
HETATM   20  C17 UNL     1      28.523  14.879 -13.634  1.00  0.00     0.182 A
HETATM   21  O4  UNL     1      29.489  14.762 -12.785  1.00  0.00    -0.370 OA
HETATM   22  C18 UNL     1      29.171  16.031 -12.802  1.00  0.00     0.182 A
HETATM   23  C19 UNL     1      27.931  16.802 -12.701  1.00  0.00     0.157 C
BRANCH  19  24
HETATM   24  O3  UNL     1      29.395  16.261 -15.276  1.00  0.00    -0.392 OA
ATOM     25  H3  UNL     1      30.219  15.876 -15.001  1.00  0.00     0.210 HD
ENDBRANCH  19  24
BRANCH  23  26
HETATM   26  O5  UNL     1      28.193  18.114 -12.329  1.00  0.00    -0.392 OA
ATOM     27  H5  UNL     1      29.126  18.291 -12.294  1.00  0.00     0.210 HD
ENDBRANCH  23  26
ENDBRANCH  12  18
BRANCH  11  28
HETATM   28  O2  UNL     1      25.088  17.028 -15.468  1.00  0.00    -0.387 OA
ATOM     29  H2  UNL     1      25.469  16.365 -14.904  1.00  0.00     0.210 HD
ENDBRANCH  11  28
BRANCH   8  30
HETATM   30  C9  UNL     1      25.185  18.881 -11.694  1.00  0.00     0.060 C
BRANCH  30  31
HETATM   31  C10 UNL     1      25.165  18.167 -10.404  1.00  0.00     0.168 C
BRANCH  31  32
HETATM   32  O1  UNL     1      26.370  17.753  -9.891  1.00  0.00    -0.401 OA
ATOM     33  H1  UNL     1      27.157  18.011 -10.358  1.00  0.00     0.209 HD
ENDBRANCH  31  32
ENDBRANCH  30  31
ENDBRANCH   8  30
TORSDOF 7
ENDMDL