MODEL 2
REMARK VINA RESULT: -6.525188698      3.037      5.213
REMARK  7 active torsions:
REMARK  status: ('A' for Active; 'I' for Inactive)
REMARK    1  A    between atoms: C4_4  and  O1_5
REMARK    2  A    between atoms: C6_8  and  O2_9
REMARK    3  A    between atoms: O2_9  and  C7_10
REMARK    4  A    between atoms: C12_16  and  C13_17
REMARK    5  A    between atoms: C13_17  and  O4_18
REMARK    6  A    between atoms: C17_26  and  C19_28
REMARK    7  A    between atoms: C19_28  and  C20_29
REMARK       I    between atoms: C20_29  and  N2_31
ROOT
HETATM    1  C1  UNL     1      27.577  14.835 -13.740  1.00  0.00     0.016 C
HETATM    2  C2  UNL     1      27.541  16.130 -13.460  1.00  0.00    -0.065 C
HETATM    3  C3  UNL     1      28.095  17.064 -12.462  1.00  0.00     0.090 C
HETATM    4  C4  UNL     1      26.981  18.024 -12.806  1.00  0.00     0.088 C
HETATM    5  C5  UNL     1      25.818  17.602 -11.937  1.00  0.00     0.058 C
HETATM    6  C6  UNL     1      24.886  16.872 -12.821  1.00  0.00     0.148 C
HETATM    7  C9  UNL     1      25.371  17.154 -14.270  1.00  0.00    -0.004 C
HETATM    8  C10 UNL     1      24.954  16.046 -15.177  1.00  0.00     0.019 C
HETATM    9  C11 UNL     1      24.833  18.450 -14.781  1.00  0.00     0.019 C
HETATM   10  C12 UNL     1      26.856  17.286 -14.098  1.00  0.00     0.046 C
HETATM   11  C14 UNL     1      26.397  16.807 -10.771  1.00  0.00     0.030 C
HETATM   12  C15 UNL     1      25.608  15.579 -10.464  1.00  0.00     0.013 C
HETATM   13  C16 UNL     1      27.835  16.657 -11.018  1.00  0.00     0.173 A
HETATM   14  N1  UNL     1      28.643  17.605 -10.129  1.00  0.00    -0.051 N
ATOM     15  H11 UNL     1      28.456  18.268  -9.376  1.00  0.00     0.279 HD
ATOM     16  H12 UNL     1      29.157  18.479 -10.239  1.00  0.00     0.279 HD
HETATM   17  C17 UNL     1      28.924  16.141 -10.258  1.00  0.00     0.165 A
HETATM   18  C18 UNL     1      28.740  15.327  -9.007  1.00  0.00     0.049 C
ENDROOT
BRANCH  17  19
HETATM   19  C19 UNL     1      30.191  15.896 -11.019  1.00  0.00     0.143 C
BRANCH  19  20
HETATM   20  C20 UNL     1      31.300  16.728 -10.525  1.00  0.00     0.219 C
HETATM   21  O5  UNL     1      31.453  17.111  -9.336  1.00  0.00    -0.274 OA
HETATM   22  N2  UNL     1      32.314  17.152 -11.466  1.00  0.00    -0.365 N
HETATM   23  C21 UNL     1      33.392  17.961 -10.982  1.00  0.00     0.149 C
ATOM     24  H2  UNL     1      32.263  16.882 -12.448  1.00  0.00     0.161 HD
ENDBRANCH  19  20
ENDBRANCH  17  19
BRANCH   4  25
HETATM   25  O1  UNL     1      27.289  19.357 -12.841  1.00  0.00    -0.387 OA
ATOM     26  H1  UNL     1      26.980  19.896 -12.122  1.00  0.00     0.210 HD
ENDBRANCH   4  25
BRANCH  10  27
HETATM   27  C13 UNL     1      27.603  17.820 -15.266  1.00  0.00     0.182 C
BRANCH  27  28
HETATM   28  O4  UNL     1      27.283  19.140 -15.529  1.00  0.00    -0.400 OA
ATOM     29  H4  UNL     1      28.056  19.674 -15.670  1.00  0.00     0.209 HD
ENDBRANCH  27  28
ENDBRANCH  10  27
BRANCH   6  30
HETATM   30  O2  UNL     1      23.578  17.469 -12.819  1.00  0.00    -0.315 OA
BRANCH  30  31
HETATM   31  C7  UNL     1      22.601  17.185 -11.907  1.00  0.00     0.255 C
HETATM   32  C8  UNL     1      21.725  16.025 -12.121  1.00  0.00     0.126 C
HETATM   33  O3  UNL     1      22.451  17.899 -10.903  1.00  0.00    -0.266 OA
ENDBRANCH  30  31
ENDBRANCH   6  30
TORSDOF 7
ENDMDL