MODEL 4
REMARK VINA RESULT: -7.021523565      1.901      4.484
REMARK  6 active torsions:
REMARK  status: ('A' for Active; 'I' for Inactive)
REMARK    1  A    between atoms: C2_2  and  C3_3
REMARK    2  A    between atoms: C7_8  and  C8_9
REMARK    3  A    between atoms: C8_9  and  O2_12
REMARK    4  A    between atoms: C12_15  and  O3_16
REMARK    5  A    between atoms: C15_20  and  C16_21
REMARK    6  A    between atoms: C16_21  and  O4_22
ROOT
HETATM    1  C3  UNL     1      25.508  19.187 -15.346  1.00  0.00    -0.007 C
HETATM    2  C4  UNL     1      24.034  19.619 -15.284  1.00  0.00     0.007 C
HETATM    3  C5  UNL     1      23.803  19.897 -13.783  1.00  0.00     0.033 C
HETATM    4  C6  UNL     1      24.396  18.638 -13.266  1.00  0.00     0.127 C
HETATM    5  O1  UNL     1      24.578  18.411 -12.012  1.00  0.00    -0.377 OA
HETATM    6  C7  UNL     1      24.146  17.446 -11.203  1.00  0.00     0.158 C
HETATM    7  C11 UNL     1      25.253  16.712 -10.423  1.00  0.00     0.069 C
HETATM    8  C12 UNL     1      25.974  15.647 -11.105  1.00  0.00     0.151 C
HETATM    9  C13 UNL     1      27.378  15.803 -11.530  1.00  0.00     0.088 A
HETATM   10  C14 UNL     1      27.953  15.048 -12.678  1.00  0.00     0.072 C
HETATM   11  C15 UNL     1      28.098  15.812 -13.952  1.00  0.00    -0.057 C
HETATM   12  C17 UNL     1      27.516  16.951 -14.412  1.00  0.00    -0.009 C
HETATM   13  C18 UNL     1      26.533  17.658 -13.568  1.00  0.00     0.088 C
HETATM   14  C19 UNL     1      27.303  17.972 -12.323  1.00  0.00     0.165 C
HETATM   15  O5  UNL     1      27.282  19.111 -11.910  1.00  0.00    -0.294 OA
HETATM   16  C20 UNL     1      28.087  17.076 -11.534  1.00  0.00     0.112 A
HETATM   17  C21 UNL     1      29.565  17.116 -12.009  1.00  0.00     0.049 C
HETATM   18  N1  UNL     1      28.084  16.324 -10.424  1.00  0.00    -0.391 N
ATOM     19  H1  UNL     1      28.384  16.208  -9.455  1.00  0.00     0.155 HD
HETATM   20  C22 UNL     1      25.800  18.803 -13.957  1.00  0.00     0.033 C
ENDROOT
BRANCH   6  21
HETATM   21  C8  UNL     1      23.011  16.587 -11.598  1.00  0.00     0.077 C
HETATM   22  C9  UNL     1      21.733  17.453 -11.608  1.00  0.00     0.048 C
HETATM   23  C10 UNL     1      22.770  15.579 -10.491  1.00  0.00     0.048 C
BRANCH  21  24
HETATM   24  O2  UNL     1      23.094  15.913 -12.777  1.00  0.00    -0.388 OA
ATOM     25  H2  UNL     1      22.290  15.739 -13.252  1.00  0.00     0.210 HD
ENDBRANCH  21  24
ENDBRANCH   6  21
BRANCH   8  26
HETATM   26  O3  UNL     1      26.098  14.549 -10.176  1.00  0.00    -0.393 OA
ATOM     27  H3  UNL     1      25.535  14.739  -9.435  1.00  0.00     0.210 HD
ENDBRANCH   8  26
BRANCH   1  28
HETATM   28  C2  UNL     1      26.209  20.490 -15.757  1.00  0.00     0.000 C
HETATM   29  C1  UNL     1      27.356  20.289 -16.664  1.00  0.00     0.005 C
ENDBRANCH   1  28
BRANCH  11  30
HETATM   30  C16 UNL     1      29.073  15.235 -14.945  1.00  0.00     0.198 C
BRANCH  30  31
HETATM   31  O4  UNL     1      29.157  16.115 -16.022  1.00  0.00    -0.397 OA
ATOM     32  H4  UNL     1      30.060  16.403 -16.093  1.00  0.00     0.209 HD
ENDBRANCH  30  31
ENDBRANCH  11  30
TORSDOF 6
ENDMDL