MODEL 1
REMARK VINA RESULT: -6.972242903      0.000      0.000
REMARK  5 active torsions:
REMARK  status: ('A' for Active; 'I' for Inactive)
REMARK    1  A    between atoms: C4_4  and  N1_5
REMARK    2  A    between atoms: C9_15  and  C10_16
REMARK    3  A    between atoms: C10_16  and  N4_17
REMARK    4  A    between atoms: N4_17  and  C11_19
REMARK    5  A    between atoms: C11_19  and  N5_21
ROOT
HETATM    1  N1  UNL     1     -26.397 -11.124  -1.473  1.00  0.00    -0.302 N
HETATM    2  C5  UNL     1     -25.450 -11.507  -0.428  1.00  0.00     0.164 C
HETATM    3  C6  UNL     1     -26.283  -9.829  -1.975  1.00  0.00     0.181 C
HETATM    4  N2  UNL     1     -26.196  -8.748  -2.389  1.00  0.00    -0.172 NA
ENDROOT
BRANCH   1   5
HETATM    5  C4  UNL     1     -27.380 -12.086  -1.922  1.00  0.00     0.198 C
HETATM    6  C3  UNL     1     -26.957 -12.628  -3.262  1.00  0.00     0.080 C
HETATM    7  C2  UNL     1     -26.378 -14.024  -3.116  1.00  0.00     0.185 C
HETATM    8  C1  UNL     1     -25.163 -14.215  -3.994  1.00  0.00     0.040 C
HETATM    9  N7  UNL     1     -27.391 -14.956  -3.596  1.00  0.00    -0.069 N
HETATM   10  C13 UNL     1     -27.204 -16.190  -2.880  1.00  0.00     0.266 C
ATOM     11  H72 UNL     1     -28.340 -14.590  -3.521  1.00  0.00     0.277 HD
ATOM     12  H71 UNL     1     -27.377 -15.076  -4.609  1.00  0.00     0.277 HD
HETATM   13  C9  UNL     1     -28.327 -16.269  -1.838  1.00  0.00     0.165 C
HETATM   14  O2  UNL     1     -29.422 -15.622  -2.313  1.00  0.00    -0.373 OA
HETATM   15  C8  UNL     1     -29.635 -14.351  -1.885  1.00  0.00     0.271 C
HETATM   16  C7  UNL     1     -28.777 -13.876  -0.805  1.00  0.00     0.242 C
HETATM   17  N3  UNL     1     -27.612 -13.112  -0.948  1.00  0.00    -0.337 N
HETATM   18  O1  UNL     1     -29.119 -14.184   0.388  1.00  0.00    -0.271 OA
ATOM     19  H3  UNL     1     -26.853 -13.306  -0.295  1.00  0.00     0.164 HD
BRANCH  13  20
HETATM   20  C10 UNL     1     -28.604 -17.747  -1.648  1.00  0.00     0.155 C
BRANCH  20  21
HETATM   21  N4  UNL     1     -29.971 -18.089  -1.883  1.00  0.00    -0.364 N
ATOM     22  H4  UNL     1     -30.696 -17.800  -1.225  1.00  0.00     0.162 HD
BRANCH  21  23
HETATM   23  C11 UNL     1     -30.310 -18.836  -3.041  1.00  0.00     0.180 C
HETATM   24  S1  UNL     1     -31.677 -19.758  -3.050  1.00  0.00    -0.040 SA
BRANCH  23  25
HETATM   25  N5  UNL     1     -29.510 -18.826  -4.213  1.00  0.00    -0.270 N
HETATM   26  C12 UNL     1     -29.442 -17.682  -5.030  1.00  0.00     0.184 C
HETATM   27  N6  UNL     1     -29.374 -16.734  -5.689  1.00  0.00    -0.172 NA
ATOM     28  H5  UNL     1     -28.978 -19.659  -4.466  1.00  0.00     0.180 HD
ENDBRANCH  23  25
ENDBRANCH  21  23
ENDBRANCH  20  21
ENDBRANCH  13  20
ENDBRANCH   1   5
TORSDOF 5
ENDMDL