MODEL 3
REMARK VINA RESULT: -7.497195133      0.871      1.948
REMARK  7 active torsions:
REMARK  status: ('A' for Active; 'I' for Inactive)
REMARK    1  A    between atoms: C3_5  and  N2_6
REMARK    2  A    between atoms: N2_6  and  C4_8
REMARK    3  A    between atoms: C4_8  and  C5_9
REMARK    4  A    between atoms: C5_9  and  N3_10
REMARK    5  A    between atoms: C8_14  and  C9_15
REMARK    6  A    between atoms: C10_16  and  C11_17
REMARK    7  A    between atoms: C12_18  and  O1_19
ROOT
HETATM    1  C1  UNL     1     -25.673 -14.296  -1.034  1.00  0.00     0.070 C
HETATM    2  C2  UNL     1     -24.953 -14.224  -2.369  1.00  0.00     0.033 A
HETATM    3  N1  UNL     1     -23.871 -13.518  -2.529  1.00  0.00    -0.339 N
ATOM      4  H1  UNL     1     -23.477 -12.987  -1.752  1.00  0.00     0.168 HD
HETATM    5  C3  UNL     1     -23.289 -13.501  -3.726  1.00  0.00     0.146 A
HETATM    6  S1  UNL     1     -24.306 -14.517  -4.657  1.00  0.00    -0.043 SA
HETATM    7  C8  UNL     1     -25.437 -14.915  -3.446  1.00  0.00     0.084 A
ENDROOT
BRANCH   7   8
HETATM    8  C9  UNL     1     -26.619 -15.766  -3.511  1.00  0.00    -0.051 C
HETATM    9  C10 UNL     1     -27.584 -16.486  -3.576  1.00  0.00    -0.051 C
BRANCH   9  10
HETATM   10  C11 UNL     1     -28.724 -17.369  -3.658  1.00  0.00     0.137 A
HETATM   11  C12 UNL     1     -29.537 -17.424  -4.775  1.00  0.00     0.168 A
HETATM   12  N4  UNL     1     -30.610 -18.255  -4.854  1.00  0.00    -0.288 N
HETATM   13  C13 UNL     1     -30.907 -19.069  -3.800  1.00  0.00     0.329 A
ATOM     14  H4  UNL     1     -31.188 -18.270  -5.694  1.00  0.00     0.172 HD
HETATM   15  O2  UNL     1     -31.908 -19.813  -3.930  1.00  0.00    -0.247 OA
HETATM   16  N5  UNL     1     -30.130 -19.034  -2.701  1.00  0.00    -0.274 N
HETATM   17  C14 UNL     1     -29.055 -18.207  -2.609  1.00  0.00     0.272 A
ATOM     18  H5  UNL     1     -30.354 -19.645  -1.915  1.00  0.00     0.173 HD
HETATM   19  O3  UNL     1     -28.317 -18.153  -1.603  1.00  0.00    -0.266 OA
BRANCH  11  20
HETATM   20  O1  UNL     1     -29.275 -16.618  -5.865  1.00  0.00    -0.345 OA
ATOM     21  H1  UNL     1     -29.577 -16.871  -6.729  1.00  0.00     0.219 HD
ENDBRANCH  11  20
ENDBRANCH   9  10
ENDBRANCH   7   8
BRANCH   5  22
HETATM   22  N2  UNL     1     -22.205 -12.874  -4.121  1.00  0.00    -0.366 N
ATOM     23  H2  UNL     1     -21.720 -12.218  -3.509  1.00  0.00     0.162 HD
BRANCH  22  24
HETATM   24  C4  UNL     1     -21.730 -13.152  -5.452  1.00  0.00     0.166 C
BRANCH  24  25
HETATM   25  C5  UNL     1     -22.010 -12.002  -6.399  1.00  0.00     0.076 C
BRANCH  25  26
HETATM   26  N3  UNL     1     -21.112 -10.927  -6.336  1.00  0.00    -0.400 N
HETATM   27  C6  UNL     1     -21.532  -9.695  -5.798  1.00  0.00     0.148 C
HETATM   28  C7  UNL     1     -19.735 -11.142  -6.511  1.00  0.00     0.148 C
ENDBRANCH  25  26
ENDBRANCH  24  25
ENDBRANCH  22  24
ENDBRANCH   5  22
TORSDOF 7
ENDMDL