MODEL 5
REMARK VINA RESULT: -6.661763991      2.909      5.892
REMARK  6 active torsions:
REMARK  status: ('A' for Active; 'I' for Inactive)
REMARK    1  A    between atoms: N1_2  and  C2_4
REMARK    2  A    between atoms: C3_9  and  N4_10
REMARK    3  A    between atoms: N4_10  and  C4_12
REMARK    4  A    between atoms: C4_12  and  C5_13
REMARK    5  A    between atoms: C14_24  and  C15_25
REMARK    6  A    between atoms: C15_25  and  O2_26
ROOT
HETATM    1  C2  UNL     1     -24.584 -14.464   0.390  1.00  0.00     0.132 A
HETATM    2  N2  UNL     1     -23.842 -13.599  -0.292  1.00  0.00    -0.283 N
ATOM      3  H2  UNL     1     -23.127 -13.068   0.205  1.00  0.00     0.188 HD
HETATM    4  N3  UNL     1     -23.991 -13.401  -1.585  1.00  0.00    -0.283 N
ATOM      5  H3  UNL     1     -23.390 -12.723  -2.053  1.00  0.00     0.188 HD
HETATM    6  C3  UNL     1     -24.931 -14.078  -2.326  1.00  0.00     0.128 A
HETATM    7  C8  UNL     1     -25.705 -14.967  -1.663  1.00  0.00     0.046 A
HETATM    8  C9  UNL     1     -25.535 -15.170  -0.275  1.00  0.00     0.092 A
HETATM    9  C10 UNL     1     -26.330 -16.079   0.396  1.00  0.00     0.262 A
HETATM   10  O1  UNL     1     -26.118 -16.205   1.638  1.00  0.00    -0.267 OA
HETATM   11  N5  UNL     1     -27.267 -16.780  -0.236  1.00  0.00    -0.317 N
HETATM   12  C11 UNL     1     -28.102 -17.730   0.455  1.00  0.00     0.159 C
HETATM   13  C12 UNL     1     -27.444 -16.601  -1.556  1.00  0.00     0.055 A
HETATM   14  C13 UNL     1     -28.423 -17.338  -2.206  1.00  0.00     0.058 A
HETATM   15  C14 UNL     1     -28.619 -17.172  -3.550  1.00  0.00     0.038 A
HETATM   16  N6  UNL     1     -27.880 -16.310  -4.241  1.00  0.00    -0.324 N
ATOM     17  H6  UNL     1     -28.048 -16.206  -5.242  1.00  0.00     0.169 HD
HETATM   18  C16 UNL     1     -26.897 -15.555  -3.648  1.00  0.00     0.259 A
HETATM   19  O3  UNL     1     -26.337 -14.837  -4.424  1.00  0.00    -0.267 OA
HETATM   20  C17 UNL     1     -26.685 -15.699  -2.326  1.00  0.00     0.074 A
ENDROOT
BRANCH   6  21
HETATM   21  N4  UNL     1     -24.952 -13.781  -3.529  1.00  0.00    -0.374 N
ATOM     22  H4  UNL     1     -25.726 -14.143  -4.086  1.00  0.00     0.161 HD
BRANCH  21  23
HETATM   23  C4  UNL     1     -23.959 -12.953  -4.218  1.00  0.00     0.125 C
BRANCH  23  24
HETATM   24  C5  UNL     1     -23.438 -13.544  -5.475  1.00  0.00    -0.005 C
HETATM   25  C6  UNL     1     -22.506 -14.729  -5.171  1.00  0.00     0.011 C
HETATM   26  C7  UNL     1     -22.574 -12.484  -6.157  1.00  0.00     0.011 C
ENDBRANCH  23  24
ENDBRANCH  21  23
ENDBRANCH   6  21
BRANCH   1  27
HETATM   27  N1  UNL     1     -24.422 -14.643   1.655  1.00  0.00    -0.379 N
HETATM   28  C1  UNL     1     -23.171 -14.521   2.341  1.00  0.00     0.147 C
ATOM     29  H1  UNL     1     -25.243 -14.889   2.207  1.00  0.00     0.160 HD
ENDBRANCH   1  27
BRANCH  15  30
HETATM   30  C15 UNL     1     -29.667 -17.970  -4.211  1.00  0.00     0.221 C
BRANCH  30  31
HETATM   31  O2  UNL     1     -29.138 -18.854  -5.146  1.00  0.00    -0.395 OA
ATOM     32  H2  UNL     1     -29.764 -19.522  -5.398  1.00  0.00     0.209 HD
ENDBRANCH  30  31
ENDBRANCH  15  30
TORSDOF 6
ENDMDL