MODEL 1
REMARK VINA RESULT: -6.711050449      0.000      0.000
REMARK  6 active torsions:
REMARK  status: ('A' for Active; 'I' for Inactive)
REMARK    1  A    between atoms: N1_2  and  C3_4
REMARK    2  A    between atoms: C4_5  and  N2_6
REMARK    3  A    between atoms: N2_6  and  C5_8
REMARK    4  A    between atoms: C5_8  and  N3_10
REMARK    5  A    between atoms: N3_10  and  C6_12
REMARK    6  A    between atoms: C10_19  and  O1_20
ROOT
HETATM    1  C3  UNL     1     -24.058 -14.074  -2.854  1.00  0.00     0.278 C
HETATM    2  C4  UNL     1     -24.956 -14.156  -4.036  1.00  0.00     0.151 C
HETATM    3  C10 UNL     1     -23.998 -14.254  -5.224  1.00  0.00     0.174 C
HETATM    4  C11 UNL     1     -22.628 -13.950  -4.702  1.00  0.00     0.187 C
HETATM    5  O2  UNL     1     -22.014 -12.915  -5.401  1.00  0.00    -0.345 OA
HETATM    6  C12 UNL     1     -22.223 -11.741  -4.718  1.00  0.00     0.158 C
HETATM    7  C13 UNL     1     -22.634 -10.676  -5.690  1.00  0.00     0.078 C
HETATM    8  C14 UNL     1     -20.916 -11.346  -4.058  1.00  0.00     0.078 C
HETATM    9  O3  UNL     1     -23.185 -12.000  -3.741  1.00  0.00    -0.346 OA
HETATM   10  C15 UNL     1     -22.883 -13.307  -3.356  1.00  0.00     0.192 C
ENDROOT
BRANCH   2  11
HETATM   11  N2  UNL     1     -25.707 -15.375  -4.013  1.00  0.00    -0.358 N
ATOM     12  H2  UNL     1     -25.233 -16.236  -4.285  1.00  0.00     0.162 HD
BRANCH  11  13
HETATM   13  C5  UNL     1     -27.076 -15.457  -3.635  1.00  0.00     0.168 C
HETATM   14  S1  UNL     1     -27.994 -14.111  -3.491  1.00  0.00    -0.041 SA
BRANCH  13  15
HETATM   15  N3  UNL     1     -27.695 -16.700  -3.369  1.00  0.00    -0.361 N
ATOM     16  H3  UNL     1     -27.119 -17.457  -3.003  1.00  0.00     0.162 HD
BRANCH  15  17
HETATM   17  C6  UNL     1     -29.097 -16.953  -3.588  1.00  0.00     0.111 C
HETATM   18  C7  UNL     1     -29.631 -18.077  -2.758  1.00  0.00     0.054 C
HETATM   19  C8  UNL     1     -30.415 -18.909  -3.751  1.00  0.00     0.234 C
HETATM   20  N4  UNL     1     -29.625 -18.793  -4.976  1.00  0.00    -0.073 N
HETATM   21  C9  UNL     1     -29.414 -17.337  -5.000  1.00  0.00     0.257 C
ATOM     22  H42 UNL     1     -28.782 -19.366  -5.020  1.00  0.00     0.277 HD
ATOM     23  H41 UNL     1     -30.041 -19.197  -5.814  1.00  0.00     0.277 HD
ENDBRANCH  15  17
ENDBRANCH  13  15
ENDBRANCH  11  13
ENDBRANCH   2  11
BRANCH   1  24
HETATM   24  N1  UNL     1     -24.663 -13.465  -1.690  1.00  0.00     0.089 N
HETATM   25  C1  UNL     1     -25.187 -14.451  -0.800  1.00  0.00     0.310 C
HETATM   26  C2  UNL     1     -23.618 -12.739  -0.989  1.00  0.00     0.310 C
ENDBRANCH   1  24
BRANCH   3  27
HETATM   27  O1  UNL     1     -23.965 -15.558  -5.742  1.00  0.00    -0.391 OA
ATOM     28  H1  UNL     1     -24.699 -15.714  -6.324  1.00  0.00     0.210 HD
ENDBRANCH   3  27
TORSDOF 6
ENDMDL