MODEL 3
REMARK VINA RESULT: -6.049057594      1.232      1.744
REMARK  5 active torsions:
REMARK  status: ('A' for Active; 'I' for Inactive)
REMARK    1  A    between atoms: C2_2  and  N1_5
REMARK    2  A    between atoms: N1_5  and  S1_7
REMARK    3  A    between atoms: S1_7  and  N2_10
REMARK    4  A    between atoms: N2_10  and  C5_12
REMARK    5  A    between atoms: C8_19  and  C10_21
ROOT
HETATM    1  C5  UNL     1     -28.404 -16.889  -0.321  1.00  0.00     0.231 C
HETATM    2  N3  UNL     1     -29.427 -17.669  -0.986  1.00  0.00    -0.318 N
ATOM      3  H3  UNL     1     -30.134 -18.247  -0.531  1.00  0.00     0.166 HD
HETATM    4  C6  UNL     1     -29.268 -17.484  -2.390  1.00  0.00     0.321 C
HETATM    5  O3  UNL     1     -30.090 -17.785  -3.305  1.00  0.00    -0.247 OA
HETATM    6  N4  UNL     1     -28.006 -16.890  -2.654  1.00  0.00    -0.315 N
HETATM    7  C7  UNL     1     -27.176 -16.350  -3.697  1.00  0.00     0.160 C
HETATM    8  C8  UNL     1     -26.902 -14.887  -3.317  1.00  0.00     0.111 C
HETATM    9  C9  UNL     1     -28.069 -14.006  -3.615  1.00  0.00     0.040 C
HETATM   10  S2  UNL     1     -26.662 -15.092  -1.505  1.00  0.00    -0.117 SA
HETATM   11  C11 UNL     1     -27.313 -16.808  -1.378  1.00  0.00     0.195 C
ENDROOT
BRANCH   1  12
HETATM   12  N2  UNL     1     -27.856 -17.691   0.747  1.00  0.00    -0.278 N
ATOM     13  H2  UNL     1     -27.579 -18.664   0.611  1.00  0.00     0.176 HD
BRANCH  12  14
HETATM   14  S1  UNL     1     -27.703 -16.904   2.249  1.00  0.00     0.317 S
HETATM   15  O1  UNL     1     -29.078 -16.374   2.635  1.00  0.00    -0.183 OA
HETATM   16  O2  UNL     1     -26.771 -15.715   2.014  1.00  0.00    -0.183 OA
BRANCH  14  17
HETATM   17  N1  UNL     1     -27.076 -17.943   3.423  1.00  0.00    -0.294 N
ATOM     18  H1  UNL     1     -27.609 -18.165   4.264  1.00  0.00     0.174 HD
BRANCH  17  19
HETATM   19  C2  UNL     1     -25.793 -18.498   3.209  1.00  0.00     0.031 C
HETATM   20  C1  UNL     1     -24.674 -17.544   2.958  1.00  0.00     0.038 C
HETATM   21  C3  UNL     1     -25.758 -19.534   2.103  1.00  0.00     0.038 C
HETATM   22  C4  UNL     1     -25.440 -19.275   4.494  1.00  0.00     0.038 C
ENDBRANCH  17  19
ENDBRANCH  14  17
ENDBRANCH  12  14
ENDBRANCH   1  12
BRANCH   8  23
HETATM   23  C10 UNL     1     -25.654 -14.490  -3.972  1.00  0.00     0.193 C
HETATM   24  O4  UNL     1     -25.216 -13.312  -3.998  1.00  0.00    -0.647 OA
HETATM   25  O5  UNL     1     -24.896 -15.465  -4.607  1.00  0.00    -0.647 OA
ENDBRANCH   8  23
TORSDOF 5
ENDMDL