MODEL 4
REMARK VINA RESULT: -6.996866257      1.790      2.482
REMARK  7 active torsions:
REMARK  status: ('A' for Active; 'I' for Inactive)
REMARK    1  A    between atoms: C2_2  and  N1_4
REMARK    2  A    between atoms: N1_4  and  C4_6
REMARK    3  A    between atoms: C5_9  and  O1_10
REMARK    4  A    between atoms: C6_12  and  C7_13
REMARK    5  A    between atoms: C7_13  and  C8_14
REMARK    6  A    between atoms: C11_20  and  C12_21
REMARK    7  A    between atoms: C12_21  and  O3_24
ROOT
HETATM    1  C8  UNL     1     -25.935 -13.753  -2.635  1.00  0.00     0.112 A
HETATM    2  N3  UNL     1     -25.503 -14.666  -3.520  1.00  0.00    -0.309 N
ATOM      3  H3  UNL     1     -25.928 -15.593  -3.532  1.00  0.00     0.170 HD
HETATM    4  C9  UNL     1     -24.524 -14.379  -4.389  1.00  0.00     0.262 A
HETATM    5  O2  UNL     1     -24.198 -15.322  -5.180  1.00  0.00    -0.267 OA
HETATM    6  C10 UNL     1     -23.888 -13.130  -4.437  1.00  0.00     0.099 A
HETATM    7  C11 UNL     1     -22.951 -12.959  -5.318  1.00  0.00     0.032 C
HETATM    8  C15 UNL     1     -24.363 -12.231  -3.514  1.00  0.00     0.262 A
HETATM    9  O4  UNL     1     -23.890 -11.091  -3.449  1.00  0.00    -0.267 OA
HETATM   10  N4  UNL     1     -25.366 -12.546  -2.636  1.00  0.00    -0.309 N
ATOM     11  H4  UNL     1     -25.685 -11.843  -1.970  1.00  0.00     0.170 HD
ENDROOT
BRANCH   1  12
HETATM   12  C7  UNL     1     -26.907 -14.079  -1.794  1.00  0.00     0.072 C
BRANCH  12  13
HETATM   13  C6  UNL     1     -27.509 -15.429  -1.781  1.00  0.00     0.062 A
HETATM   14  C5  UNL     1     -27.143 -16.511  -1.020  1.00  0.00     0.159 A
HETATM   15  N2  UNL     1     -27.815 -17.613  -1.169  1.00  0.00    -0.316 N
HETATM   16  C4  UNL     1     -28.818 -17.644  -2.047  1.00  0.00     0.147 A
ATOM     17  H2  UNL     1     -27.577 -18.442  -0.624  1.00  0.00     0.170 HD
HETATM   18  S1  UNL     1     -28.814 -16.059  -2.684  1.00  0.00    -0.050 SA
BRANCH  14  19
HETATM   19  O1  UNL     1     -26.054 -16.381  -0.107  1.00  0.00    -0.345 OA
ATOM     20  H1  UNL     1     -26.145 -16.516   0.829  1.00  0.00     0.219 HD
ENDBRANCH  14  19
BRANCH  16  21
HETATM   21  N1  UNL     1     -29.608 -18.654  -2.338  1.00  0.00    -0.366 N
ATOM     22  H1  UNL     1     -29.561 -19.482  -1.744  1.00  0.00     0.162 HD
BRANCH  21  23
HETATM   23  C2  UNL     1     -30.522 -18.670  -3.426  1.00  0.00     0.075 C
HETATM   24  C1  UNL     1     -31.620 -19.694  -3.315  1.00  0.00     0.032 C
HETATM   25  C3  UNL     1     -29.864 -18.747  -4.790  1.00  0.00     0.032 C
ENDBRANCH  21  23
ENDBRANCH  16  21
ENDBRANCH  12  13
ENDBRANCH   1  12
BRANCH   7  26
HETATM   26  C12 UNL     1     -22.115 -11.788  -5.612  1.00  0.00     0.069 C
HETATM   27  C13 UNL     1     -21.312 -12.044  -6.911  1.00  0.00     0.050 C
HETATM   28  C14 UNL     1     -21.112 -11.427  -4.570  1.00  0.00     0.050 C
BRANCH  26  29
HETATM   29  O3  UNL     1     -22.905 -10.688  -5.932  1.00  0.00    -0.387 OA
ATOM     30  H3  UNL     1     -23.825 -10.889  -5.809  1.00  0.00     0.211 HD
ENDBRANCH  26  29
ENDBRANCH   7  26
TORSDOF 7
ENDMDL