MODEL 2
REMARK VINA RESULT: -7.225154869      1.948      5.407
REMARK  3 active torsions:
REMARK  status: ('A' for Active; 'I' for Inactive)
REMARK    1  A    between atoms: C2_2  and  C3_3
REMARK       I    between atoms: C3_3  and  N1_5
REMARK    2  A    between atoms: N1_5  and  N2_7
REMARK    3  A    between atoms: C7_17  and  N5_18
REMARK       I    between atoms: N5_18  and  C8_20
ROOT
HETATM    1  N2  UNL     1     -27.570 -15.409  -3.329  1.00  0.00    -0.284 N
ATOM      2  H2  UNL     1     -28.107 -14.991  -2.569  1.00  0.00     0.188 HD
HETATM    3  C4  UNL     1     -26.346 -15.066  -3.451  1.00  0.00     0.134 C
HETATM    4  N3  UNL     1     -25.480 -15.566  -4.462  1.00  0.00    -0.295 N
ATOM      5  H3  UNL     1     -25.717 -16.309  -5.120  1.00  0.00     0.172 HD
HETATM    6  C5  UNL     1     -24.239 -14.879  -4.423  1.00  0.00     0.322 C
HETATM    7  O2  UNL     1     -23.224 -15.047  -5.167  1.00  0.00    -0.247 OA
HETATM    8  N4  UNL     1     -24.320 -13.945  -3.386  1.00  0.00    -0.322 N
ATOM      9  H4  UNL     1     -23.618 -13.234  -3.177  1.00  0.00     0.165 HD
HETATM   10  C6  UNL     1     -25.548 -14.143  -2.658  1.00  0.00     0.146 C
HETATM   11  C7  UNL     1     -25.379 -14.474  -1.196  1.00  0.00     0.154 C
HETATM   12  C10 UNL     1     -25.820 -13.073  -0.848  1.00  0.00     0.182 C
HETATM   13  O4  UNL     1     -27.046 -12.963  -0.216  1.00  0.00    -0.346 OA
HETATM   14  C11 UNL     1     -27.766 -12.149  -1.053  1.00  0.00     0.158 C
HETATM   15  C12 UNL     1     -29.224 -12.041  -0.712  1.00  0.00     0.078 C
HETATM   16  C13 UNL     1     -27.210 -10.757  -1.169  1.00  0.00     0.078 C
HETATM   17  O5  UNL     1     -27.572 -12.793  -2.300  1.00  0.00    -0.345 OA
HETATM   18  C14 UNL     1     -26.159 -12.840  -2.291  1.00  0.00     0.194 C
ENDROOT
BRANCH  11  19
HETATM   19  N5  UNL     1     -26.178 -15.531  -0.683  1.00  0.00    -0.351 N
HETATM   20  C8  UNL     1     -25.746 -16.296   0.425  1.00  0.00     0.214 C
HETATM   21  C9  UNL     1     -26.530 -17.410   1.008  1.00  0.00     0.117 C
HETATM   22  O3  UNL     1     -24.640 -16.018   0.947  1.00  0.00    -0.274 OA
ATOM     23  H5  UNL     1     -27.075 -15.742  -1.120  1.00  0.00     0.163 HD
ENDBRANCH  11  19
BRANCH   1  24
HETATM   24  N1  UNL     1     -28.221 -16.309  -4.157  1.00  0.00    -0.269 N
HETATM   25  C3  UNL     1     -29.240 -17.191  -3.702  1.00  0.00     0.235 C
HETATM   26  O1  UNL     1     -29.610 -17.194  -2.489  1.00  0.00    -0.272 OA
ATOM     27  H1  UNL     1     -27.956 -16.341  -5.142  1.00  0.00     0.190 HD
BRANCH  25  28
HETATM   28  C2  UNL     1     -29.916 -18.143  -4.620  1.00  0.00     0.100 C
HETATM   29  C1  UNL     1     -30.821 -19.087  -3.897  1.00  0.00     0.014 C
ENDBRANCH  25  28
ENDBRANCH   1  24
TORSDOF 3
ENDMDL