MODEL 1
REMARK VINA RESULT: -5.947808335      0.000      0.000
REMARK  4 active torsions:
REMARK  status: ('A' for Active; 'I' for Inactive)
REMARK    1  A    between atoms: S1_2  and  C2_3
REMARK    2  A    between atoms: C6_10  and  O1_11
REMARK    3  A    between atoms: C6_10  and  C7_13
REMARK    4  A    between atoms: C11_19  and  C12_20
ROOT
HETATM    1  C2  UNL     1     -27.715 -15.850   0.624  1.00  0.00     0.255 C
HETATM    2  N1  UNL     1     -26.500 -16.567   0.856  1.00  0.00    -0.060 N
ATOM      3  H11 UNL     1     -26.551 -17.533   0.533  1.00  0.00     0.278 HD
ATOM      4  H12 UNL     1     -26.344 -16.756   1.846  1.00  0.00     0.278 HD
HETATM    5  C3  UNL     1     -25.416 -15.850   0.262  1.00  0.00     0.251 C
HETATM    6  C4  UNL     1     -25.998 -14.528  -0.240  1.00  0.00     0.116 C
HETATM    7  C5  UNL     1     -27.405 -14.905  -0.548  1.00  0.00     0.090 C
HETATM    8  C6  UNL     1     -27.597 -15.710  -1.797  1.00  0.00     0.161 C
HETATM    9  C8  UNL     1     -26.998 -15.148  -3.042  1.00  0.00     0.019 C
HETATM   10  C9  UNL     1     -27.617 -13.823  -3.438  1.00  0.00     0.020 C
HETATM   11  C10 UNL     1     -27.330 -16.119  -4.160  1.00  0.00     0.020 C
HETATM   12  C11 UNL     1     -25.490 -15.059  -2.975  1.00  0.00     0.192 C
HETATM   13  S2  UNL     1     -25.108 -13.926  -1.628  1.00  0.00     0.037 S
HETATM   14  O6  UNL     1     -25.605 -12.387  -1.990  1.00  0.00    -0.257 OA
ENDROOT
BRANCH   8  15
HETATM   15  O1  UNL     1     -27.171 -17.032  -1.651  1.00  0.00    -0.377 OA
ATOM     16  H1  UNL     1     -27.448 -17.585  -2.372  1.00  0.00     0.211 HD
ENDBRANCH   8  15
BRANCH   8  17
HETATM   17  C7  UNL     1     -29.081 -15.777  -2.010  1.00  0.00     0.210 C
HETATM   18  O2  UNL     1     -29.630 -16.854  -2.369  1.00  0.00    -0.646 OA
HETATM   19  O3  UNL     1     -29.919 -14.686  -1.830  1.00  0.00    -0.646 OA
ENDBRANCH   8  17
BRANCH   1  20
HETATM   20  S1  UNL     1     -28.124 -14.860   2.108  1.00  0.00    -0.140 SA
HETATM   21  C1  UNL     1     -29.156 -13.469   1.548  1.00  0.00     0.092 C
ENDBRANCH   1  20
BRANCH  12  22
HETATM   22  C12 UNL     1     -24.866 -14.643  -4.215  1.00  0.00     0.190 C
HETATM   23  O4  UNL     1     -24.738 -13.426  -4.482  1.00  0.00    -0.647 OA
HETATM   24  O5  UNL     1     -24.401 -15.561  -5.126  1.00  0.00    -0.647 OA
ENDBRANCH  12  22
TORSDOF 4
ENDMDL