MODEL 5
REMARK VINA RESULT: -6.362086050      2.793      3.894
REMARK  7 active torsions:
REMARK  status: ('A' for Active; 'I' for Inactive)
REMARK    1  A    between atoms: C3_3  and  O1_4
REMARK    2  A    between atoms: C8_12  and  C9_13
REMARK    3  A    between atoms: C9_13  and  N1_14
REMARK       I    between atoms: N1_14  and  C10_16
REMARK    4  A    between atoms: C10_16  and  C11_18
REMARK    5  A    between atoms: C11_18  and  O5_20
REMARK    6  A    between atoms: C11_18  and  C13_22
REMARK    7  A    between atoms: C16_25  and  O6_26
ROOT
HETATM    1  C1  UNL     1     -29.472 -17.932  -2.287  1.00  0.00     0.015 C
HETATM    2  C2  UNL     1     -28.996 -16.964  -2.823  1.00  0.00    -0.077 C
HETATM    3  C3  UNL     1     -28.434 -15.762  -3.477  1.00  0.00     0.141 C
HETATM    4  C4  UNL     1     -29.036 -14.569  -2.820  1.00  0.00     0.219 C
HETATM    5  O2  UNL     1     -28.378 -13.378  -3.093  1.00  0.00    -0.379 OA
HETATM    6  C5  UNL     1     -27.010 -13.467  -2.768  1.00  0.00     0.159 C
HETATM    7  C6  UNL     1     -26.408 -14.444  -3.731  1.00  0.00     0.045 C
HETATM    8  C7  UNL     1     -24.906 -14.333  -3.629  1.00  0.00     0.175 C
HETATM    9  O3  UNL     1     -24.572 -13.046  -4.052  1.00  0.00    -0.381 OA
HETATM   10  C8  UNL     1     -24.896 -12.147  -3.087  1.00  0.00     0.170 C
HETATM   11  C16 UNL     1     -26.371 -12.135  -2.739  1.00  0.00     0.178 C
HETATM   12  C17 UNL     1     -26.919 -15.812  -3.358  1.00  0.00     0.063 C
ENDROOT
BRANCH   3  13
HETATM   13  O1  UNL     1     -28.746 -15.851  -4.836  1.00  0.00    -0.375 OA
ATOM     14  H1  UNL     1     -28.239 -16.571  -5.193  1.00  0.00     0.211 HD
ENDBRANCH   3  13
BRANCH  11  15
HETATM   15  O6  UNL     1     -26.465 -11.606  -1.441  1.00  0.00    -0.390 OA
ATOM     16  H6  UNL     1     -25.604 -11.607  -1.041  1.00  0.00     0.210 HD
ENDBRANCH  11  15
BRANCH  10  17
HETATM   17  C9  UNL     1     -24.509 -10.741  -3.364  1.00  0.00     0.157 C
BRANCH  17  18
HETATM   18  N1  UNL     1     -23.318 -10.490  -4.089  1.00  0.00    -0.356 N
HETATM   19  C10 UNL     1     -22.637  -9.284  -4.312  1.00  0.00     0.252 C
HETATM   20  O4  UNL     1     -23.087  -8.225  -3.817  1.00  0.00    -0.270 OA
ATOM     21  H1  UNL     1     -22.891 -11.313  -4.516  1.00  0.00     0.162 HD
BRANCH  19  22
HETATM   22  C11 UNL     1     -21.386  -9.287  -5.135  1.00  0.00     0.137 C
HETATM   23  C12 UNL     1     -20.358 -10.238  -4.555  1.00  0.00     0.057 C
BRANCH  22  24
HETATM   24  O5  UNL     1     -21.671  -9.728  -6.423  1.00  0.00    -0.380 OA
ATOM     25  H5  UNL     1     -22.303  -9.145  -6.829  1.00  0.00     0.211 HD
ENDBRANCH  22  24
BRANCH  22  26
HETATM   26  C13 UNL     1     -20.754  -7.919  -5.182  1.00  0.00     0.021 C
HETATM   27  C14 UNL     1     -19.615  -7.917  -4.185  1.00  0.00     0.013 C
HETATM   28  C15 UNL     1     -20.248  -7.530  -6.525  1.00  0.00     0.013 C
ENDBRANCH  22  26
ENDBRANCH  19  22
ENDBRANCH  17  18
ENDBRANCH  10  17
TORSDOF 7
ENDMDL