MODEL 5
REMARK VINA RESULT: -6.330906532      2.599      3.983
REMARK  7 active torsions:
REMARK  status: ('A' for Active; 'I' for Inactive)
REMARK    1  A    between atoms: O1_2  and  C2_3
REMARK    2  A    between atoms: C10_11  and  O2_12
REMARK    3  A    between atoms: C10_11  and  C16_23
REMARK    4  A    between atoms: C11_14  and  O3_15
REMARK    5  A    between atoms: C12_17  and  C13_18
REMARK    6  A    between atoms: C13_18  and  C15_20
REMARK    7  A    between atoms: C15_20  and  O4_21
ROOT
HETATM    1  C2  UNL     1     -28.537 -16.893  -3.503  1.00  0.00     0.132 A
HETATM    2  C3  UNL     1     -27.718 -15.890  -3.643  1.00  0.00     0.023 A
HETATM    3  C4  UNL     1     -27.362 -14.836  -2.654  1.00  0.00     0.050 A
HETATM    4  C5  UNL     1     -27.799 -13.565  -3.322  1.00  0.00     0.018 C
HETATM    5  C6  UNL     1     -27.214 -12.283  -2.944  1.00  0.00    -0.024 C
HETATM    6  C7  UNL     1     -27.172 -11.925  -1.666  1.00  0.00    -0.020 C
HETATM    7  C8  UNL     1     -27.707 -12.848  -0.761  1.00  0.00    -0.007 C
HETATM    8  C9  UNL     1     -26.446 -13.746  -0.460  1.00  0.00     0.057 C
HETATM    9  C10 UNL     1     -27.263 -14.905  -0.097  1.00  0.00     0.111 C
HETATM   10  C11 UNL     1     -28.088 -14.197   1.004  1.00  0.00     0.160 C
HETATM   11  C12 UNL     1     -28.020 -12.689   0.659  1.00  0.00     0.036 C
HETATM   12  C16 UNL     1     -28.064 -15.052  -1.389  1.00  0.00     0.079 A
HETATM   13  N1  UNL     1     -28.964 -16.118  -1.230  1.00  0.00    -0.342 N
ATOM     14  H1  UNL     1     -29.451 -16.211  -0.339  1.00  0.00     0.163 HD
HETATM   15  C17 UNL     1     -29.229 -17.062  -2.237  1.00  0.00     0.275 A
HETATM   16  O5  UNL     1     -30.040 -18.027  -2.051  1.00  0.00    -0.265 OA
HETATM   17  C18 UNL     1     -28.787 -13.695  -1.292  1.00  0.00     0.031 C
HETATM   18  C19 UNL     1     -29.230 -13.446  -2.716  1.00  0.00     0.017 C
ENDROOT
BRANCH  11  19
HETATM   19  C13 UNL     1     -29.224 -11.945   1.055  1.00  0.00     0.013 C
HETATM   20  C14 UNL     1     -29.552 -12.016   2.522  1.00  0.00     0.012 C
BRANCH  19  21
HETATM   21  C15 UNL     1     -29.008 -10.462   0.748  1.00  0.00     0.168 C
BRANCH  21  22
HETATM   22  O4  UNL     1     -30.027  -9.924   0.000  1.00  0.00    -0.400 OA
ATOM     23  H4  UNL     1     -30.735  -9.588   0.536  1.00  0.00     0.209 HD
ENDBRANCH  21  22
ENDBRANCH  19  21
ENDBRANCH  11  19
BRANCH  10  24
HETATM   24  O3  UNL     1     -27.424 -14.380   2.214  1.00  0.00    -0.392 OA
ATOM     25  H3  UNL     1     -26.964 -13.573   2.415  1.00  0.00     0.210 HD
ENDBRANCH  10  24
BRANCH   9  26
HETATM   26  O2  UNL     1     -26.657 -16.025   0.322  1.00  0.00    -0.385 OA
ATOM     27  H2  UNL     1     -26.482 -16.718  -0.303  1.00  0.00     0.210 HD
ENDBRANCH   9  26
BRANCH   1  28
HETATM   28  O1  UNL     1     -28.782 -17.819  -4.523  1.00  0.00    -0.351 OA
HETATM   29  C1  UNL     1     -29.987 -17.835  -5.256  1.00  0.00     0.210 C
ENDBRANCH   1  28
TORSDOF 7
ENDMDL