MODEL 5
REMARK VINA RESULT: -5.737962573      3.522      7.862
REMARK  11 active torsions:
REMARK  status: ('A' for Active; 'I' for Inactive)
REMARK    1  A    between atoms: C3_3  and  C4_4
REMARK    2  A    between atoms: C5_5  and  C6_6
REMARK    3  A    between atoms: C6_6  and  C7_7
REMARK    4  A    between atoms: C7_7  and  C8_8
REMARK    5  A    between atoms: C8_8  and  C9_9
REMARK    6  A    between atoms: C10_10  and  C11_11
REMARK    7  A    between atoms: C11_11  and  O1_12
REMARK    8  A    between atoms: C13_16  and  O3_17
REMARK    9  A    between atoms: C16_22  and  C17_23
REMARK   10  A    between atoms: C17_23  and  O5_25
REMARK   11  A    between atoms: C19_27  and  O6_28
ROOT
HETATM    1  C1  UNL     1      -4.839  21.767  23.909  1.00  0.00     0.113 C
HETATM    2  C2  UNL     1      -3.821  22.805  23.644  1.00  0.00    -0.097 C
HETATM    3  C3  UNL     1      -2.994  23.659  23.429  1.00  0.00    -0.015 C
ENDROOT
BRANCH   3   4
HETATM    4  C4  UNL     1      -2.006  24.645  23.167  1.00  0.00    -0.015 C
HETATM    5  C5  UNL     1      -1.181  25.496  22.947  1.00  0.00    -0.092 C
BRANCH   5   6
HETATM    6  C6  UNL     1      -0.180  26.560  22.690  1.00  0.00     0.096 C
BRANCH   6   7
HETATM    7  C7  UNL     1       0.987  26.253  23.614  1.00  0.00     0.024 C
BRANCH   7   8
HETATM    8  C8  UNL     1       0.545  26.635  25.020  1.00  0.00     0.095 C
BRANCH   8   9
HETATM    9  C9  UNL     1       0.702  28.069  25.249  1.00  0.00    -0.103 C
HETATM   10  C10 UNL     1       0.819  29.251  25.456  1.00  0.00    -0.066 C
BRANCH  10  11
HETATM   11  C11 UNL     1       0.939  30.704  25.721  1.00  0.00     0.144 C
HETATM   12  C12 UNL     1       0.712  30.899  27.185  1.00  0.00     0.223 C
HETATM   13  O2  UNL     1       0.112  32.084  27.524  1.00  0.00    -0.347 OA
HETATM   14  C13 UNL     1       0.433  33.143  26.712  1.00  0.00     0.217 C
HETATM   15  C14 UNL     1      -0.051  32.910  25.319  1.00  0.00     0.191 C
HETATM   16  C19 UNL     1      -0.379  34.346  27.146  1.00  0.00     0.214 C
HETATM   17  C15 UNL     1      -0.099  31.458  24.926  1.00  0.00     0.091 C
HETATM   18  O4  UNL     1      -1.375  33.367  25.353  1.00  0.00    -0.370 OA
HETATM   19  C16 UNL     1      -1.390  34.539  26.068  1.00  0.00     0.184 C
BRANCH  11  20
HETATM   20  O1  UNL     1       2.241  31.061  25.321  1.00  0.00    -0.375 OA
ATOM     21  H1  UNL     1       2.820  30.734  26.000  1.00  0.00     0.211 HD
ENDBRANCH  11  20
BRANCH  14  22
HETATM   22  O3  UNL     1       1.775  33.511  26.783  1.00  0.00    -0.361 OA
ATOM     23  H3  UNL     1       2.341  32.987  26.228  1.00  0.00     0.213 HD
ENDBRANCH  14  22
BRANCH  19  24
HETATM   24  C17 UNL     1      -1.080  35.683  25.136  1.00  0.00     0.145 C
HETATM   25  C18 UNL     1      -1.532  35.234  23.741  1.00  0.00     0.042 C
BRANCH  24  26
HETATM   26  O5  UNL     1      -1.832  36.822  25.428  1.00  0.00    -0.393 OA
ATOM     27  H5  UNL     1      -2.560  36.937  24.828  1.00  0.00     0.210 HD
ENDBRANCH  24  26
ENDBRANCH  19  24
BRANCH  16  28
HETATM   28  O6  UNL     1      -1.032  34.100  28.355  1.00  0.00    -0.387 OA
ATOM     29  H6  UNL     1      -1.925  33.809  28.207  1.00  0.00     0.210 HD
ENDBRANCH  16  28
ENDBRANCH  10  11
ENDBRANCH   8   9
ENDBRANCH   7   8
ENDBRANCH   6   7
ENDBRANCH   5   6
ENDBRANCH   3   4
TORSDOF 11
ENDMDL