MODEL 2
REMARK VINA RESULT: -6.567217778      1.713      4.277
REMARK  7 active torsions:
REMARK  status: ('A' for Active; 'I' for Inactive)
REMARK    1  A    between atoms: O1_2  and  C2_3
REMARK    2  A    between atoms: C5_6  and  C6_7
REMARK    3  A    between atoms: C6_7  and  O2_8
REMARK    4  A    between atoms: C8_11  and  C9_12
REMARK    5  A    between atoms: C11_15  and  O4_16
REMARK    6  A    between atoms: C15_21  and  O5_22
REMARK    7  A    between atoms: C16_24  and  O6_25
ROOT
HETATM    1  C2  UNL     1       1.191  30.011  28.862  1.00  0.00     0.128 C
HETATM    2  C3  UNL     1      -0.110  30.104  28.067  1.00  0.00     0.043 C
HETATM    3  C4  UNL     1       0.068  31.317  27.219  1.00  0.00    -0.022 C
HETATM    4  C5  UNL     1      -0.960  32.380  27.501  1.00  0.00     0.019 C
HETATM    5  C7  UNL     1      -1.342  33.160  26.264  1.00  0.00     0.022 C
HETATM    6  C8  UNL     1      -0.173  33.459  25.368  1.00  0.00     0.090 C
HETATM    7  C11 UNL     1       0.783  32.290  25.225  1.00  0.00     0.073 C
HETATM    8  C12 UNL     1       1.938  32.461  26.198  1.00  0.00     0.045 C
HETATM    9  C13 UNL     1       1.489  31.754  27.397  1.00  0.00     0.007 C
HETATM   10  C14 UNL     1       2.182  30.508  27.789  1.00  0.00     0.051 C
HETATM   11  C15 UNL     1       2.483  29.464  26.844  1.00  0.00     0.153 C
HETATM   12  C16 UNL     1       1.971  29.484  25.468  1.00  0.00     0.147 C
HETATM   13  C17 UNL     1       0.556  29.798  25.241  1.00  0.00     0.042 C
HETATM   14  C18 UNL     1       0.020  31.069  25.746  1.00  0.00     0.033 C
ENDROOT
BRANCH   4  15
HETATM   15  C6  UNL     1      -0.603  33.341  28.581  1.00  0.00     0.169 C
BRANCH  15  16
HETATM   16  O2  UNL     1      -0.838  34.644  28.076  1.00  0.00    -0.400 OA
ATOM     17  H2  UNL     1      -0.638  35.255  28.775  1.00  0.00     0.209 HD
ENDBRANCH  15  16
ENDBRANCH   4  15
BRANCH   6  18
HETATM   18  C9  UNL     1      -0.653  33.977  24.080  1.00  0.00     0.130 C
HETATM   19  C10 UNL     1      -0.655  35.422  23.716  1.00  0.00     0.091 C
HETATM   20  O3  UNL     1      -1.094  33.218  23.202  1.00  0.00    -0.298 OA
ENDBRANCH   6  18
BRANCH   1  21
HETATM   21  O1  UNL     1       1.478  28.743  29.267  1.00  0.00    -0.390 OA
HETATM   22  C1  UNL     1       0.281  28.066  29.497  1.00  0.00     0.202 C
ENDBRANCH   1  21
BRANCH   7  23
HETATM   23  O4  UNL     1       1.209  32.110  23.924  1.00  0.00    -0.389 OA
ATOM     24  H4  UNL     1       0.859  31.318  23.532  1.00  0.00     0.210 HD
ENDBRANCH   7  23
BRANCH  11  25
HETATM   25  O5  UNL     1       3.897  29.338  26.729  1.00  0.00    -0.393 OA
ATOM     26  H5  UNL     1       4.159  28.486  27.057  1.00  0.00     0.210 HD
ENDBRANCH  11  25
BRANCH  12  27
HETATM   27  O6  UNL     1       2.147  28.162  24.963  1.00  0.00    -0.393 OA
ATOM     28  H6  UNL     1       2.327  28.257  24.035  1.00  0.00     0.210 HD
ENDBRANCH  12  27
TORSDOF 7
ENDMDL