MODEL 5
REMARK VINA RESULT: -6.811761292      5.564      6.790
REMARK  9 active torsions:
REMARK  status: ('A' for Active; 'I' for Inactive)
REMARK       I    between atoms: C2_2  and  N1_4
REMARK    1  A    between atoms: N1_4  and  C3_6
REMARK    2  A    between atoms: C4_9  and  C5_10
REMARK    3  A    between atoms: C6_11  and  C7_12
REMARK    4  A    between atoms: C9_14  and  O2_15
REMARK    5  A    between atoms: O2_15  and  C10_16
REMARK    6  A    between atoms: C10_16  and  C11_17
REMARK    7  A    between atoms: C11_17  and  O3_19
REMARK    8  A    between atoms: C13_21  and  O4_22
REMARK    9  A    between atoms: C14_24  and  O5_25
ROOT
HETATM    1  C7  UNL     1      -0.267  32.119  26.346  1.00  0.00     0.099 C
HETATM    2  C8  UNL     1      -0.525  33.582  26.500  1.00  0.00     0.054 C
HETATM    3  C9  UNL     1      -0.441  34.200  25.132  1.00  0.00     0.154 C
HETATM    4  C13 UNL     1      -0.501  33.015  24.190  1.00  0.00     0.177 C
HETATM    5  C14 UNL     1       0.300  31.973  24.946  1.00  0.00     0.165 C
ENDROOT
BRANCH   1   6
HETATM    6  C6  UNL     1       0.688  31.688  27.365  1.00  0.00    -0.092 C
HETATM    7  C5  UNL     1       1.488  31.350  28.205  1.00  0.00    -0.047 C
BRANCH   7   8
HETATM    8  C4  UNL     1       2.489  30.952  29.217  1.00  0.00     0.101 A
HETATM    9  N2  UNL     1       3.621  30.389  28.856  1.00  0.00    -0.329 N
HETATM   10  C3  UNL     1       4.489  30.049  29.813  1.00  0.00     0.152 A
ATOM     11  H2  UNL     1       3.830  30.216  27.873  1.00  0.00     0.168 HD
HETATM   12  S1  UNL     1       3.709  30.528  31.246  1.00  0.00    -0.056 SA
HETATM   13  C15 UNL     1       2.284  31.151  30.558  1.00  0.00     0.018 A
HETATM   14  C16 UNL     1       1.073  31.773  31.216  1.00  0.00     0.059 C
BRANCH  10  15
HETATM   15  N1  UNL     1       5.668  29.481  29.669  1.00  0.00    -0.307 N
HETATM   16  C2  UNL     1       6.127  29.302  28.336  1.00  0.00     0.219 C
HETATM   17  C1  UNL     1       5.876  27.995  27.676  1.00  0.00     0.117 C
HETATM   18  O1  UNL     1       6.736  30.243  27.732  1.00  0.00    -0.274 OA
ATOM     19  H1  UNL     1       6.222  29.184  30.472  1.00  0.00     0.171 HD
ENDBRANCH  10  15
ENDBRANCH   7   8
ENDBRANCH   1   6
BRANCH   5  20
HETATM   20  O5  UNL     1       1.644  32.317  24.960  1.00  0.00    -0.392 OA
ATOM     21  H5  UNL     1       1.800  32.941  25.660  1.00  0.00     0.210 HD
ENDBRANCH   5  20
BRANCH   3  22
HETATM   22  O2  UNL     1      -1.489  35.080  24.933  1.00  0.00    -0.381 OA
BRANCH  22  23
HETATM   23  C10 UNL     1      -1.482  36.150  25.795  1.00  0.00     0.199 C
BRANCH  23  24
HETATM   24  C11 UNL     1      -1.563  37.486  25.124  1.00  0.00     0.138 C
HETATM   25  C12 UNL     1      -1.077  38.527  26.138  1.00  0.00     0.041 C
BRANCH  24  26
HETATM   26  O3  UNL     1      -0.678  37.545  24.052  1.00  0.00    -0.394 OA
ATOM     27  H3  UNL     1      -0.083  38.279  24.153  1.00  0.00     0.210 HD
ENDBRANCH  24  26
ENDBRANCH  23  24
ENDBRANCH  22  23
ENDBRANCH   3  22
BRANCH   4  28
HETATM   28  O4  UNL     1       0.020  33.304  22.949  1.00  0.00    -0.390 OA
ATOM     29  H4  UNL     1      -0.650  33.558  22.325  1.00  0.00     0.210 HD
ENDBRANCH   4  28
TORSDOF 9
ENDMDL