MODEL 4
REMARK VINA RESULT: -7.118815572      2.709      3.275
REMARK  6 active torsions:
REMARK  status: ('A' for Active; 'I' for Inactive)
REMARK    1  A    between atoms: C9_17  and  N5_18
REMARK    2  A    between atoms: N5_18  and  C10_20
REMARK    3  A    between atoms: C10_20  and  C11_21
REMARK    4  A    between atoms: C10_20  and  C14_24
REMARK    5  A    between atoms: C14_24  and  O3_26
REMARK    6  A    between atoms: C14_24  and  O4_28
ROOT
HETATM    1  C1  UNL     1      -0.193  30.318  28.096  1.00  0.00     0.051 C
HETATM    2  C2  UNL     1      -0.241  28.949  27.609  1.00  0.00    -0.018 A
HETATM    3  C3  UNL     1      -0.266  27.855  28.492  1.00  0.00     0.119 A
HETATM    4  C4  UNL     1      -0.243  28.163  29.895  1.00  0.00     0.105 C
HETATM    5  N1  UNL     1      -0.223  28.391  31.040  1.00  0.00    -0.191 NA
HETATM    6  C5  UNL     1      -0.311  26.566  28.021  1.00  0.00     0.270 A
HETATM    7  O1  UNL     1      -0.332  25.617  28.830  1.00  0.00    -0.266 OA
HETATM    8  N2  UNL     1      -0.333  26.289  26.716  1.00  0.00    -0.302 N
HETATM    9  C6  UNL     1      -0.380  24.915  26.212  1.00  0.00     0.161 C
HETATM   10  C7  UNL     1      -0.310  27.321  25.831  1.00  0.00     0.128 A
HETATM   11  N3  UNL     1      -0.333  26.982  24.521  1.00  0.00    -0.293 N
ATOM     12  H3  UNL     1      -0.366  26.006  24.227  1.00  0.00     0.172 HD
HETATM   13  C8  UNL     1      -0.310  27.972  23.627  1.00  0.00     0.327 A
HETATM   14  O2  UNL     1      -0.330  27.723  22.372  1.00  0.00    -0.247 OA
HETATM   15  N4  UNL     1      -0.267  29.265  23.974  1.00  0.00    -0.294 N
ATOM     16  H4  UNL     1      -0.253  29.976  23.243  1.00  0.00     0.172 HD
HETATM   17  C9  UNL     1      -0.242  29.656  25.286  1.00  0.00     0.124 A
HETATM   18  C16 UNL     1      -0.265  28.632  26.264  1.00  0.00     0.060 A
ENDROOT
BRANCH  17  19
HETATM   19  N5  UNL     1      -0.203  30.822  25.667  1.00  0.00    -0.343 N
ATOM     20  H5  UNL     1      -0.844  30.898  26.458  1.00  0.00     0.167 HD
BRANCH  19  21
HETATM   21  C10 UNL     1       0.350  32.082  25.470  1.00  0.00     0.053 C
BRANCH  21  22
HETATM   22  C11 UNL     1       1.822  32.306  25.597  1.00  0.00     0.029 C
HETATM   23  C12 UNL     1       2.755  31.258  25.161  1.00  0.00     0.016 C
HETATM   24  C13 UNL     1       2.189  32.859  26.988  1.00  0.00     0.016 C
ENDBRANCH  21  22
BRANCH  21  25
HETATM   25  C14 UNL     1      -0.321  32.943  24.423  1.00  0.00     0.196 C
HETATM   26  C15 UNL     1      -0.969  34.176  25.025  1.00  0.00     0.086 C
BRANCH  25  27
HETATM   27  O3  UNL     1      -1.418  32.241  23.858  1.00  0.00    -0.361 OA
ATOM     28  H3  UNL     1      -2.206  32.765  23.930  1.00  0.00     0.213 HD
ENDBRANCH  25  27
BRANCH  25  29
HETATM   29  O4  UNL     1       0.455  33.383  23.389  1.00  0.00    -0.361 OA
ATOM     30  H4  UNL     1       0.213  34.209  22.990  1.00  0.00     0.213 HD
ENDBRANCH  25  29
ENDBRANCH  21  25
ENDBRANCH  19  21
ENDBRANCH  17  19
TORSDOF 6
ENDMDL