MODEL 3
REMARK VINA RESULT: -6.463951764      2.360      5.945
REMARK  7 active torsions:
REMARK  status: ('A' for Active; 'I' for Inactive)
REMARK    1  A    between atoms: C2_2  and  C4_4
REMARK    2  A    between atoms: C5_5  and  O1_6
REMARK    3  A    between atoms: O1_6  and  C6_7
REMARK    4  A    between atoms: C6_7  and  N2_12
REMARK    5  A    between atoms: N1_8  and  O2_10
REMARK    6  A    between atoms: N2_12  and  C7_14
REMARK    7  A    between atoms: C16_31  and  O4_32
ROOT
HETATM    1  C6  UNL     1       3.342  32.623  28.242  1.00  0.00     0.240 C
HETATM    2  N1  UNL     1       4.014  33.512  27.649  1.00  0.00    -0.233 N
ATOM      3  H1  UNL     1       4.304  33.310  26.692  1.00  0.00     0.198 HD
ENDROOT
BRANCH   1   4
HETATM    4  O1  UNL     1       2.894  32.778  29.530  1.00  0.00    -0.315 OA
BRANCH   4   5
HETATM    5  C5  UNL     1       3.306  31.993  30.610  1.00  0.00     0.141 C
HETATM    6  C4  UNL     1       2.132  31.844  31.575  1.00  0.00     0.049 C
HETATM    7  C16 UNL     1       1.968  33.152  32.272  1.00  0.00     0.157 C
HETATM    8  C15 UNL     1       3.148  33.416  33.141  1.00  0.00     0.245 A
HETATM    9  C14 UNL     1       4.399  33.161  32.558  1.00  0.00     0.222 A
HETATM   10  N5  UNL     1       3.946  32.383  33.697  1.00  0.00    -0.060 N
HETATM   11  C13 UNL     1       4.524  32.527  31.231  1.00  0.00     0.068 C
ATOM     12  H52 UNL     1       3.821  31.392  33.904  1.00  0.00     0.278 HD
ATOM     13  H51 UNL     1       4.313  32.159  34.622  1.00  0.00     0.278 HD
BRANCH   6  14
HETATM   14  C2  UNL     1       0.900  31.529  30.747  1.00  0.00    -0.014 C
HETATM   15  C1  UNL     1       0.943  30.108  30.226  1.00  0.00     0.010 C
HETATM   16  C3  UNL     1      -0.365  31.668  31.555  1.00  0.00     0.010 C
ENDBRANCH   6  14
BRANCH   7  17
HETATM   17  O4  UNL     1       1.927  34.154  31.303  1.00  0.00    -0.393 OA
ATOM     18  H4  UNL     1       2.391  34.910  31.643  1.00  0.00     0.210 HD
ENDBRANCH   7  17
ENDBRANCH   4   5
ENDBRANCH   1   4
BRANCH   1  19
HETATM   19  N2  UNL     1       3.037  31.392  27.521  1.00  0.00    -0.337 N
ATOM     20  H2  UNL     1       3.660  30.591  27.619  1.00  0.00     0.164 HD
BRANCH  19  21
HETATM   21  C7  UNL     1       1.881  31.281  26.677  1.00  0.00     0.215 C
HETATM   22  C8  UNL     1       0.839  32.288  26.996  1.00  0.00     0.092 C
HETATM   23  N3  UNL     1       0.104  32.787  26.107  1.00  0.00    -0.375 N
HETATM   24  C9  UNL     1       0.124  32.506  24.709  1.00  0.00     0.098 C
ATOM     25  H3  UNL     1      -0.586  33.471  26.421  1.00  0.00     0.161 HD
HETATM   26  C10 UNL     1      -0.984  31.491  24.401  1.00  0.00     0.062 C
HETATM   27  C11 UNL     1      -0.195  33.730  23.872  1.00  0.00     0.062 C
HETATM   28  N4  UNL     1       1.356  31.924  24.276  1.00  0.00    -0.333 N
HETATM   29  C12 UNL     1       2.268  31.441  25.247  1.00  0.00     0.247 C
ATOM     30  H4  UNL     1       1.576  31.856  23.282  1.00  0.00     0.165 HD
HETATM   31  O3  UNL     1       3.432  31.144  24.881  1.00  0.00    -0.271 OA
ENDBRANCH  19  21
ENDBRANCH   1  19
BRANCH   2  32
HETATM   32  O2  UNL     1       4.383  34.692  28.156  1.00  0.00    -0.287 OA
ATOM     33  H2  UNL     1       5.029  34.833  28.839  1.00  0.00     0.244 HD
ENDBRANCH   2  32
TORSDOF 7
ENDMDL