MODEL 2
REMARK VINA RESULT: -6.894870879      1.208      1.464
REMARK  8 active torsions:
REMARK  status: ('A' for Active; 'I' for Inactive)
REMARK    1  A    between atoms: C2_2  and  C3_3
REMARK    2  A    between atoms: C4_4  and  C5_5
REMARK    3  A    between atoms: C6_6  and  C7_7
REMARK    4  A    between atoms: C7_7  and  O1_10
REMARK    5  A    between atoms: C11_14  and  O3_15
REMARK    6  A    between atoms: C17_23  and  C18_24
REMARK    7  A    between atoms: C18_24  and  O5_25
REMARK    8  A    between atoms: C19_27  and  O6_28
ROOT
HETATM    1  C3  UNL     1       1.151  28.673  26.086  1.00  0.00     0.010 C
HETATM    2  C4  UNL     1      -0.017  28.578  25.430  1.00  0.00     0.078 C
HETATM    3  O2  UNL     1      -0.743  29.742  25.073  1.00  0.00    -0.342 OA
HETATM    4  C10 UNL     1      -0.269  31.035  25.401  1.00  0.00     0.166 C
HETATM    5  C11 UNL     1       0.855  31.328  24.460  1.00  0.00     0.156 C
HETATM    6  C12 UNL     1       2.061  30.829  25.172  1.00  0.00     0.065 C
HETATM    7  C13 UNL     1       2.809  31.937  25.908  1.00  0.00     0.049 C
HETATM    8  C14 UNL     1       3.545  31.087  26.917  1.00  0.00     0.177 C
HETATM    9  O4  UNL     1       2.576  30.182  27.338  1.00  0.00    -0.374 OA
HETATM   10  C15 UNL     1       1.605  30.043  26.397  1.00  0.00     0.104 C
HETATM   11  C16 UNL     1       0.364  30.884  26.753  1.00  0.00     0.066 C
HETATM   12  C17 UNL     1       0.788  32.152  27.382  1.00  0.00     0.048 C
HETATM   13  C19 UNL     1       1.927  32.846  26.701  1.00  0.00     0.131 C
ENDROOT
BRANCH   2  14
HETATM   14  C5  UNL     1      -0.566  27.285  25.071  1.00  0.00     0.036 C
HETATM   15  C6  UNL     1      -1.211  27.195  23.903  1.00  0.00     0.012 C
BRANCH  15  16
HETATM   16  C7  UNL     1      -1.794  25.923  23.469  1.00  0.00     0.068 C
HETATM   17  C8  UNL     1      -0.766  25.194  22.604  1.00  0.00     0.050 C
HETATM   18  C9  UNL     1      -2.177  25.086  24.661  1.00  0.00     0.050 C
BRANCH  16  19
HETATM   19  O1  UNL     1      -2.916  26.102  22.692  1.00  0.00    -0.387 OA
ATOM     20  H1  UNL     1      -3.353  25.282  22.497  1.00  0.00     0.211 HD
ENDBRANCH  16  19
ENDBRANCH  15  16
ENDBRANCH   2  14
BRANCH   1  21
HETATM   21  C2  UNL     1       1.841  27.452  26.421  1.00  0.00     0.003 C
HETATM   22  C1  UNL     1       2.986  27.022  25.963  1.00  0.00     0.012 C
ENDBRANCH   1  21
BRANCH   5  23
HETATM   23  O3  UNL     1       0.915  32.616  23.991  1.00  0.00    -0.392 OA
ATOM     24  H3  UNL     1       1.786  32.940  23.792  1.00  0.00     0.210 HD
ENDBRANCH   5  23
BRANCH  12  25
HETATM   25  C18 UNL     1      -0.375  33.105  27.567  1.00  0.00     0.172 C
BRANCH  25  26
HETATM   26  O5  UNL     1      -0.040  34.342  26.975  1.00  0.00    -0.400 OA
ATOM     27  H5  UNL     1      -0.821  34.881  26.941  1.00  0.00     0.209 HD
ENDBRANCH  25  26
ENDBRANCH  12  25
BRANCH  13  28
HETATM   28  O6  UNL     1       2.754  33.448  27.682  1.00  0.00    -0.395 OA
ATOM     29  H6  UNL     1       2.312  34.245  27.952  1.00  0.00     0.210 HD
ENDBRANCH  13  28
TORSDOF 8
ENDMDL