MODEL 3
REMARK VINA RESULT: -6.662150611      1.496      4.440
REMARK  7 active torsions:
REMARK  status: ('A' for Active; 'I' for Inactive)
REMARK    1  A    between atoms: C2_2  and  O1_3
REMARK    2  A    between atoms: C2_2  and  C3_5
REMARK    3  A    between atoms: C4_6  and  C5_7
REMARK    4  A    between atoms: C6_8  and  O2_9
REMARK    5  A    between atoms: C13_18  and  C14_19
REMARK    6  A    between atoms: C14_19  and  O4_20
REMARK    7  A    between atoms: C18_26  and  O6_27
ROOT
HETATM    1  C5  UNL     1       1.806  31.785  26.542  1.00  0.00     0.052 C
HETATM    2  C6  UNL     1       3.112  32.386  27.006  1.00  0.00     0.127 C
HETATM    3  C7  UNL     1       3.825  31.443  27.893  1.00  0.00     0.037 C
HETATM    4  C8  UNL     1       3.194  30.125  28.171  1.00  0.00    -0.010 C
HETATM    5  C9  UNL     1       2.336  30.201  29.382  1.00  0.00     0.010 C
HETATM    6  C10 UNL     1       2.613  29.461  26.952  1.00  0.00     0.014 C
HETATM    7  C11 UNL     1       1.697  28.352  27.277  1.00  0.00     0.047 C
HETATM    8  C12 UNL     1       2.093  27.142  26.380  1.00  0.00     0.177 C
HETATM    9  O3  UNL     1       1.709  27.602  25.099  1.00  0.00    -0.367 OA
HETATM   10  C13 UNL     1       0.644  28.484  25.278  1.00  0.00     0.168 C
HETATM   11  C15 UNL     1       1.038  29.906  25.081  1.00  0.00     0.175 C
HETATM   12  O5  UNL     1       0.443  30.520  24.237  1.00  0.00    -0.294 OA
HETATM   13  C16 UNL     1       2.119  30.456  25.919  1.00  0.00     0.034 C
HETATM   14  C17 UNL     1       3.223  30.767  24.877  1.00  0.00     0.025 C
HETATM   15  C18 UNL     1       0.294  28.411  26.750  1.00  0.00     0.169 C
ENDROOT
BRANCH   1  16
HETATM   16  C4  UNL     1       1.020  32.682  25.690  1.00  0.00    -0.020 C
HETATM   17  C3  UNL     1      -0.132  33.177  26.093  1.00  0.00     0.001 C
BRANCH  17  18
HETATM   18  C2  UNL     1      -0.959  34.101  25.233  1.00  0.00     0.136 C
HETATM   19  C1  UNL     1      -1.152  35.414  25.944  1.00  0.00     0.043 C
BRANCH  18  20
HETATM   20  O1  UNL     1      -0.220  34.315  24.072  1.00  0.00    -0.392 OA
ATOM     21  H1  UNL     1       0.220  35.155  24.134  1.00  0.00     0.210 HD
ENDBRANCH  18  20
ENDBRANCH  17  18
ENDBRANCH   1  16
BRANCH   2  22
HETATM   22  O2  UNL     1       2.865  33.581  27.726  1.00  0.00    -0.395 OA
ATOM     23  H2  UNL     1       1.929  33.716  27.818  1.00  0.00     0.210 HD
ENDBRANCH   2  22
BRANCH  10  24
HETATM   24  C14 UNL     1      -0.528  28.092  24.409  1.00  0.00     0.213 C
BRANCH  24  25
HETATM   25  O4  UNL     1      -0.175  28.134  23.063  1.00  0.00    -0.397 OA
ATOM     26  H4  UNL     1       0.447  27.446  22.860  1.00  0.00     0.209 HD
ENDBRANCH  24  25
ENDBRANCH  10  24
BRANCH  15  27
HETATM   27  O6  UNL     1      -0.532  29.380  27.155  1.00  0.00    -0.392 OA
ATOM     28  H6  UNL     1      -1.224  29.686  26.580  1.00  0.00     0.210 HD
ENDBRANCH  15  27
TORSDOF 7
ENDMDL