MODEL 5
REMARK VINA RESULT: -5.327539072      2.289      4.298
REMARK  7 active torsions:
REMARK  status: ('A' for Active; 'I' for Inactive)
REMARK    1  A    between atoms: S1_2  and  C3_4
REMARK    2  A    between atoms: C4_5  and  C5_6
REMARK    3  A    between atoms: C6_8  and  C7_9
REMARK    4  A    between atoms: C7_9  and  O2_10
REMARK    5  A    between atoms: C8_12  and  O3_13
REMARK    6  A    between atoms: C9_15  and  O4_16
REMARK    7  A    between atoms: C10_18  and  O5_19
ROOT
HETATM    1  C5  UNL     1       0.992  32.386  27.738  1.00  0.00     0.194 C
HETATM    2  O1  UNL     1       1.308  33.090  26.591  1.00  0.00    -0.368 OA
HETATM    3  C6  UNL     1       0.348  33.655  25.856  1.00  0.00     0.177 C
HETATM    4  C8  UNL     1      -0.982  33.662  26.516  1.00  0.00     0.180 C
HETATM    5  C9  UNL     1      -1.412  32.363  27.118  1.00  0.00     0.181 C
HETATM    6  C10 UNL     1      -0.219  31.516  27.563  1.00  0.00     0.183 C
ENDROOT
BRANCH   1   7
HETATM    7  C4  UNL     1       2.178  31.781  28.335  1.00  0.00     0.022 C
HETATM    8  C3  UNL     1       2.584  31.437  29.532  1.00  0.00    -0.008 C
HETATM    9  C12 UNL     1       3.903  30.812  29.623  1.00  0.00    -0.005 C
HETATM   10  C11 UNL     1       4.835  31.410  28.591  1.00  0.00     0.093 C
HETATM   11  C13 UNL     1       4.550  31.078  30.957  1.00  0.00     0.021 C
HETATM   12  C14 UNL     1       3.882  29.320  29.375  1.00  0.00     0.021 C
HETATM   13  S2  UNL     1       3.594  31.396  27.231  1.00  0.00    -0.129 SA
BRANCH   8  14
HETATM   14  S1  UNL     1       1.611  31.669  30.995  1.00  0.00    -0.196 SA
HETATM   15  C1  UNL     1       1.215  33.343  31.291  1.00  0.00     0.083 C
HETATM   16  C2  UNL     1       0.250  30.573  31.067  1.00  0.00     0.083 C
ENDBRANCH   8  14
ENDBRANCH   1   7
BRANCH   6  17
HETATM   17  O5  UNL     1      -0.036  30.480  26.647  1.00  0.00    -0.390 OA
ATOM     18  H5  UNL     1      -0.679  29.784  26.726  1.00  0.00     0.210 HD
ENDBRANCH   6  17
BRANCH   3  19
HETATM   19  C7  UNL     1       0.294  33.216  24.407  1.00  0.00     0.198 C
BRANCH  19  20
HETATM   20  O2  UNL     1       1.041  32.058  24.197  1.00  0.00    -0.398 OA
ATOM     21  H2  UNL     1       1.798  32.026  24.769  1.00  0.00     0.209 HD
ENDBRANCH  19  20
ENDBRANCH   3  19
BRANCH   5  22
HETATM   22  O4  UNL     1      -2.276  32.651  28.172  1.00  0.00    -0.390 OA
ATOM     23  H4  UNL     1      -1.797  33.174  28.803  1.00  0.00     0.210 HD
ENDBRANCH   5  22
BRANCH   4  24
HETATM   24  O3  UNL     1      -0.986  34.683  27.478  1.00  0.00    -0.390 OA
ATOM     25  H3  UNL     1      -0.098  34.793  27.797  1.00  0.00     0.210 HD
ENDBRANCH   4  24
TORSDOF 7
ENDMDL