MODEL 4
REMARK VINA RESULT: -6.842501605      2.248      4.190
REMARK  7 active torsions:
REMARK  status: ('A' for Active; 'I' for Inactive)
REMARK    1  A    between atoms: C2_2  and  C5_5
REMARK    2  A    between atoms: C11_11  and  N1_12
REMARK    3  A    between atoms: N1_12  and  S1_14
REMARK    4  A    between atoms: S1_14  and  C12_17
REMARK    5  A    between atoms: C12_17  and  N2_18
REMARK    6  A    between atoms: C14_24  and  O3_25
REMARK    7  A    between atoms: C15_27  and  O4_28
ROOT
HETATM    1  C12 UNL     1      -0.999  33.821  24.036  1.00  0.00     0.429 C
HETATM    2  C13 UNL     1      -1.128  35.284  24.022  1.00  0.00     0.110 C
HETATM    3  N3  UNL     1      -1.248  36.446  24.010  1.00  0.00    -0.194 NA
ENDROOT
BRANCH   1   4
HETATM    4  S1  UNL     1      -0.601  33.221  25.655  1.00  0.00     0.269 S
HETATM    5  O1  UNL     1      -1.803  33.260  26.562  1.00  0.00    -0.203 OA
HETATM    6  O2  UNL     1       0.370  34.237  26.247  1.00  0.00    -0.203 OA
BRANCH   4   7
HETATM    7  N1  UNL     1       0.188  31.720  25.673  1.00  0.00    -0.309 N
ATOM      8  H1  UNL     1      -0.283  30.863  25.383  1.00  0.00     0.172 HD
BRANCH   7   9
HETATM    9  C11 UNL     1       1.547  31.716  26.115  1.00  0.00     0.128 C
HETATM   10  C9  UNL     1       1.551  31.420  27.609  1.00  0.00     0.012 C
HETATM   11  C8  UNL     1       1.369  29.932  27.734  1.00  0.00     0.014 C
HETATM   12  C10 UNL     1       2.730  31.989  28.293  1.00  0.00     0.012 C
HETATM   13  C7  UNL     1       2.705  29.309  27.464  1.00  0.00     0.018 C
HETATM   14  C6  UNL     1       3.567  29.628  28.671  1.00  0.00     0.012 C
HETATM   15  C15 UNL     1       3.288  29.899  26.212  1.00  0.00     0.153 C
HETATM   16  C5  UNL     1       3.671  31.077  28.969  1.00  0.00    -0.006 C
HETATM   17  C14 UNL     1       2.299  30.617  25.361  1.00  0.00     0.170 C
BRANCH  16  18
HETATM   18  C2  UNL     1       3.726  31.317  30.487  1.00  0.00    -0.048 C
HETATM   19  C1  UNL     1       2.398  31.322  31.130  1.00  0.00     0.015 C
HETATM   20  C3  UNL     1       4.449  32.589  30.789  1.00  0.00     0.015 C
HETATM   21  C4  UNL     1       4.552  30.174  31.082  1.00  0.00     0.015 C
ENDBRANCH  16  18
BRANCH  15  22
HETATM   22  O4  UNL     1       3.858  28.874  25.483  1.00  0.00    -0.393 OA
ATOM     23  H4  UNL     1       3.510  28.053  25.811  1.00  0.00     0.210 HD
ENDBRANCH  15  22
BRANCH  17  24
HETATM   24  O3  UNL     1       1.401  29.809  24.705  1.00  0.00    -0.391 OA
ATOM     25  H3  UNL     1       1.791  29.485  23.902  1.00  0.00     0.210 HD
ENDBRANCH  17  24
ENDBRANCH   7   9
ENDBRANCH   4   7
ENDBRANCH   1   4
BRANCH   1  26
HETATM   26  N2  UNL     1      -0.023  33.458  23.046  1.00  0.00    -0.047 N
ATOM     27  H23 UNL     1       0.517  32.646  23.346  1.00  0.00     0.277 HD
ATOM     28  H22 UNL     1      -0.473  33.064  22.220  1.00  0.00     0.277 HD
ATOM     29  H21 UNL     1       0.594  34.229  22.791  1.00  0.00     0.277 HD
ENDBRANCH   1  26
TORSDOF 7
ENDMDL