MODEL 2
REMARK VINA RESULT: -6.329785440      2.043      3.808
REMARK  7 active torsions:
REMARK  status: ('A' for Active; 'I' for Inactive)
REMARK       I    between atoms: N1_2  and  C2_4
REMARK    1  A    between atoms: C2_4  and  C3_6
REMARK    2  A    between atoms: C4_8  and  O3_9
REMARK    3  A    between atoms: O3_9  and  C5_10
REMARK       I    between atoms: C5_10  and  N2_12
REMARK    4  A    between atoms: N2_12  and  C6_14
REMARK    5  A    between atoms: C10_18  and  O5_19
REMARK    6  A    between atoms: C11_21  and  N3_22
REMARK       I    between atoms: N3_22  and  C12_24
REMARK    7  A    between atoms: C14_27  and  O7_28
ROOT
HETATM    1  C3  UNL     1     -25.788 -15.304  -1.420  1.00  0.00     0.247 C
HETATM    2  O2  UNL     1     -25.360 -14.465  -2.446  1.00  0.00    -0.341 OA
HETATM    3  C4  UNL     1     -26.075 -14.741  -3.613  1.00  0.00     0.303 C
HETATM    4  C10 UNL     1     -27.410 -14.087  -3.498  1.00  0.00     0.199 C
HETATM    5  C11 UNL     1     -27.805 -14.096  -2.029  1.00  0.00     0.150 C
HETATM    6  C14 UNL     1     -27.300 -15.426  -1.465  1.00  0.00     0.184 C
ENDROOT
BRANCH   3   7
HETATM    7  O3  UNL     1     -25.314 -14.390  -4.723  1.00  0.00    -0.270 OA
BRANCH   7   8
HETATM    8  C5  UNL     1     -23.957 -14.269  -4.780  1.00  0.00     0.363 C
HETATM    9  O4  UNL     1     -23.352 -15.248  -5.302  1.00  0.00    -0.238 OA
HETATM   10  N2  UNL     1     -23.207 -13.165  -4.312  1.00  0.00    -0.329 N
ATOM     11  H2  UNL     1     -23.709 -12.383  -3.892  1.00  0.00     0.165 HD
BRANCH  10  12
HETATM   12  C6  UNL     1     -21.770 -13.085  -4.396  1.00  0.00     0.024 C
HETATM   13  C7  UNL     1     -21.373 -11.799  -3.665  1.00  0.00     0.037 C
HETATM   14  C8  UNL     1     -21.310 -13.007  -5.830  1.00  0.00     0.037 C
HETATM   15  C9  UNL     1     -21.188 -14.274  -3.675  1.00  0.00     0.037 C
ENDBRANCH  10  12
ENDBRANCH   7   8
ENDBRANCH   3   7
BRANCH   4  16
HETATM   16  O5  UNL     1     -28.397 -14.832  -4.148  1.00  0.00    -0.388 OA
ATOM     17  H5  UNL     1     -28.797 -15.462  -3.560  1.00  0.00     0.210 HD
ENDBRANCH   4  16
BRANCH   1  18
HETATM   18  C2  UNL     1     -25.337 -14.774  -0.096  1.00  0.00     0.249 C
HETATM   19  N1  UNL     1     -25.303 -15.657   1.005  1.00  0.00    -0.363 N
HETATM   20  C1  UNL     1     -24.871 -15.175   2.303  1.00  0.00     0.149 C
ATOM     21  H1  UNL     1     -25.582 -16.631   0.889  1.00  0.00     0.162 HD
HETATM   22  O1  UNL     1     -24.992 -13.583   0.062  1.00  0.00    -0.271 OA
ENDBRANCH   1  18
BRANCH   5  23
HETATM   23  N3  UNL     1     -29.246 -14.064  -1.946  1.00  0.00    -0.351 N
HETATM   24  C12 UNL     1     -29.916 -13.261  -0.993  1.00  0.00     0.214 C
HETATM   25  C13 UNL     1     -31.390 -13.233  -0.914  1.00  0.00     0.117 C
HETATM   26  O6  UNL     1     -29.261 -12.548  -0.187  1.00  0.00    -0.274 OA
ATOM     27  H3  UNL     1     -29.794 -14.634  -2.590  1.00  0.00     0.163 HD
ENDBRANCH   5  23
BRANCH   6  28
HETATM   28  O7  UNL     1     -27.847 -15.714  -0.245  1.00  0.00    -0.385 OA
HETATM   29  C15 UNL     1     -28.411 -16.985  -0.266  1.00  0.00     0.202 C
ENDBRANCH   6  28
TORSDOF 7
ENDMDL