MODEL 2
REMARK VINA RESULT: -6.751921840      1.081      1.647
REMARK  6 active torsions:
REMARK  status: ('A' for Active; 'I' for Inactive)
REMARK    1  A    between atoms: C2_3  and  O1_4
REMARK    2  A    between atoms: O1_4  and  C3_5
REMARK    3  A    between atoms: C10_13  and  O2_14
REMARK    4  A    between atoms: C11_16  and  O3_17
REMARK    5  A    between atoms: C13_20  and  O4_21
REMARK    6  A    between atoms: C14_23  and  O5_24
ROOT
HETATM    1  C1  UNL     1     -27.277 -17.579  -0.864  1.00  0.00     0.146 C
HETATM    2  N1  UNL     1     -28.506 -16.937  -0.576  1.00  0.00    -0.382 N
HETATM    3  C2  UNL     1     -28.429 -15.738   0.183  1.00  0.00     0.251 C
HETATM    4  C10 UNL     1     -28.225 -14.498  -0.658  1.00  0.00     0.195 C
HETATM    5  C11 UNL     1     -29.256 -14.425  -1.783  1.00  0.00     0.159 C
HETATM    6  C12 UNL     1     -29.374 -15.715  -2.522  1.00  0.00     0.073 C
HETATM    7  C13 UNL     1     -28.285 -15.838  -3.536  1.00  0.00     0.158 C
HETATM    8  C14 UNL     1     -28.536 -17.009  -4.438  1.00  0.00     0.178 C
HETATM    9  C15 UNL     1     -29.136 -18.193  -3.766  1.00  0.00     0.184 A
HETATM   10  O6  UNL     1     -30.511 -18.167  -3.431  1.00  0.00    -0.370 OA
HETATM   11  C16 UNL     1     -29.437 -18.182  -2.402  1.00  0.00     0.176 A
HETATM   12  C17 UNL     1     -29.469 -16.922  -1.627  1.00  0.00     0.122 C
ENDROOT
BRANCH   3  13
HETATM   13  O1  UNL     1     -27.426 -15.782   1.117  1.00  0.00    -0.356 OA
BRANCH  13  14
HETATM   14  C3  UNL     1     -27.931 -15.681   2.388  1.00  0.00     0.163 C
HETATM   15  C4  UNL     1     -29.263 -14.922   2.419  1.00  0.00     0.065 C
HETATM   16  C5  UNL     1     -29.361 -14.624   3.902  1.00  0.00     0.275 C
HETATM   17  N2  UNL     1     -28.017 -14.275   4.309  1.00  0.00     0.095 N
HETATM   18  C6  UNL     1     -27.952 -12.853   4.451  1.00  0.00     0.310 C
HETATM   19  C7  UNL     1     -27.112 -14.809   3.316  1.00  0.00     0.178 C
HETATM   20  C8  UNL     1     -26.544 -13.642   2.543  1.00  0.00     0.051 C
HETATM   21  C9  UNL     1     -25.960 -15.560   3.941  1.00  0.00     0.051 C
ENDBRANCH  13  14
ENDBRANCH   3  13
BRANCH   4  22
HETATM   22  O2  UNL     1     -26.934 -14.480  -1.116  1.00  0.00    -0.389 OA
ATOM     23  H2  UNL     1     -26.933 -14.185  -2.019  1.00  0.00     0.210 HD
ENDBRANCH   4  22
BRANCH   5  24
HETATM   24  O3  UNL     1     -30.487 -14.156  -1.181  1.00  0.00    -0.392 OA
ATOM     25  H3  UNL     1     -30.794 -13.333  -1.544  1.00  0.00     0.210 HD
ENDBRANCH   5  24
BRANCH   7  26
HETATM   26  O4  UNL     1     -28.335 -14.684  -4.346  1.00  0.00    -0.392 OA
ATOM     27  H4  UNL     1     -29.217 -14.336  -4.288  1.00  0.00     0.210 HD
ENDBRANCH   7  26
BRANCH   8  28
HETATM   28  O5  UNL     1     -27.307 -17.384  -4.987  1.00  0.00    -0.390 OA
ATOM     29  H5  UNL     1     -26.627 -16.959  -4.477  1.00  0.00     0.210 HD
ENDBRANCH   8  28
TORSDOF 6
ENDMDL