MODEL 5
REMARK VINA RESULT: -6.133213563      1.981      2.472
REMARK  7 active torsions:
REMARK  status: ('A' for Active; 'I' for Inactive)
REMARK    1  A    between atoms: C2_2  and  N1_4
REMARK    2  A    between atoms: N1_4  and  C4_6
REMARK    3  A    between atoms: C4_6  and  N2_8
REMARK    4  A    between atoms: N2_8  and  C5_10
REMARK    5  A    between atoms: C8_15  and  C9_16
REMARK    6  A    between atoms: C9_16  and  O2_17
REMARK    7  A    between atoms: C11_23  and  O5_24
ROOT
HETATM    1  C5  UNL     1     -28.907 -17.729  -1.815  1.00  0.00     0.178 C
HETATM    2  S2  UNL     1     -28.205 -17.268  -0.178  1.00  0.00    -0.108 SA
HETATM    3  C6  UNL     1     -27.566 -15.619  -0.649  1.00  0.00     0.206 C
HETATM    4  O1  UNL     1     -28.421 -14.619  -0.232  1.00  0.00    -0.373 OA
HETATM    5  C7  UNL     1     -27.833 -13.381  -0.223  1.00  0.00     0.191 C
HETATM    6  C8  UNL     1     -26.931 -13.129  -1.414  1.00  0.00     0.156 C
HETATM    7  S3  UNL     1     -27.615 -14.062  -2.770  1.00  0.00     0.162 S
HETATM    8  O3  UNL     1     -29.004 -13.525  -3.004  1.00  0.00    -0.227 OA
HETATM    9  O4  UNL     1     -26.776 -13.956  -4.003  1.00  0.00    -0.227 OA
HETATM   10  C10 UNL     1     -27.680 -15.742  -2.172  1.00  0.00     0.179 C
HETATM   11  C11 UNL     1     -29.034 -16.363  -2.437  1.00  0.00     0.172 C
ENDROOT
BRANCH   1  12
HETATM   12  N2  UNL     1     -30.141 -18.436  -1.643  1.00  0.00    -0.351 N
ATOM     13  H2  UNL     1     -30.591 -18.399  -0.729  1.00  0.00     0.163 HD
BRANCH  12  14
HETATM   14  C4  UNL     1     -30.771 -19.179  -2.660  1.00  0.00     0.168 C
HETATM   15  S1  UNL     1     -32.125 -20.044  -2.286  1.00  0.00    -0.041 SA
BRANCH  14  16
HETATM   16  N1  UNL     1     -30.351 -19.263  -4.007  1.00  0.00    -0.363 N
ATOM     17  H1  UNL     1     -29.947 -20.137  -4.341  1.00  0.00     0.162 HD
BRANCH  16  18
HETATM   18  C2  UNL     1     -30.474 -18.151  -4.934  1.00  0.00     0.075 C
HETATM   19  C1  UNL     1     -31.505 -18.410  -5.992  1.00  0.00     0.032 C
HETATM   20  C3  UNL     1     -29.136 -17.896  -5.623  1.00  0.00     0.032 C
ENDBRANCH  16  18
ENDBRANCH  14  16
ENDBRANCH  12  14
ENDBRANCH   1  12
BRANCH  11  21
HETATM   21  O5  UNL     1     -30.003 -15.605  -1.776  1.00  0.00    -0.391 OA
ATOM     22  H5  UNL     1     -30.380 -16.096  -1.055  1.00  0.00     0.210 HD
ENDBRANCH  11  21
BRANCH   6  23
HETATM   23  C9  UNL     1     -26.841 -11.659  -1.739  1.00  0.00     0.186 C
BRANCH  23  24
HETATM   24  O2  UNL     1     -27.303 -11.500  -3.045  1.00  0.00    -0.399 OA
ATOM     25  H2  UNL     1     -26.947 -10.681  -3.369  1.00  0.00     0.209 HD
ENDBRANCH  23  24
ENDBRANCH   6  23
TORSDOF 7
ENDMDL