MODEL 4
REMARK VINA RESULT: -6.410074255      3.691      7.040
REMARK  7 active torsions:
REMARK  status: ('A' for Active; 'I' for Inactive)
REMARK    1  A    between atoms: C2_2  and  C4_4
REMARK    2  A    between atoms: C6_6  and  O1_7
REMARK    3  A    between atoms: C8_11  and  O3_13
REMARK    4  A    between atoms: O3_13  and  C10_14
REMARK    5  A    between atoms: C14_20  and  O5_21
REMARK    6  A    between atoms: C15_23  and  O6_24
REMARK    7  A    between atoms: C16_26  and  O7_27
ROOT
HETATM    1  C10 UNL     1     -28.005 -16.397   0.008  1.00  0.00     0.223 C
HETATM    2  C11 UNL     1     -27.860 -14.916  -0.074  1.00  0.00     0.249 C
HETATM    3  O4  UNL     1     -28.370 -14.063   0.688  1.00  0.00    -0.270 OA
HETATM    4  N1  UNL     1     -27.016 -14.627  -1.203  1.00  0.00    -0.346 N
HETATM    5  C12 UNL     1     -26.584 -13.300  -1.542  1.00  0.00     0.153 C
HETATM    6  C13 UNL     1     -26.719 -15.854  -1.868  1.00  0.00     0.127 C
HETATM    7  C14 UNL     1     -26.901 -15.789  -3.361  1.00  0.00     0.172 C
HETATM    8  C15 UNL     1     -28.363 -15.527  -3.501  1.00  0.00     0.178 C
HETATM    9  C16 UNL     1     -29.005 -16.192  -2.294  1.00  0.00     0.158 C
HETATM   10  C17 UNL     1     -27.881 -16.741  -1.467  1.00  0.00     0.081 C
ENDROOT
BRANCH   1  11
HETATM   11  O3  UNL     1     -26.887 -16.888   0.628  1.00  0.00    -0.357 OA
BRANCH  11  12
HETATM   12  C8  UNL     1     -26.966 -17.081   1.984  1.00  0.00     0.125 C
HETATM   13  C4  UNL     1     -26.201 -16.119   2.810  1.00  0.00     0.034 C
HETATM   14  C5  UNL     1     -24.837 -16.718   2.927  1.00  0.00     0.048 C
HETATM   15  C6  UNL     1     -24.948 -18.198   2.803  1.00  0.00     0.191 C
HETATM   16  C7  UNL     1     -26.298 -18.415   2.249  1.00  0.00     0.189 C
HETATM   17  O2  UNL     1     -26.825 -19.482   2.028  1.00  0.00    -0.292 OA
HETATM   18  C9  UNL     1     -28.405 -17.259   2.360  1.00  0.00     0.055 C
BRANCH  13  19
HETATM   19  C2  UNL     1     -26.816 -15.701   4.103  1.00  0.00    -0.015 C
HETATM   20  C1  UNL     1     -27.112 -14.217   3.999  1.00  0.00     0.010 C
HETATM   21  C3  UNL     1     -26.032 -15.941   5.330  1.00  0.00     0.010 C
ENDBRANCH  13  19
BRANCH  15  22
HETATM   22  O1  UNL     1     -23.996 -18.684   1.904  1.00  0.00    -0.388 OA
ATOM     23  H1  UNL     1     -24.416 -19.185   1.215  1.00  0.00     0.210 HD
ENDBRANCH  15  22
ENDBRANCH  11  12
ENDBRANCH   1  11
BRANCH   9  24
HETATM   24  O7  UNL     1     -29.838 -15.322  -1.634  1.00  0.00    -0.392 OA
ATOM     25  H7  UNL     1     -30.729 -15.649  -1.613  1.00  0.00     0.210 HD
ENDBRANCH   9  24
BRANCH   7  26
HETATM   26  O5  UNL     1     -26.100 -14.819  -3.953  1.00  0.00    -0.391 OA
ATOM     27  H5  UNL     1     -25.561 -15.169  -4.653  1.00  0.00     0.210 HD
ENDBRANCH   7  26
BRANCH   8  28
HETATM   28  O6  UNL     1     -28.815 -16.121  -4.691  1.00  0.00    -0.390 OA
ATOM     29  H6  UNL     1     -29.761 -16.040  -4.732  1.00  0.00     0.210 HD
ENDBRANCH   8  28
TORSDOF 7
ENDMDL