MODEL 5
REMARK VINA RESULT: -6.795000485      4.183      6.054
REMARK  7 active torsions:
REMARK  status: ('A' for Active; 'I' for Inactive)
REMARK    1  A    between atoms: C8_9  and  O2_10
REMARK    2  A    between atoms: C9_12  and  O3_13
REMARK    3  A    between atoms: C10_15  and  O4_16
REMARK    4  A    between atoms: C12_19  and  C13_20
REMARK    5  A    between atoms: C13_20  and  O5_21
REMARK    6  A    between atoms: O5_21  and  S1_22
REMARK    7  A    between atoms: S1_22  and  N1_23
ROOT
HETATM    1  C1  UNL     1     -26.162  -8.037  -3.006  1.00  0.00     0.102 C
HETATM    2  C2  UNL     1     -25.678  -9.161  -3.001  1.00  0.00    -0.158 C
HETATM    3  C3  UNL     1     -25.112 -10.470  -3.008  1.00  0.00     0.083 C
HETATM    4  C4  UNL     1     -25.836 -11.498  -2.634  1.00  0.00     0.060 C
HETATM    5  O1  UNL     1     -27.179 -11.311  -2.226  1.00  0.00    -0.348 OA
HETATM    6  C5  UNL     1     -27.768 -12.426  -1.667  1.00  0.00     0.144 C
HETATM    7  C6  UNL     1     -29.225 -12.723  -1.925  1.00  0.00     0.019 C
HETATM    8  C7  UNL     1     -29.644 -13.984  -1.233  1.00  0.00     0.042 C
HETATM    9  C8  UNL     1     -28.831 -15.216  -1.669  1.00  0.00     0.156 C
HETATM   10  C9  UNL     1     -27.461 -14.754  -1.864  1.00  0.00     0.120 C
HETATM   11  C10 UNL     1     -26.479 -15.203  -2.834  1.00  0.00     0.161 C
HETATM   12  C11 UNL     1     -26.297 -13.744  -3.275  1.00  0.00     0.044 C
HETATM   13  C12 UNL     1     -25.277 -12.905  -2.626  1.00  0.00     0.076 C
HETATM   14  C14 UNL     1     -27.572 -13.515  -2.686  1.00  0.00     0.030 C
HETATM   15  C15 UNL     1     -28.781 -13.115  -3.347  1.00  0.00     0.023 C
ENDROOT
BRANCH  13  16
HETATM   16  C13 UNL     1     -23.936 -12.908  -3.308  1.00  0.00     0.203 C
BRANCH  16  17
HETATM   17  O5  UNL     1     -23.548 -14.244  -3.489  1.00  0.00    -0.259 OA
BRANCH  17  18
HETATM   18  S1  UNL     1     -23.342 -14.626  -5.097  1.00  0.00     0.355 S
HETATM   19  O6  UNL     1     -24.283 -15.773  -5.407  1.00  0.00    -0.176 OA
HETATM   20  O7  UNL     1     -23.702 -13.500  -6.017  1.00  0.00    -0.176 OA
BRANCH  18  21
HETATM   21  N1  UNL     1     -21.746 -15.192  -5.350  1.00  0.00    -0.306 N
ATOM     22  H12 UNL     1     -20.955 -14.977  -4.744  1.00  0.00     0.171 HD
ATOM     23  H11 UNL     1     -21.718 -15.767  -6.192  1.00  0.00     0.171 HD
ENDBRANCH  18  21
ENDBRANCH  17  18
ENDBRANCH  16  17
ENDBRANCH  13  16
BRANCH  11  24
HETATM   24  O4  UNL     1     -27.052 -15.906  -3.896  1.00  0.00    -0.392 OA
ATOM     25  H4  UNL     1     -27.345 -15.335  -4.597  1.00  0.00     0.210 HD
ENDBRANCH  11  24
BRANCH  10  26
HETATM   26  O3  UNL     1     -26.849 -14.552  -0.596  1.00  0.00    -0.384 OA
ATOM     27  H3  UNL     1     -26.965 -15.331  -0.065  1.00  0.00     0.210 HD
ENDBRANCH  10  26
BRANCH   9  28
HETATM   28  O2  UNL     1     -29.422 -15.925  -2.672  1.00  0.00    -0.392 OA
ATOM     29  H2  UNL     1     -30.131 -15.458  -3.095  1.00  0.00     0.210 HD
ENDBRANCH   9  28
TORSDOF 7
ENDMDL