MODEL 4
REMARK VINA RESULT: -6.863355760      2.394      6.365
REMARK  9 active torsions:
REMARK  status: ('A' for Active; 'I' for Inactive)
REMARK    1  A    between atoms: C2_2  and  C3_3
REMARK    2  A    between atoms: C4_4  and  C5_5
REMARK    3  A    between atoms: C5_5  and  S1_6
REMARK    4  A    between atoms: S1_6  and  C6_9
REMARK    5  A    between atoms: C10_13  and  O3_14
REMARK    6  A    between atoms: C11_16  and  O4_17
REMARK    7  A    between atoms: C13_21  and  C14_22
REMARK    8  A    between atoms: C14_22  and  O6_24
REMARK    9  A    between atoms: C16_26  and  O7_27
ROOT
HETATM    1  C6  UNL     1     -26.737 -15.460  -2.658  1.00  0.00     0.066 C
HETATM    2  C7  UNL     1     -26.362 -15.758  -1.424  1.00  0.00     0.002 C
HETATM    3  C8  UNL     1     -26.832 -16.883  -0.600  1.00  0.00     0.043 C
HETATM    4  C9  UNL     1     -26.395 -16.745   0.858  1.00  0.00     0.045 C
HETATM    5  C10 UNL     1     -27.412 -17.649   1.543  1.00  0.00     0.150 C
HETATM    6  C11 UNL     1     -28.631 -17.692   0.648  1.00  0.00     0.176 C
HETATM    7  C12 UNL     1     -28.326 -16.733  -0.444  1.00  0.00     0.161 C
HETATM    8  O5  UNL     1     -29.048 -16.823  -1.578  1.00  0.00    -0.372 OA
HETATM    9  C13 UNL     1     -28.410 -17.298  -2.704  1.00  0.00     0.184 C
HETATM   10  C16 UNL     1     -27.732 -16.203  -3.507  1.00  0.00     0.194 C
ENDROOT
BRANCH   1  11
HETATM   11  S1  UNL     1     -26.029 -14.060  -3.432  1.00  0.00     0.184 S
HETATM   12  O1  UNL     1     -27.100 -13.066  -3.789  1.00  0.00    -0.222 OA
HETATM   13  O2  UNL     1     -25.325 -14.511  -4.671  1.00  0.00    -0.222 OA
BRANCH  11  14
HETATM   14  C5  UNL     1     -24.841 -13.259  -2.390  1.00  0.00     0.239 C
BRANCH  14  15
HETATM   15  C4  UNL     1     -24.062 -12.352  -3.235  1.00  0.00    -0.091 C
HETATM   16  C3  UNL     1     -23.411 -11.616  -3.946  1.00  0.00    -0.106 C
BRANCH  16  17
HETATM   17  C2  UNL     1     -22.620 -10.743  -4.826  1.00  0.00     0.089 C
HETATM   18  C1  UNL     1     -22.385 -11.363  -6.173  1.00  0.00     0.018 C
ENDBRANCH  16  17
ENDBRANCH  14  15
ENDBRANCH  11  14
ENDBRANCH   1  11
BRANCH  10  19
HETATM   19  O7  UNL     1     -26.942 -16.871  -4.471  1.00  0.00    -0.388 OA
ATOM     20  H7  UNL     1     -26.487 -17.544  -3.979  1.00  0.00     0.210 HD
ENDBRANCH  10  19
BRANCH   9  21
HETATM   21  C14 UNL     1     -29.527 -17.842  -3.610  1.00  0.00     0.146 C
HETATM   22  C15 UNL     1     -30.380 -18.858  -2.927  1.00  0.00     0.042 C
BRANCH  21  23
HETATM   23  O6  UNL     1     -28.907 -18.435  -4.705  1.00  0.00    -0.393 OA
ATOM     24  H6  UNL     1     -28.944 -19.374  -4.569  1.00  0.00     0.210 HD
ENDBRANCH  21  23
ENDBRANCH   9  21
BRANCH   5  25
HETATM   25  O3  UNL     1     -27.702 -17.130   2.797  1.00  0.00    -0.393 OA
ATOM     26  H3  UNL     1     -28.642 -17.003   2.868  1.00  0.00     0.210 HD
ENDBRANCH   5  25
BRANCH   6  27
HETATM   27  O4  UNL     1     -29.714 -17.218   1.387  1.00  0.00    -0.390 OA
ATOM     28  H4  UNL     1     -30.503 -17.394   0.887  1.00  0.00     0.210 HD
ENDBRANCH   6  27
TORSDOF 9
ENDMDL