MODEL 5
REMARK VINA RESULT: -6.592691151      1.485      1.699
REMARK  6 active torsions:
REMARK  status: ('A' for Active; 'I' for Inactive)
REMARK    1  A    between atoms: O1_2  and  C2_3
REMARK    2  A    between atoms: C2_3  and  C3_4
REMARK    3  A    between atoms: C3_4  and  O2_5
REMARK    4  A    between atoms: C8_17  and  C9_18
REMARK    5  A    between atoms: C9_18  and  C10_19
REMARK    6  A    between atoms: C15_25  and  O6_26
ROOT
HETATM    1  C3  UNL     1     -27.454 -14.018  -3.236  1.00  0.00     0.188 C
HETATM    2  C4  UNL     1     -26.008 -14.269  -3.215  1.00  0.00     0.258 C
HETATM    3  O3  UNL     1     -25.441 -14.437  -4.367  1.00  0.00    -0.270 OA
HETATM    4  N1  UNL     1     -25.142 -14.356  -2.118  1.00  0.00    -0.345 N
ATOM      5  H1  UNL     1     -24.635 -15.237  -2.033  1.00  0.00     0.163 HD
HETATM    6  C5  UNL     1     -24.862 -13.383  -1.091  1.00  0.00     0.172 C
HETATM    7  C6  UNL     1     -23.531 -12.723  -1.533  1.00  0.00     0.042 C
HETATM    8  C7  UNL     1     -24.571 -14.015   0.223  1.00  0.00     0.240 C
HETATM    9  O4  UNL     1     -23.792 -13.327   0.979  1.00  0.00    -0.271 OA
HETATM   10  N2  UNL     1     -25.062 -15.256   0.685  1.00  0.00    -0.354 N
ATOM     11  H2  UNL     1     -24.369 -15.929   1.014  1.00  0.00     0.162 HD
HETATM   12  C8  UNL     1     -26.447 -15.669   0.740  1.00  0.00     0.093 C
HETATM   13  C11 UNL     1     -26.722 -16.982   0.053  1.00  0.00     0.061 C
HETATM   14  C12 UNL     1     -27.232 -16.811  -1.346  1.00  0.00     0.146 C
HETATM   15  C13 UNL     1     -28.351 -17.762  -1.689  1.00  0.00     0.003 C
HETATM   16  C14 UNL     1     -28.896 -17.517  -2.898  1.00  0.00     0.006 C
HETATM   17  C15 UNL     1     -28.286 -16.373  -3.635  1.00  0.00     0.173 C
HETATM   18  C16 UNL     1     -28.250 -15.209  -2.690  1.00  0.00     0.200 C
HETATM   19  O7  UNL     1     -27.662 -15.526  -1.502  1.00  0.00    -0.370 OA
ENDROOT
BRANCH   1  20
HETATM   20  C2  UNL     1     -27.916 -12.798  -2.491  1.00  0.00     0.217 C
BRANCH  20  21
HETATM   21  O1  UNL     1     -29.336 -12.841  -2.586  1.00  0.00    -0.392 OA
HETATM   22  C1  UNL     1     -29.916 -12.469  -1.386  1.00  0.00     0.201 C
ENDBRANCH  20  21
ENDBRANCH   1  20
BRANCH   1  23
HETATM   23  O2  UNL     1     -27.886 -13.841  -4.554  1.00  0.00    -0.376 OA
ATOM     24  H2  UNL     1     -28.477 -14.563  -4.730  1.00  0.00     0.211 HD
ENDBRANCH   1  23
BRANCH  17  25
HETATM   25  O6  UNL     1     -29.044 -16.108  -4.769  1.00  0.00    -0.389 OA
ATOM     26  H6  UNL     1     -29.722 -16.770  -4.851  1.00  0.00     0.210 HD
ENDBRANCH  17  25
BRANCH  12  27
HETATM   27  C9  UNL     1     -26.797 -15.875   2.225  1.00  0.00     0.094 C
BRANCH  27  28
HETATM   28  C10 UNL     1     -27.493 -14.636   2.669  1.00  0.00     0.233 C
HETATM   29  O5  UNL     1     -27.001 -13.534   2.601  1.00  0.00    -0.307 OA
ENDBRANCH  27  28
ENDBRANCH  12  27
TORSDOF 6
ENDMDL