MODEL 4
REMARK VINA RESULT: -6.786123197      5.374      7.033
REMARK  8 active torsions:
REMARK  status: ('A' for Active; 'I' for Inactive)
REMARK    1  A    between atoms: O1_2  and  C2_3
REMARK    2  A    between atoms: C8_10  and  C9_11
REMARK    3  A    between atoms: C10_12  and  C11_13
REMARK    4  A    between atoms: C11_13  and  O3_14
REMARK    5  A    between atoms: C11_13  and  C12_16
REMARK    6  A    between atoms: C12_16  and  O4_17
REMARK    7  A    between atoms: C12_16  and  C13_19
REMARK    8  A    between atoms: C15_21  and  O5_22
ROOT
HETATM    1  C11 UNL     1     -28.341 -16.866   0.573  1.00  0.00     0.225 C
ENDROOT
BRANCH   1   2
HETATM    2  C10 UNL     1     -28.621 -15.431   0.511  1.00  0.00    -0.071 C
HETATM    3  C9  UNL     1     -28.875 -14.240   0.464  1.00  0.00    -0.094 C
BRANCH   3   4
HETATM    4  C8  UNL     1     -29.178 -12.810   0.401  1.00  0.00     0.123 C
HETATM    5  C2  UNL     1     -28.230 -12.044   1.290  1.00  0.00     0.145 C
HETATM    6  C3  UNL     1     -27.505 -11.032   0.433  1.00  0.00     0.040 C
HETATM    7  C4  UNL     1     -26.644 -11.724  -0.604  1.00  0.00     0.012 C
HETATM    8  C7  UNL     1     -28.557 -10.191  -0.262  1.00  0.00     0.175 C
HETATM    9  C5  UNL     1     -27.565 -12.605  -1.421  1.00  0.00     0.034 C
HETATM   10  C6  UNL     1     -28.976 -12.297  -1.028  1.00  0.00     0.139 C
HETATM   11  O2  UNL     1     -29.313 -10.970  -1.103  1.00  0.00    -0.384 OA
BRANCH   5  12
HETATM   12  O1  UNL     1     -28.960 -11.350   2.243  1.00  0.00    -0.389 OA
HETATM   13  C1  UNL     1     -28.833 -11.913   3.512  1.00  0.00     0.202 C
ENDBRANCH   5  12
ENDBRANCH   3   4
ENDBRANCH   1   2
BRANCH   1  14
HETATM   14  O3  UNL     1     -29.531 -17.618   0.669  1.00  0.00    -0.381 OA
ATOM     15  H3  UNL     1     -29.347 -18.542   0.789  1.00  0.00     0.211 HD
ENDBRANCH   1  14
BRANCH   1  16
HETATM   16  C12 UNL     1     -27.611 -17.234  -0.701  1.00  0.00     0.165 C
BRANCH  16  17
HETATM   17  O4  UNL     1     -26.449 -16.525  -0.872  1.00  0.00    -0.392 OA
ATOM     18  H4  UNL     1     -26.074 -16.636  -1.738  1.00  0.00     0.210 HD
ENDBRANCH  16  17
BRANCH  16  19
HETATM   19  C13 UNL     1     -28.504 -17.025  -1.921  1.00  0.00     0.053 C
HETATM   20  C14 UNL     1     -29.090 -18.303  -2.414  1.00  0.00     0.045 C
HETATM   21  C15 UNL     1     -29.468 -18.328  -3.853  1.00  0.00     0.175 C
HETATM   22  C16 UNL     1     -28.823 -17.233  -4.675  1.00  0.00     0.350 C
HETATM   23  N1  UNL     1     -27.459 -17.074  -4.141  1.00  0.00    -0.040 N
HETATM   24  O6  UNL     1     -29.449 -16.021  -4.524  1.00  0.00    -0.355 OA
HETATM   25  C17 UNL     1     -27.774 -16.245  -2.966  1.00  0.00     0.219 C
ATOM     26  H12 UNL     1     -26.941 -17.934  -3.963  1.00  0.00     0.280 HD
ATOM     27  H11 UNL     1     -26.762 -16.701  -4.786  1.00  0.00     0.280 HD
HETATM   28  C18 UNL     1     -28.752 -15.262  -3.612  1.00  0.00     0.204 C
BRANCH  21  29
HETATM   29  O5  UNL     1     -30.853 -18.206  -3.985  1.00  0.00    -0.391 OA
ATOM     30  H5  UNL     1     -31.288 -18.653  -3.268  1.00  0.00     0.210 HD
ENDBRANCH  21  29
ENDBRANCH  16  19
ENDBRANCH   1  16
TORSDOF 8
ENDMDL