MODEL 2
REMARK VINA RESULT: -6.397405329      3.346      5.956
REMARK  6 active torsions:
REMARK  status: ('A' for Active; 'I' for Inactive)
REMARK    1  A    between atoms: O1_2  and  C2_3
REMARK    2  A    between atoms: C3_4  and  N1_5
REMARK    3  A    between atoms: C4_9  and  N2_10
REMARK    4  A    between atoms: C11_18  and  O2_19
REMARK    5  A    between atoms: C14_25  and  O3_26
REMARK    6  A    between atoms: C16_30  and  O4_31
ROOT
HETATM    1  N2  UNL     1     -26.791 -16.524   1.009  1.00  0.00    -0.357 N
HETATM    2  C5  UNL     1     -26.490 -17.846   1.112  1.00  0.00     0.092 A
HETATM    3  C6  UNL     1     -25.578 -18.346   1.996  1.00  0.00     0.040 A
HETATM    4  C7  UNL     1     -24.908 -17.491   2.846  1.00  0.00     0.047 A
HETATM    5  C8  UNL     1     -23.934 -17.950   3.803  1.00  0.00     0.099 C
HETATM    6  N3  UNL     1     -23.136 -18.305   4.569  1.00  0.00    -0.191 NA
HETATM    7  C9  UNL     1     -25.194 -16.149   2.762  1.00  0.00     0.040 A
HETATM    8  C10 UNL     1     -26.127 -15.707   1.845  1.00  0.00     0.092 A
ENDROOT
BRANCH   1   9
HETATM    9  C4  UNL     1     -27.760 -16.066   0.056  1.00  0.00     0.154 C
HETATM   10  C3  UNL     1     -28.383 -14.756   0.412  1.00  0.00     0.240 C
HETATM   11  C2  UNL     1     -28.965 -14.000  -0.717  1.00  0.00     0.185 C
HETATM   12  C16 UNL     1     -29.398 -14.839  -1.888  1.00  0.00     0.198 C
HETATM   13  C13 UNL     1     -28.467 -15.928  -2.250  1.00  0.00     0.232 C
HETATM   14  C11 UNL     1     -27.226 -15.989  -1.358  1.00  0.00     0.195 C
HETATM   15  N4  UNL     1     -28.115 -16.004  -3.641  1.00  0.00    -0.025 N
HETATM   16  S1  UNL     1     -29.281 -17.567  -2.038  1.00  0.00    -0.121 SA
HETATM   17  C14 UNL     1     -29.218 -16.533  -4.380  1.00  0.00     0.330 C
ATOM     18  H42 UNL     1     -27.798 -15.107  -4.009  1.00  0.00     0.282 HD
ATOM     19  H41 UNL     1     -27.258 -16.535  -3.794  1.00  0.00     0.282 HD
HETATM   20  C15 UNL     1     -29.507 -17.930  -3.828  1.00  0.00     0.137 C
BRANCH  10  21
HETATM   21  N1  UNL     1     -29.458 -15.037   1.369  1.00  0.00    -0.070 N
ATOM     22  H13 UNL     1     -29.368 -14.502   2.232  1.00  0.00     0.274 HD
ATOM     23  H12 UNL     1     -30.360 -14.664   1.071  1.00  0.00     0.274 HD
ATOM     24  H11 UNL     1     -29.482 -16.044   1.529  1.00  0.00     0.274 HD
ENDBRANCH  10  21
BRANCH  11  25
HETATM   25  O1  UNL     1     -30.107 -13.318  -0.272  1.00  0.00    -0.386 OA
HETATM   26  C1  UNL     1     -29.884 -11.950  -0.175  1.00  0.00     0.202 C
ENDBRANCH  11  25
BRANCH  12  27
HETATM   27  O4  UNL     1     -29.511 -13.956  -2.988  1.00  0.00    -0.389 OA
ATOM     28  H4  UNL     1     -30.330 -13.489  -2.871  1.00  0.00     0.210 HD
ENDBRANCH  12  27
BRANCH  14  29
HETATM   29  O2  UNL     1     -26.477 -14.862  -1.587  1.00  0.00    -0.385 OA
HETATM   30  C12 UNL     1     -25.155 -15.144  -1.924  1.00  0.00     0.202 C
ENDBRANCH  14  29
BRANCH  17  31
HETATM   31  O3  UNL     1     -28.862 -16.570  -5.718  1.00  0.00    -0.369 OA
ATOM     32  H3  UNL     1     -28.016 -16.998  -5.788  1.00  0.00     0.212 HD
ENDBRANCH  17  31
ENDBRANCH   1   9
TORSDOF 6
ENDMDL