MODEL 5
REMARK VINA RESULT: -6.734933135      0.971      1.580
REMARK  6 active torsions:
REMARK  status: ('A' for Active; 'I' for Inactive)
REMARK    1  A    between atoms: C4_4  and  C5_5
REMARK    2  A    between atoms: C5_5  and  O1_6
REMARK    3  A    between atoms: C12_15  and  O3_16
REMARK    4  A    between atoms: C13_18  and  O4_19
REMARK    5  A    between atoms: C14_21  and  O5_22
REMARK    6  A    between atoms: C15_24  and  S1_25
ROOT
HETATM    1  C1  UNL     1     -28.219 -13.327  -1.156  1.00  0.00     0.036 C
HETATM    2  C2  UNL     1     -26.937 -13.950  -0.862  1.00  0.00    -0.022 C
HETATM    3  C3  UNL     1     -26.651 -15.362  -0.977  1.00  0.00    -0.033 C
HETATM    4  C4  UNL     1     -27.359 -16.400  -0.205  1.00  0.00     0.001 C
HETATM    5  C12 UNL     1     -28.736 -16.611  -0.778  1.00  0.00     0.182 C
HETATM    6  C13 UNL     1     -28.563 -17.205  -2.183  1.00  0.00     0.181 C
HETATM    7  C14 UNL     1     -27.806 -16.272  -3.052  1.00  0.00     0.172 C
HETATM    8  C15 UNL     1     -26.530 -15.878  -2.413  1.00  0.00     0.172 C
ENDROOT
BRANCH   4   9
HETATM    9  C5  UNL     1     -27.203 -16.523   1.236  1.00  0.00     0.152 C
HETATM   10  C6  UNL     1     -27.809 -17.562   2.029  1.00  0.00     0.173 C
HETATM   11  O2  UNL     1     -27.989 -18.723   1.763  1.00  0.00    -0.293 OA
HETATM   12  C7  UNL     1     -28.216 -16.954   3.328  1.00  0.00     0.082 C
HETATM   13  C8  UNL     1     -29.362 -16.071   3.114  1.00  0.00    -0.018 C
HETATM   14  C11 UNL     1     -27.107 -15.879   3.432  1.00  0.00     0.028 C
HETATM   15  C9  UNL     1     -28.932 -15.071   2.354  1.00  0.00    -0.021 C
HETATM   16  C10 UNL     1     -27.488 -15.279   2.053  1.00  0.00     0.055 C
BRANCH   9  17
HETATM   17  O1  UNL     1     -25.800 -16.678   1.474  1.00  0.00    -0.377 OA
ATOM     18  H1  UNL     1     -25.574 -16.049   2.150  1.00  0.00     0.211 HD
ENDBRANCH   9  17
ENDBRANCH   4   9
BRANCH   5  19
HETATM   19  O3  UNL     1     -29.526 -17.532  -0.120  1.00  0.00    -0.388 OA
ATOM     20  H3  UNL     1     -30.153 -17.999  -0.659  1.00  0.00     0.210 HD
ENDBRANCH   5  19
BRANCH   8  21
HETATM   21  S1  UNL     1     -25.625 -14.815  -3.474  1.00  0.00     0.151 S
HETATM   22  C16 UNL     1     -24.243 -14.049  -2.689  1.00  0.00     0.162 C
HETATM   23  O6  UNL     1     -25.032 -15.725  -4.552  1.00  0.00    -0.227 OA
HETATM   24  O7  UNL     1     -26.486 -13.850  -4.240  1.00  0.00    -0.227 OA
ENDBRANCH   8  21
BRANCH   6  25
HETATM   25  O4  UNL     1     -29.764 -17.638  -2.705  1.00  0.00    -0.390 OA
ATOM     26  H4  UNL     1     -30.377 -16.921  -2.815  1.00  0.00     0.210 HD
ENDBRANCH   6  25
BRANCH   7  27
HETATM   27  O5  UNL     1     -27.433 -17.033  -4.196  1.00  0.00    -0.391 OA
ATOM     28  H5  UNL     1     -27.182 -16.397  -4.856  1.00  0.00     0.210 HD
ENDBRANCH   7  27
TORSDOF 6
ENDMDL