MODEL 2
REMARK VINA RESULT: -7.059203788      2.945      4.298
REMARK  11 active torsions:
REMARK  status: ('A' for Active; 'I' for Inactive)
REMARK    1  A    between atoms: C2_2  and  C5_9
REMARK    2  A    between atoms: C3_3  and  C4_4
REMARK    3  A    between atoms: C4_4  and  N1_5
REMARK    4  A    between atoms: N1_5  and  N2_6
REMARK    5  A    between atoms: C5_9  and  O1_10
REMARK    6  A    between atoms: C5_9  and  C6_12
REMARK    7  A    between atoms: C9_17  and  O4_18
REMARK    8  A    between atoms: C10_20  and  O5_21
REMARK    9  A    between atoms: C11_23  and  O6_24
REMARK   10  A    between atoms: O6_24  and  C12_25
REMARK   11  A    between atoms: C19_34  and  O8_35
ROOT
HETATM    1  C12 UNL     1     -28.715 -15.369   1.616  1.00  0.00     0.291 C
HETATM    2  O7  UNL     1     -29.078 -16.743   1.434  1.00  0.00    -0.346 OA
HETATM    3  C13 UNL     1     -27.950 -17.470   1.342  1.00  0.00     0.088 A
HETATM    4  C14 UNL     1     -27.165 -17.139   0.067  1.00  0.00     0.048 C
HETATM    5  C15 UNL     1     -27.165 -18.201   2.278  1.00  0.00     0.142 A
HETATM    6  C16 UNL     1     -25.764 -18.574   1.978  1.00  0.00     0.068 C
HETATM    7  N3  UNL     1     -24.655 -18.870   1.755  1.00  0.00    -0.197 NA
HETATM    8  C17 UNL     1     -27.366 -16.862   2.688  1.00  0.00     0.038 A
HETATM    9  C18 UNL     1     -28.390 -16.756   3.840  1.00  0.00     0.023 C
HETATM   10  C19 UNL     1     -27.236 -15.547   2.071  1.00  0.00     0.185 C
ENDROOT
BRANCH  10  11
HETATM   11  O8  UNL     1     -26.942 -14.537   3.012  1.00  0.00    -0.390 OA
ATOM     12  H8  UNL     1     -26.169 -14.071   2.714  1.00  0.00     0.210 HD
ENDBRANCH  10  11
BRANCH   1  13
HETATM   13  O6  UNL     1     -28.808 -14.572   0.686  1.00  0.00    -0.347 OA
BRANCH  13  14
HETATM   14  C11 UNL     1     -29.193 -13.901  -0.305  1.00  0.00     0.196 C
HETATM   15  C6  UNL     1     -28.208 -13.111  -1.139  1.00  0.00     0.150 C
HETATM   16  O2  UNL     1     -26.907 -13.243  -0.754  1.00  0.00    -0.347 OA
HETATM   17  C8  UNL     1     -28.470 -11.644  -0.841  1.00  0.00     0.195 C
HETATM   18  C7  UNL     1     -26.359 -11.969  -0.594  1.00  0.00     0.340 C
HETATM   19  O3  UNL     1     -27.422 -11.322   0.050  1.00  0.00    -0.356 OA
HETATM   20  C9  UNL     1     -29.804 -11.549  -0.165  1.00  0.00     0.181 C
HETATM   21  C10 UNL     1     -30.361 -12.930  -0.123  1.00  0.00     0.181 C
BRANCH  15  22
HETATM   22  C5  UNL     1     -28.344 -13.335  -2.622  1.00  0.00     0.187 C
BRANCH  22  23
HETATM   23  C2  UNL     1     -27.473 -14.347  -3.204  1.00  0.00    -0.050 C
HETATM   24  C1  UNL     1     -26.044 -14.092  -3.504  1.00  0.00     0.046 C
HETATM   25  C3  UNL     1     -27.922 -15.552  -3.502  1.00  0.00     0.039 C
BRANCH  25  26
HETATM   26  C4  UNL     1     -29.282 -16.022  -3.296  1.00  0.00     0.208 C
BRANCH  26  27
HETATM   27  N1  UNL     1     -29.575 -16.793  -2.376  1.00  0.00    -0.346 NA
BRANCH  27  28
HETATM   28  N2  UNL     1     -30.045 -17.609  -1.567  1.00  0.00    -0.281 N
ATOM     29  H22 UNL     1     -30.961 -17.457  -1.987  1.00  0.00     0.191 HD
ATOM     30  H21 UNL     1     -30.265 -18.293  -0.843  1.00  0.00     0.191 HD
ENDBRANCH  27  28
ENDBRANCH  26  27
ENDBRANCH  25  26
ENDBRANCH  22  23
BRANCH  22  31
HETATM   31  O1  UNL     1     -28.233 -12.163  -3.348  1.00  0.00    -0.388 OA
ATOM     32  H1  UNL     1     -27.394 -11.758  -3.165  1.00  0.00     0.210 HD
ENDBRANCH  22  31
ENDBRANCH  15  22
BRANCH  20  33
HETATM   33  O4  UNL     1     -29.689 -11.003   1.131  1.00  0.00    -0.390 OA
ATOM     34  H4  UNL     1     -30.451 -10.482   1.358  1.00  0.00     0.210 HD
ENDBRANCH  20  33
BRANCH  21  35
HETATM   35  O5  UNL     1     -31.317 -13.028  -1.129  1.00  0.00    -0.390 OA
ATOM     36  H5  UNL     1     -31.026 -13.699  -1.736  1.00  0.00     0.210 HD
ENDBRANCH  21  35
ENDBRANCH  13  14
ENDBRANCH   1  13
TORSDOF 11
ENDMDL