MODEL 1
REMARK VINA RESULT: -7.799845870      0.000      0.000
REMARK  9 active torsions:
REMARK  status: ('A' for Active; 'I' for Inactive)
REMARK    1  A    between atoms: C4_6  and  C5_7
REMARK    2  A    between atoms: N2_13  and  S1_14
REMARK    3  A    between atoms: S1_14  and  C11_17
REMARK    4  A    between atoms: C11_17  and  C12_18
REMARK    5  A    between atoms: C13_20  and  C14_21
REMARK    6  A    between atoms: C14_21  and  O4_22
REMARK    7  A    between atoms: C15_24  and  O5_25
REMARK    8  A    between atoms: C16_27  and  O6_28
REMARK    9  A    between atoms: C17_30  and  O7_31
ROOT
HETATM    1  S1  UNL     1     -28.339 -12.576  -2.865  1.00  0.00     0.254 S
HETATM    2  O1  UNL     1     -29.852 -12.659  -2.910  1.00  0.00    -0.204 OA
HETATM    3  O2  UNL     1     -27.929 -11.498  -3.827  1.00  0.00    -0.204 OA
ENDROOT
BRANCH   1   4
HETATM    4  N2  UNL     1     -27.754 -14.097  -3.319  1.00  0.00    -0.165 N
HETATM    5  C4  UNL     1     -27.863 -15.137  -2.382  1.00  0.00     0.178 C
HETATM    6  C3  UNL     1     -26.576 -15.749  -1.922  1.00  0.00     0.154 C
HETATM    7  N1  UNL     1     -25.414 -15.278  -2.601  1.00  0.00    -0.370 N
HETATM    8  C2  UNL     1     -25.415 -14.466  -3.599  1.00  0.00     0.140 C
ATOM      9  H1  UNL     1     -24.509 -15.611  -2.268  1.00  0.00     0.161 HD
HETATM   10  C1  UNL     1     -24.190 -13.997  -4.280  1.00  0.00     0.099 C
HETATM   11  O8  UNL     1     -26.637 -14.020  -4.047  1.00  0.00    -0.212 OA
BRANCH   5  12
HETATM   12  C5  UNL     1     -28.694 -16.222  -2.967  1.00  0.00    -0.031 A
HETATM   13  C6  UNL     1     -28.928 -16.340  -4.334  1.00  0.00     0.009 A
HETATM   14  C7  UNL     1     -29.697 -17.347  -4.858  1.00  0.00     0.001 A
HETATM   15  C8  UNL     1     -30.277 -18.295  -4.042  1.00  0.00     0.000 A
HETATM   16  C9  UNL     1     -30.060 -18.199  -2.684  1.00  0.00     0.001 A
HETATM   17  C10 UNL     1     -29.284 -17.181  -2.170  1.00  0.00     0.009 A
ENDBRANCH   5  12
ENDBRANCH   1   4
BRANCH   1  18
HETATM   18  C11 UNL     1     -27.854 -12.081  -1.244  1.00  0.00     0.200 C
BRANCH  18  19
HETATM   19  C12 UNL     1     -28.782 -12.581  -0.193  1.00  0.00     0.169 C
HETATM   20  O3  UNL     1     -28.123 -13.441   0.670  1.00  0.00    -0.372 OA
HETATM   21  C13 UNL     1     -28.869 -13.744   1.800  1.00  0.00     0.176 C
HETATM   22  C15 UNL     1     -30.356 -13.570   1.588  1.00  0.00     0.180 C
HETATM   23  C16 UNL     1     -30.728 -12.145   1.243  1.00  0.00     0.180 C
HETATM   24  C17 UNL     1     -29.558 -11.515   0.519  1.00  0.00     0.179 C
BRANCH  21  25
HETATM   25  C14 UNL     1     -28.662 -15.184   2.253  1.00  0.00     0.198 C
BRANCH  25  26
HETATM   26  O4  UNL     1     -29.555 -16.054   1.637  1.00  0.00    -0.398 OA
ATOM     27  H4  UNL     1     -29.277 -16.959   1.716  1.00  0.00     0.209 HD
ENDBRANCH  25  26
ENDBRANCH  21  25
BRANCH  22  28
HETATM   28  O5  UNL     1     -30.979 -13.872   2.800  1.00  0.00    -0.390 OA
ATOM     29  H5  UNL     1     -31.637 -13.203   2.948  1.00  0.00     0.210 HD
ENDBRANCH  22  28
BRANCH  23  30
HETATM   30  O6  UNL     1     -30.988 -11.456   2.427  1.00  0.00    -0.390 OA
ATOM     31  H6  UNL     1     -30.675 -10.564   2.333  1.00  0.00     0.210 HD
ENDBRANCH  23  30
BRANCH  24  32
HETATM   32  O7  UNL     1     -30.084 -10.637  -0.420  1.00  0.00    -0.390 OA
ATOM     33  H7  UNL     1     -29.595  -9.823  -0.389  1.00  0.00     0.210 HD
ENDBRANCH  24  32
ENDBRANCH  18  19
ENDBRANCH   1  18
TORSDOF 9
ENDMDL