MODEL 5
REMARK VINA RESULT: -6.145621297      2.207      4.830
REMARK  9 active torsions:
REMARK  status: ('A' for Active; 'I' for Inactive)
REMARK    1  A    between atoms: O1_2  and  C2_3
REMARK    2  A    between atoms: C2_3  and  C3_4
REMARK    3  A    between atoms: C2_3  and  C4_7
REMARK    4  A    between atoms: C2_3  and  C5_10
REMARK    5  A    between atoms: C3_4  and  O2_5
REMARK    6  A    between atoms: C4_7  and  O3_8
REMARK    7  A    between atoms: C5_10  and  O4_11
REMARK    8  A    between atoms: C5_10  and  C6_13
REMARK    9  A    between atoms: C6_13  and  O5_14
ROOT
HETATM    1  C6  UNL     1     -28.396 -13.593  -2.102  1.00  0.00     0.101 C
HETATM    2  C7  UNL     1     -29.286 -12.574  -1.455  1.00  0.00     0.062 C
HETATM    3  C8  UNL     1     -30.441 -13.102  -0.634  1.00  0.00     0.017 C
HETATM    4  C9  UNL     1     -28.704 -11.547  -0.536  1.00  0.00     0.132 C
HETATM    5  C10 UNL     1     -29.837 -10.537  -0.257  1.00  0.00     0.055 C
HETATM    6  O6  UNL     1     -27.667 -10.794  -0.828  1.00  0.00    -0.358 OA
HETATM    7  C11 UNL     1     -26.403 -11.173  -0.588  1.00  0.00     0.099 C
HETATM    8  C12 UNL     1     -25.848 -10.781   0.755  1.00  0.00     0.050 C
HETATM    9  C13 UNL     1     -25.483 -10.632  -1.640  1.00  0.00     0.186 A
HETATM   10  O7  UNL     1     -26.077  -9.621  -2.529  1.00  0.00    -0.372 OA
HETATM   11  C14 UNL     1     -25.862 -11.028  -2.930  1.00  0.00     0.155 A
HETATM   12  C15 UNL     1     -27.060 -11.868  -3.020  1.00  0.00     0.048 C
HETATM   13  C16 UNL     1     -27.026 -13.096  -2.035  1.00  0.00     0.006 C
HETATM   14  C17 UNL     1     -25.859 -13.810  -2.658  1.00  0.00     0.019 C
HETATM   15  C18 UNL     1     -26.459 -12.713  -0.709  1.00  0.00     0.112 C
HETATM   16  C19 UNL     1     -27.212 -13.165   0.486  1.00  0.00     0.205 C
HETATM   17  O8  UNL     1     -26.936 -14.125   1.229  1.00  0.00    -0.289 OA
HETATM   18  C20 UNL     1     -28.398 -12.314   0.729  1.00  0.00     0.229 C
HETATM   19  O9  UNL     1     -29.009 -12.256   1.785  1.00  0.00    -0.286 OA
ENDROOT
BRANCH   1  20
HETATM   20  C5  UNL     1     -28.866 -14.982  -1.963  1.00  0.00     0.192 C
BRANCH  20  21
HETATM   21  C2  UNL     1     -28.040 -16.187  -2.034  1.00  0.00     0.131 C
BRANCH  21  22
HETATM   22  O1  UNL     1     -26.947 -16.231  -1.179  1.00  0.00    -0.378 OA
HETATM   23  C1  UNL     1     -26.907 -17.226  -0.249  1.00  0.00     0.202 C
ENDBRANCH  21  22
BRANCH  21  24
HETATM   24  C3  UNL     1     -27.498 -16.515  -3.417  1.00  0.00     0.207 C
BRANCH  24  25
HETATM   25  O2  UNL     1     -28.189 -17.690  -3.838  1.00  0.00    -0.398 OA
ATOM     26  H2  UNL     1     -28.495 -17.509  -4.719  1.00  0.00     0.209 HD
ENDBRANCH  24  25
ENDBRANCH  21  24
BRANCH  21  27
HETATM   27  C4  UNL     1     -28.828 -17.421  -1.661  1.00  0.00     0.207 C
BRANCH  27  28
HETATM   28  O3  UNL     1     -30.174 -17.378  -1.662  1.00  0.00    -0.398 OA
ATOM     29  H3  UNL     1     -30.619 -16.574  -1.423  1.00  0.00     0.209 HD
ENDBRANCH  27  28
ENDBRANCH  21  27
ENDBRANCH  20  21
BRANCH  20  30
HETATM   30  O4  UNL     1     -29.562 -15.172  -3.209  1.00  0.00    -0.389 OA
ATOM     31  H4  UNL     1     -30.389 -15.455  -2.837  1.00  0.00     0.210 HD
ENDBRANCH  20  30
ENDBRANCH   1  20
BRANCH   1  32
HETATM   32  O5  UNL     1     -28.678 -13.444  -3.525  1.00  0.00    -0.386 OA
ATOM     33  H5  UNL     1     -27.945 -13.955  -3.847  1.00  0.00     0.210 HD
ENDBRANCH   1  32
TORSDOF 9
ENDMDL