MODEL 3
REMARK VINA RESULT: -7.096413462      2.862      5.012
REMARK  9 active torsions:
REMARK  status: ('A' for Active; 'I' for Inactive)
REMARK    1  A    between atoms: S1_2  and  O3_5
REMARK    2  A    between atoms: O3_5  and  C2_6
REMARK    3  A    between atoms: C2_6  and  C3_7
REMARK    4  A    between atoms: C5_10  and  O5_11
REMARK    5  A    between atoms: O5_11  and  C6_12
REMARK    6  A    between atoms: C9_15  and  O6_16
REMARK    7  A    between atoms: C15_24  and  O8_25
REMARK    8  A    between atoms: C16_27  and  O9_28
REMARK    9  A    between atoms: C17_30  and  O10_31
ROOT
HETATM    1  C3  UNL     1     -27.902 -15.555  -3.032  1.00  0.00     0.114 C
HETATM    2  C4  UNL     1     -28.797 -15.439  -1.875  1.00  0.00     0.167 C
HETATM    3  O4  UNL     1     -29.744 -16.158  -1.696  1.00  0.00    -0.294 OA
HETATM    4  C5  UNL     1     -28.513 -14.370  -0.873  1.00  0.00     0.224 C
HETATM    5  C15 UNL     1     -28.096 -13.088  -1.616  1.00  0.00     0.185 C
HETATM    6  C16 UNL     1     -28.560 -13.130  -3.050  1.00  0.00     0.179 C
HETATM    7  C17 UNL     1     -27.996 -14.282  -3.832  1.00  0.00     0.163 C
ENDROOT
BRANCH   4   8
HETATM    8  O5  UNL     1     -27.475 -14.787  -0.079  1.00  0.00    -0.357 OA
BRANCH   8   9
HETATM    9  C6  UNL     1     -27.779 -15.640   0.946  1.00  0.00     0.112 C
HETATM   10  C7  UNL     1     -29.032 -15.298   1.658  1.00  0.00     0.012 C
HETATM   11  C8  UNL     1     -29.195 -15.562   2.930  1.00  0.00     0.003 C
HETATM   12  C9  UNL     1     -28.190 -16.220   3.824  1.00  0.00     0.141 C
HETATM   13  C10 UNL     1     -26.816 -16.171   3.242  1.00  0.00     0.044 C
HETATM   14  C11 UNL     1     -26.655 -15.398   1.995  1.00  0.00     0.032 C
HETATM   15  C12 UNL     1     -25.527 -15.993   1.230  1.00  0.00     0.043 C
HETATM   16  C13 UNL     1     -26.006 -16.936   0.484  1.00  0.00     0.155 A
HETATM   17  O7  UNL     1     -26.879 -17.849  -0.149  1.00  0.00    -0.372 OA
HETATM   18  C14 UNL     1     -27.508 -17.070   0.757  1.00  0.00     0.190 A
BRANCH  12  19
HETATM   19  O6  UNL     1     -28.208 -15.582   5.083  1.00  0.00    -0.392 OA
ATOM     20  H6  UNL     1     -29.062 -15.186   5.218  1.00  0.00     0.210 HD
ENDBRANCH  12  19
ENDBRANCH   8   9
ENDBRANCH   4   8
BRANCH   5  21
HETATM   21  O8  UNL     1     -26.724 -12.929  -1.631  1.00  0.00    -0.390 OA
ATOM     22  H8  UNL     1     -26.413 -12.635  -2.479  1.00  0.00     0.210 HD
ENDBRANCH   5  21
BRANCH   1  23
HETATM   23  C2  UNL     1     -28.190 -16.712  -3.931  1.00  0.00     0.205 C
BRANCH  23  24
HETATM   24  O3  UNL     1     -29.458 -16.677  -4.498  1.00  0.00    -0.275 OA
BRANCH  24  25
HETATM   25  S1  UNL     1     -30.100 -18.204  -4.690  1.00  0.00     0.261 S
HETATM   26  C1  UNL     1     -30.564 -18.929  -3.134  1.00  0.00     0.194 C
HETATM   27  O1  UNL     1     -31.321 -18.134  -5.563  1.00  0.00    -0.199 OA
HETATM   28  O2  UNL     1     -29.082 -19.069  -5.347  1.00  0.00    -0.199 OA
ENDBRANCH  24  25
ENDBRANCH  23  24
ENDBRANCH   1  23
BRANCH   6  29
HETATM   29  O9  UNL     1     -28.118 -11.956  -3.656  1.00  0.00    -0.390 OA
ATOM     30  H9  UNL     1     -28.820 -11.653  -4.219  1.00  0.00     0.210 HD
ENDBRANCH   6  29
BRANCH   7  31
HETATM   31  O10 UNL     1     -26.764 -14.003  -4.375  1.00  0.00    -0.392 OA
ATOM     32  H10 UNL     1     -26.840 -13.988  -5.321  1.00  0.00     0.210 HD
ENDBRANCH   7  31
TORSDOF 9
ENDMDL