MODEL 1
REMARK VINA RESULT: -8.250425019      0.000      0.000
REMARK  8 active torsions:
REMARK  status: ('A' for Active; 'I' for Inactive)
REMARK    1  A    between atoms: S1_2  and  N1_4
REMARK    2  A    between atoms: S1_2  and  C10_26
REMARK    3  A    between atoms: N1_4  and  C1_6
REMARK    4  A    between atoms: C3_11  and  C4_12
REMARK    5  A    between atoms: C4_12  and  O5_13
REMARK    6  A    between atoms: C5_16  and  N2_17
REMARK    7  A    between atoms: C6_18  and  O7_19
REMARK    8  A    between atoms: C9_23  and  O8_24
ROOT
HETATM    1  C1  UNL     1     -27.338 -15.334  -1.458  1.00  0.00     0.156 C
HETATM    2  C2  UNL     1     -27.133 -14.460  -0.265  1.00  0.00     0.173 C
HETATM    3  S2  UNL     1     -28.582 -13.754   0.396  1.00  0.00     0.175 S
HETATM    4  O3  UNL     1     -28.378 -12.278   0.707  1.00  0.00    -0.225 OA
HETATM    5  O4  UNL     1     -28.979 -14.379   1.725  1.00  0.00    -0.225 OA
HETATM    6  C3  UNL     1     -29.896 -14.027  -0.738  1.00  0.00     0.269 C
HETATM    7  O6  UNL     1     -29.484 -14.277  -1.968  1.00  0.00    -0.342 OA
HETATM    8  C5  UNL     1     -28.467 -15.035  -2.338  1.00  0.00     0.258 C
ENDROOT
BRANCH   1   9
HETATM    9  N1  UNL     1     -26.088 -15.320  -2.191  1.00  0.00    -0.305 N
ATOM     10  H1  UNL     1     -25.414 -16.082  -2.122  1.00  0.00     0.173 HD
BRANCH   9  11
HETATM   11  S1  UNL     1     -25.813 -13.969  -3.166  1.00  0.00     0.259 S
HETATM   12  O1  UNL     1     -25.968 -12.725  -2.329  1.00  0.00    -0.201 OA
HETATM   13  O2  UNL     1     -26.660 -13.905  -4.401  1.00  0.00    -0.201 OA
BRANCH  11  14
HETATM   14  C10 UNL     1     -24.147 -14.006  -3.698  1.00  0.00     0.079 A
HETATM   15  C11 UNL     1     -23.747 -14.667  -4.846  1.00  0.00     0.025 A
HETATM   16  C12 UNL     1     -22.423 -14.685  -5.240  1.00  0.00     0.002 A
HETATM   17  C13 UNL     1     -21.447 -14.045  -4.507  1.00  0.00     0.000 A
HETATM   18  C14 UNL     1     -21.836 -13.384  -3.363  1.00  0.00     0.002 A
HETATM   19  C15 UNL     1     -23.170 -13.373  -2.975  1.00  0.00     0.025 A
ENDBRANCH  11  14
ENDBRANCH   9  11
ENDBRANCH   1   9
BRANCH   8  20
HETATM   20  N2  UNL     1     -29.003 -16.306  -2.867  1.00  0.00    -0.279 N
HETATM   21  C6  UNL     1     -29.546 -17.334  -2.183  1.00  0.00     0.146 A
HETATM   22  C7  UNL     1     -29.934 -18.349  -2.997  1.00  0.00     0.060 A
HETATM   23  C8  UNL     1     -29.619 -17.943  -4.277  1.00  0.00     0.060 A
HETATM   24  C9  UNL     1     -29.052 -16.692  -4.160  1.00  0.00     0.146 A
BRANCH  21  25
HETATM   25  O7  UNL     1     -29.700 -17.368  -0.791  1.00  0.00    -0.346 OA
ATOM     26  H7  UNL     1     -29.205 -17.932  -0.209  1.00  0.00     0.219 HD
ENDBRANCH  21  25
BRANCH  24  27
HETATM   27  O8  UNL     1     -28.613 -15.979  -5.264  1.00  0.00    -0.346 OA
ATOM     28  H8  UNL     1     -28.541 -15.036  -5.346  1.00  0.00     0.219 HD
ENDBRANCH  24  27
ENDBRANCH   8  20
BRANCH   6  29
HETATM   29  C4  UNL     1     -30.689 -12.703  -0.768  1.00  0.00     0.212 C
BRANCH  29  30
HETATM   30  O5  UNL     1     -32.056 -12.961  -0.706  1.00  0.00    -0.397 OA
ATOM     31  H5  UNL     1     -32.315 -13.136   0.191  1.00  0.00     0.209 HD
ENDBRANCH  29  30
ENDBRANCH   6  29
TORSDOF 8
ENDMDL