MODEL 2
REMARK VINA RESULT: -7.649802218      3.917      8.513
REMARK  8 active torsions:
REMARK  status: ('A' for Active; 'I' for Inactive)
REMARK    1  A    between atoms: C1_2  and  C2_3
REMARK       I    between atoms: C1_2  and  N1_16
REMARK    2  A    between atoms: C2_3  and  C3_4
REMARK    3  A    between atoms: C4_6  and  C5_7
REMARK    4  A    between atoms: N1_16  and  C13_18
REMARK    5  A    between atoms: C14_19  and  O4_20
REMARK    6  A    between atoms: C15_22  and  O5_23
REMARK    7  A    between atoms: C16_25  and  C17_26
REMARK    8  A    between atoms: C17_26  and  O6_27
ROOT
HETATM    1  O1  UNL     1     -23.973 -13.662  -5.991  1.00  0.00    -0.273 OA
HETATM    2  C1  UNL     1     -23.848 -13.579  -4.753  1.00  0.00     0.221 C
HETATM    3  N1  UNL     1     -23.337 -12.391  -4.197  1.00  0.00    -0.339 N
ATOM      4  H1  UNL     1     -23.239 -12.337  -3.184  1.00  0.00     0.164 HD
ENDROOT
BRANCH   3   5
HETATM    5  C13 UNL     1     -22.942 -11.240  -4.987  1.00  0.00     0.267 C
HETATM    6  C14 UNL     1     -21.506 -11.430  -5.456  1.00  0.00     0.189 C
HETATM    7  C15 UNL     1     -20.699 -10.175  -5.368  1.00  0.00     0.182 C
HETATM    8  C16 UNL     1     -21.531  -8.957  -5.696  1.00  0.00     0.197 C
HETATM    9  O7  UNL     1     -22.197  -8.526  -4.551  1.00  0.00    -0.264 OA
HETATM   10  S1  UNL     1     -23.005  -9.828  -3.897  1.00  0.00     0.290 S
HETATM   11  O8  UNL     1     -24.453  -9.421  -3.724  1.00  0.00    -0.196 OA
HETATM   12  O9  UNL     1     -22.472 -10.169  -2.531  1.00  0.00    -0.196 OA
BRANCH   6  13
HETATM   13  O4  UNL     1     -21.565 -11.878  -6.778  1.00  0.00    -0.390 OA
ATOM     14  H4  UNL     1     -22.320 -11.462  -7.178  1.00  0.00     0.210 HD
ENDBRANCH   6  13
BRANCH   7  15
HETATM   15  O5  UNL     1     -20.079  -9.991  -4.143  1.00  0.00    -0.390 OA
ATOM     16  H5  UNL     1     -20.679  -9.958  -3.408  1.00  0.00     0.210 HD
ENDBRANCH   7  15
BRANCH   8  17
HETATM   17  C17 UNL     1     -20.650  -7.800  -6.149  1.00  0.00     0.200 C
BRANCH  17  18
HETATM   18  O6  UNL     1     -21.340  -6.949  -6.987  1.00  0.00    -0.398 OA
ATOM     19  H6  UNL     1     -20.908  -6.105  -7.049  1.00  0.00     0.209 HD
ENDBRANCH  17  18
ENDBRANCH   8  17
ENDBRANCH   3   5
BRANCH   2  20
HETATM   20  C2  UNL     1     -24.227 -14.702  -3.899  1.00  0.00     0.142 C
BRANCH  20  21
HETATM   21  C3  UNL     1     -25.663 -14.675  -3.463  1.00  0.00     0.200 C
HETATM   22  O2  UNL     1     -26.433 -15.680  -3.993  1.00  0.00    -0.368 OA
HETATM   23  C4  UNL     1     -27.641 -15.494  -3.292  1.00  0.00     0.162 C
HETATM   24  C11 UNL     1     -27.203 -15.412  -1.824  1.00  0.00     0.118 C
HETATM   25  C12 UNL     1     -25.836 -14.831  -2.007  1.00  0.00     0.158 C
HETATM   26  O3  UNL     1     -25.098 -14.578  -1.073  1.00  0.00    -0.295 OA
BRANCH  23  27
HETATM   27  C5  UNL     1     -28.586 -16.614  -3.512  1.00  0.00    -0.029 A
HETATM   28  C6  UNL     1     -28.843 -17.462  -2.460  1.00  0.00     0.010 A
HETATM   29  C7  UNL     1     -29.724 -18.519  -2.648  1.00  0.00     0.001 A
HETATM   30  C8  UNL     1     -30.351 -18.740  -3.872  1.00  0.00     0.000 A
HETATM   31  C9  UNL     1     -30.082 -17.886  -4.904  1.00  0.00     0.001 A
HETATM   32  C10 UNL     1     -29.199 -16.821  -4.730  1.00  0.00     0.010 A
ENDBRANCH  23  27
ENDBRANCH  20  21
ENDBRANCH   2  20
TORSDOF 8
ENDMDL