MODEL 3
REMARK VINA RESULT: -7.709690481      1.868      2.979
REMARK  9 active torsions:
REMARK  status: ('A' for Active; 'I' for Inactive)
REMARK    1  A    between atoms: C2_4  and  O3_5
REMARK    2  A    between atoms: O3_5  and  C3_6
REMARK    3  A    between atoms: C3_6  and  C4_7
REMARK    4  A    between atoms: C5_8  and  O4_9
REMARK    5  A    between atoms: C12_21  and  O5_22
REMARK    6  A    between atoms: C13_24  and  O6_25
REMARK    7  A    between atoms: C14_27  and  O7_28
REMARK    8  A    between atoms: O7_28  and  C15_29
REMARK    9  A    between atoms: C15_29  and  C16_30
ROOT
HETATM    1  O1  UNL     1     -25.015 -14.848  -0.149  1.00  0.00    -0.262 OA
HETATM    2  C1  UNL     1     -25.059 -14.326  -1.282  1.00  0.00     0.293 C
HETATM    3  O2  UNL     1     -23.973 -13.623  -1.747  1.00  0.00    -0.285 OA
HETATM    4  C2  UNL     1     -23.584 -13.726  -3.115  1.00  0.00     0.300 C
HETATM    5  C12 UNL     1     -24.737 -13.961  -4.037  1.00  0.00     0.205 C
HETATM    6  C13 UNL     1     -26.089 -13.632  -3.406  1.00  0.00     0.190 C
HETATM    7  C14 UNL     1     -26.251 -14.458  -2.118  1.00  0.00     0.252 C
ENDROOT
BRANCH   4   8
HETATM    8  O3  UNL     1     -22.929 -12.569  -3.526  1.00  0.00    -0.357 OA
BRANCH   8   9
HETATM    9  C3  UNL     1     -21.606 -12.872  -3.775  1.00  0.00     0.180 C
BRANCH   9  10
HETATM   10  C4  UNL     1     -20.618 -11.844  -3.364  1.00  0.00     0.078 C
HETATM   11  C5  UNL     1     -21.331 -10.481  -3.582  1.00  0.00     0.162 C
HETATM   12  C6  UNL     1     -20.871 -10.262  -4.944  1.00  0.00     0.281 C
HETATM   13  C7  UNL     1     -20.826  -8.942  -5.581  1.00  0.00     0.273 C
HETATM   14  N2  UNL     1     -19.413 -10.417  -4.700  1.00  0.00     0.140 N
HETATM   15  N1  UNL     1     -19.792  -9.223  -6.604  1.00  0.00    -0.038 N
HETATM   16  C8  UNL     1     -18.985 -10.310  -6.066  1.00  0.00     0.444 C
ATOM     17  H12 UNL     1     -20.175  -9.418  -7.530  1.00  0.00     0.280 HD
ATOM     18  H11 UNL     1     -19.246  -8.402  -6.869  1.00  0.00     0.280 HD
HETATM   19  C9  UNL     1     -19.381 -11.650  -6.597  1.00  0.00     0.036 C
HETATM   20  C10 UNL     1     -19.616 -12.477  -5.583  1.00  0.00     0.009 C
HETATM   21  C11 UNL     1     -19.406 -11.789  -4.301  1.00  0.00     0.258 C
BRANCH  11  22
HETATM   22  O4  UNL     1     -20.734  -9.617  -2.657  1.00  0.00    -0.393 OA
ATOM     23  H4  UNL     1     -20.982  -8.747  -2.946  1.00  0.00     0.210 HD
ENDBRANCH  11  22
ENDBRANCH   9  10
ENDBRANCH   8   9
ENDBRANCH   4   8
BRANCH   5  24
HETATM   24  O5  UNL     1     -24.758 -15.278  -4.476  1.00  0.00    -0.388 OA
ATOM     25  H5  UNL     1     -24.060 -15.438  -5.099  1.00  0.00     0.210 HD
ENDBRANCH   5  24
BRANCH   6  26
HETATM   26  O6  UNL     1     -27.054 -14.002  -4.342  1.00  0.00    -0.390 OA
ATOM     27  H6  UNL     1     -27.872 -13.625  -4.041  1.00  0.00     0.210 HD
ENDBRANCH   6  26
BRANCH   7  28
HETATM   28  O7  UNL     1     -26.560 -15.738  -2.498  1.00  0.00    -0.369 OA
BRANCH  28  29
HETATM   29  C15 UNL     1     -27.539 -16.330  -1.709  1.00  0.00     0.207 C
BRANCH  29  30
HETATM   30  C16 UNL     1     -28.421 -17.122  -2.607  1.00  0.00    -0.035 A
HETATM   31  C17 UNL     1     -29.460 -17.899  -2.109  1.00  0.00     0.009 A
HETATM   32  C18 UNL     1     -30.292 -18.641  -2.902  1.00  0.00     0.001 A
HETATM   33  C19 UNL     1     -30.105 -18.628  -4.266  1.00  0.00     0.000 A
HETATM   34  C20 UNL     1     -29.080 -17.868  -4.810  1.00  0.00     0.001 A
HETATM   35  C21 UNL     1     -28.259 -17.131  -3.978  1.00  0.00     0.009 A
ENDBRANCH  29  30
ENDBRANCH  28  29
ENDBRANCH   7  28
TORSDOF 9
ENDMDL