MODEL 2
REMARK VINA RESULT: -7.999525458      3.009      5.287
REMARK  8 active torsions:
REMARK  status: ('A' for Active; 'I' for Inactive)
REMARK    1  A    between atoms: C2_2  and  C3_3
REMARK    2  A    between atoms: C2_2  and  O3_8
REMARK    3  A    between atoms: C3_3  and  C4_4
REMARK    4  A    between atoms: C4_4  and  C5_5
REMARK    5  A    between atoms: O3_8  and  C6_9
REMARK    6  A    between atoms: C6_9  and  C7_11
REMARK    7  A    between atoms: C8_12  and  O5_13
REMARK    8  A    between atoms: C19_31  and  O10_32
ROOT
HETATM    1  C7  UNL     1     -26.331 -14.578  -2.047  1.00  0.00     0.154 C
HETATM    2  C8  UNL     1     -25.356 -14.035  -0.990  1.00  0.00     0.166 C
HETATM    3  C9  UNL     1     -24.177 -13.753  -1.894  1.00  0.00     0.188 C
HETATM    4  O6  UNL     1     -23.140 -13.077  -1.326  1.00  0.00    -0.363 OA
HETATM    5  C10 UNL     1     -22.467 -12.387  -2.345  1.00  0.00     0.242 C
HETATM    6  C11 UNL     1     -22.163 -13.250  -3.520  1.00  0.00     0.193 C
HETATM    7  O7  UNL     1     -21.302 -14.055  -3.200  1.00  0.00    -0.292 OA
HETATM    8  C12 UNL     1     -22.562 -13.448  -4.931  1.00  0.00     0.119 C
HETATM    9  C13 UNL     1     -22.231 -14.856  -5.335  1.00  0.00     0.054 C
HETATM   10  C14 UNL     1     -21.785 -12.520  -5.857  1.00  0.00     0.054 C
HETATM   11  O8  UNL     1     -23.923 -13.154  -5.164  1.00  0.00    -0.341 OA
HETATM   12  C15 UNL     1     -24.648 -13.891  -4.271  1.00  0.00     0.296 C
HETATM   13  O9  UNL     1     -26.019 -13.940  -4.408  1.00  0.00    -0.344 OA
HETATM   14  C16 UNL     1     -26.270 -13.519  -3.098  1.00  0.00     0.108 C
HETATM   15  C17 UNL     1     -27.291 -12.407  -2.973  1.00  0.00     0.050 C
HETATM   16  C18 UNL     1     -24.843 -13.064  -3.034  1.00  0.00     0.139 C
HETATM   17  N1  UNL     1     -24.616 -11.685  -3.174  1.00  0.00    -0.376 N
ATOM     18  H1  UNL     1     -25.320 -11.050  -3.551  1.00  0.00     0.157 HD
HETATM   19  C19 UNL     1     -23.324 -11.232  -2.750  1.00  0.00     0.251 C
ENDROOT
BRANCH   1  20
HETATM   20  C6  UNL     1     -27.671 -14.817  -1.488  1.00  0.00     0.269 C
HETATM   21  O4  UNL     1     -27.861 -14.570  -0.271  1.00  0.00    -0.265 OA
BRANCH  20  22
HETATM   22  O3  UNL     1     -28.726 -15.294  -2.210  1.00  0.00    -0.316 OA
BRANCH  22  23
HETATM   23  C2  UNL     1     -28.744 -16.518  -2.945  1.00  0.00     0.128 C
HETATM   24  C1  UNL     1     -28.802 -16.260  -4.393  1.00  0.00     0.040 C
BRANCH  23  25
HETATM   25  C3  UNL     1     -29.650 -17.474  -2.297  1.00  0.00     0.043 C
BRANCH  25  26
HETATM   26  C4  UNL     1     -29.903 -18.786  -2.900  1.00  0.00     0.116 C
BRANCH  26  27
HETATM   27  C5  UNL     1     -31.175 -19.051  -3.562  1.00  0.00     0.172 C
HETATM   28  O1  UNL     1     -32.207 -19.503  -3.042  1.00  0.00    -0.648 OA
HETATM   29  O2  UNL     1     -31.289 -18.774  -4.951  1.00  0.00    -0.648 OA
ENDBRANCH  26  27
ENDBRANCH  25  26
ENDBRANCH  23  25
ENDBRANCH  22  23
ENDBRANCH  20  22
ENDBRANCH   1  20
BRANCH   2  30
HETATM   30  O5  UNL     1     -25.091 -14.944   0.002  1.00  0.00    -0.392 OA
ATOM     31  H5  UNL     1     -24.497 -15.631  -0.279  1.00  0.00     0.210 HD
ENDBRANCH   2  30
BRANCH  19  32
HETATM   32  O10 UNL     1     -23.388 -10.352  -1.655  1.00  0.00    -0.374 OA
ATOM     33  H10 UNL     1     -24.267  -9.990  -1.633  1.00  0.00     0.212 HD
ENDBRANCH  19  32
TORSDOF 8
ENDMDL