MODEL 1
REMARK VINA RESULT: -7.776459484      0.000      0.000
REMARK  9 active torsions:
REMARK  status: ('A' for Active; 'I' for Inactive)
REMARK    1  A    between atoms: C6_8  and  O2_9
REMARK    2  A    between atoms: C7_11  and  O3_12
REMARK    3  A    between atoms: C10_17  and  O5_18
REMARK    4  A    between atoms: O5_18  and  C11_19
REMARK    5  A    between atoms: C11_19  and  C12_20
REMARK    6  A    between atoms: C12_20  and  C13_21
REMARK    7  A    between atoms: C13_21  and  C14_22
REMARK    8  A    between atoms: C19_28  and  O6_29
REMARK    9  A    between atoms: C20_31  and  O7_32
ROOT
HETATM    1  C1  UNL     1     -25.313 -16.511   5.676  1.00  0.00     0.310 C
HETATM    2  N1  UNL     1     -25.992 -16.829   4.431  1.00  0.00     0.096 N
HETATM    3  C2  UNL     1     -27.185 -16.112   4.349  1.00  0.00     0.307 C
HETATM    4  C3  UNL     1     -28.315 -16.667   3.554  1.00  0.00     0.181 C
HETATM    5  O1  UNL     1     -28.105 -17.633   2.679  1.00  0.00    -0.381 OA
HETATM    6  C4  UNL     1     -27.300 -18.670   2.786  1.00  0.00     0.178 C
HETATM    7  C5  UNL     1     -26.061 -18.365   1.944  1.00  0.00     0.072 C
HETATM    8  C6  UNL     1     -24.835 -19.068   2.515  1.00  0.00     0.157 C
HETATM    9  C7  UNL     1     -24.231 -18.098   3.477  1.00  0.00     0.183 C
HETATM   10  C8  UNL     1     -25.054 -16.827   3.393  1.00  0.00     0.282 C
HETATM   11  C9  UNL     1     -25.664 -16.941   1.993  1.00  0.00     0.169 C
HETATM   12  O4  UNL     1     -26.557 -15.980   1.870  1.00  0.00    -0.350 OA
HETATM   13  C10 UNL     1     -27.340 -15.811   0.772  1.00  0.00     0.291 C
HETATM   14  C19 UNL     1     -28.770 -15.738   1.237  1.00  0.00     0.204 C
HETATM   15  C20 UNL     1     -28.878 -15.490   2.735  1.00  0.00     0.182 C
ENDROOT
BRANCH  13  16
HETATM   16  O5  UNL     1     -27.099 -16.669  -0.266  1.00  0.00    -0.359 OA
BRANCH  16  17
HETATM   17  C11 UNL     1     -26.827 -15.993  -1.480  1.00  0.00     0.171 C
BRANCH  17  18
HETATM   18  C12 UNL     1     -28.067 -15.928  -2.333  1.00  0.00     0.031 C
BRANCH  18  19
HETATM   19  C13 UNL     1     -27.971 -16.733  -3.587  1.00  0.00     0.042 C
BRANCH  19  20
HETATM   20  C14 UNL     1     -29.191 -17.546  -3.774  1.00  0.00    -0.041 A
HETATM   21  C15 UNL     1     -29.857 -17.721  -4.992  1.00  0.00     0.025 A
HETATM   22  C16 UNL     1     -30.941 -18.536  -4.781  1.00  0.00     0.090 A
HETATM   23  N2  UNL     1     -30.970 -18.870  -3.480  1.00  0.00    -0.370 N
HETATM   24  C17 UNL     1     -31.943 -19.709  -2.844  1.00  0.00     0.154 C
HETATM   25  C18 UNL     1     -29.911 -18.273  -2.861  1.00  0.00     0.097 A
ENDBRANCH  19  20
ENDBRANCH  18  19
ENDBRANCH  17  18
ENDBRANCH  16  17
ENDBRANCH  13  16
BRANCH  14  26
HETATM   26  O6  UNL     1     -29.499 -16.886   0.941  1.00  0.00    -0.388 OA
ATOM     27  H6  UNL     1     -30.088 -17.144   1.641  1.00  0.00     0.210 HD
ENDBRANCH  14  26
BRANCH  15  28
HETATM   28  O7  UNL     1     -30.233 -15.284   2.994  1.00  0.00    -0.390 OA
ATOM     29  H7  UNL     1     -30.547 -14.479   2.599  1.00  0.00     0.210 HD
ENDBRANCH  15  28
BRANCH   8  30
HETATM   30  O2  UNL     1     -23.928 -19.254   1.470  1.00  0.00    -0.392 OA
ATOM     31  H2  UNL     1     -23.061 -19.050   1.801  1.00  0.00     0.210 HD
ENDBRANCH   8  30
BRANCH   9  32
HETATM   32  O3  UNL     1     -22.888 -17.861   3.194  1.00  0.00    -0.391 OA
ATOM     33  H3  UNL     1     -22.475 -17.332   3.868  1.00  0.00     0.210 HD
ENDBRANCH   9  32
TORSDOF 9
ENDMDL