MODEL 3
REMARK VINA RESULT: -6.558231569      3.510      6.380
REMARK  10 active torsions:
REMARK  status: ('A' for Active; 'I' for Inactive)
REMARK    1  A    between atoms: N1_7  and  C6_8
REMARK    2  A    between atoms: C6_8  and  C7_9
REMARK    3  A    between atoms: C8_10  and  C9_11
REMARK    4  A    between atoms: C10_12  and  C11_13
REMARK    5  A    between atoms: C14_16  and  C15_17
REMARK    6  A    between atoms: C15_17  and  O2_18
REMARK    7  A    between atoms: C16_20  and  O3_21
REMARK    8  A    between atoms: C17_23  and  O4_24
REMARK    9  A    between atoms: C18_26  and  O5_27
REMARK   10  A    between atoms: O5_27  and  S1_28
ROOT
HETATM    1  C7  UNL     1     -26.688 -14.541  -2.494  1.00  0.00     0.053 C
HETATM    2  C8  UNL     1     -26.718 -13.597  -1.293  1.00  0.00     0.082 C
HETATM    3  C14 UNL     1     -28.129 -13.363  -0.882  1.00  0.00     0.057 C
HETATM    4  C16 UNL     1     -28.789 -12.528  -1.953  1.00  0.00     0.156 C
HETATM    5  C17 UNL     1     -28.025 -12.524  -3.234  1.00  0.00     0.178 C
HETATM    6  C18 UNL     1     -27.440 -13.887  -3.590  1.00  0.00     0.183 C
ENDROOT
BRANCH   1   7
HETATM    7  C6  UNL     1     -25.243 -14.874  -2.709  1.00  0.00     0.140 C
BRANCH   7   8
HETATM    8  N1  UNL     1     -24.484 -14.041  -3.571  1.00  0.00    -0.324 N
HETATM    9  C1  UNL     1     -24.016 -14.436  -4.749  1.00  0.00     0.247 A
HETATM   10  O1  UNL     1     -24.232 -15.571  -5.244  1.00  0.00    -0.268 OA
HETATM   11  C2  UNL     1     -23.238 -13.609  -5.556  1.00  0.00     0.074 A
HETATM   12  C3  UNL     1     -22.937 -12.349  -5.139  1.00  0.00     0.007 A
HETATM   13  C4  UNL     1     -23.414 -11.912  -3.914  1.00  0.00     0.017 A
HETATM   14  C5  UNL     1     -24.175 -12.794  -3.180  1.00  0.00     0.094 A
ENDBRANCH   7   8
ENDBRANCH   1   7
BRANCH   2  15
HETATM   15  C9  UNL     1     -25.931 -14.178  -0.195  1.00  0.00    -0.100 C
HETATM   16  C10 UNL     1     -25.297 -14.662   0.737  1.00  0.00    -0.101 C
BRANCH  16  17
HETATM   17  C11 UNL     1     -24.534 -15.260   1.835  1.00  0.00     0.065 A
HETATM   18  C12 UNL     1     -25.193 -15.359   3.162  1.00  0.00     0.018 A
HETATM   19  C13 UNL     1     -24.970 -16.607   2.255  1.00  0.00     0.018 A
ENDBRANCH  16  17
ENDBRANCH   2  15
BRANCH   6  20
HETATM   20  O5  UNL     1     -28.380 -14.695  -4.199  1.00  0.00    -0.248 OA
BRANCH  20  21
HETATM   21  S1  UNL     1     -28.246 -16.302  -4.160  1.00  0.00     0.252 S
HETATM   22  O6  UNL     1     -29.459 -16.905  -4.822  1.00  0.00    -0.572 OA
HETATM   23  O7  UNL     1     -27.077 -16.884  -4.905  1.00  0.00    -0.572 OA
HETATM   24  O8  UNL     1     -28.169 -16.958  -2.618  1.00  0.00    -0.572 OA
ENDBRANCH  20  21
ENDBRANCH   6  20
BRANCH   3  25
HETATM   25  C15 UNL     1     -28.942 -14.581  -0.618  1.00  0.00     0.172 C
BRANCH  25  26
HETATM   26  O2  UNL     1     -30.024 -14.674  -1.518  1.00  0.00    -0.400 OA
ATOM     27  H2  UNL     1     -30.721 -15.213  -1.162  1.00  0.00     0.209 HD
ENDBRANCH  25  26
ENDBRANCH   3  25
BRANCH   5  28
HETATM   28  O4  UNL     1     -28.897 -12.138  -4.252  1.00  0.00    -0.390 OA
ATOM     29  H4  UNL     1     -28.598 -11.302  -4.591  1.00  0.00     0.210 HD
ENDBRANCH   5  28
BRANCH   4  30
HETATM   30  O3  UNL     1     -28.842 -11.215  -1.480  1.00  0.00    -0.392 OA
ATOM     31  H3  UNL     1     -29.302 -10.700  -2.132  1.00  0.00     0.210 HD
ENDBRANCH   4  30
TORSDOF 10
ENDMDL