MODEL 3
REMARK VINA RESULT: -4.870832549      4.767      6.380
REMARK  0 active torsions:
REMARK  status: ('A' for Active; 'I' for Inactive)
ROOT
HETATM    1  C1  UNL     1     -11.139  -3.801  28.002  1.00  0.00     0.039 C
HETATM    2  C2  UNL     1     -11.870  -5.096  27.624  1.00  0.00     0.118 C
HETATM    3  C3  UNL     1     -13.181  -5.088  28.305  1.00  0.00     0.032 C
HETATM    4  C4  UNL     1     -14.019  -6.212  27.810  1.00  0.00     0.013 C
HETATM    5  C5  UNL     1     -13.885  -6.541  26.379  1.00  0.00     0.060 C
HETATM    6  C6  UNL     1     -14.899  -5.882  25.485  1.00  0.00     0.265 C
HETATM    7  C7  UNL     1     -13.915  -4.827  25.178  1.00  0.00     0.081 C
HETATM    8  C8  UNL     1     -12.835  -5.798  25.620  1.00  0.00     0.070 C
HETATM    9  C9  UNL     1     -12.359  -6.659  24.486  1.00  0.00     0.041 C
HETATM   10  C10 UNL     1     -13.235  -6.649  23.280  1.00  0.00     0.047 C
HETATM   11  C11 UNL     1     -14.607  -7.198  23.466  1.00  0.00     0.274 C
HETATM   12  C12 UNL     1     -15.231  -7.274  22.061  1.00  0.00     0.048 C
HETATM   13  C13 UNL     1     -14.263  -8.041  21.143  1.00  0.00     0.030 C
HETATM   14  C14 UNL     1     -15.452  -5.945  21.442  1.00  0.00     0.030 C
HETATM   15  S1  UNL     1     -16.756  -8.258  22.059  1.00  0.00    -0.086 SA
HETATM   16  S2  UNL     1     -18.267  -7.458  23.269  1.00  0.00    -0.095 SA
HETATM   17  C15 UNL     1     -17.722  -7.385  24.999  1.00  0.00     0.122 C
HETATM   18  C16 UNL     1     -16.264  -7.683  25.038  1.00  0.00     0.324 C
HETATM   19  N1  UNL     1     -15.445  -6.622  24.418  1.00  0.00     0.025 N
HETATM   20  O1  UNL     1     -16.368  -5.791  23.820  1.00  0.00    -0.064 OA
HETATM   21  O2  UNL     1     -11.843  -5.225  26.295  1.00  0.00    -0.375 OA
ENDROOT
TORSDOF 0
ENDMDL