MODEL 1
REMARK VINA RESULT: -5.733167586      0.000      0.000
REMARK  2 active torsions:
REMARK  status: ('A' for Active; 'I' for Inactive)
REMARK       I    between atoms: N2_3  and  C2_4
REMARK    1  A    between atoms: C2_4  and  O2_6
REMARK    2  A    between atoms: O2_6  and  C3_7
ROOT
HETATM    1  C1  UNL     1     -15.376  -5.662  25.533  1.00  0.00     0.140 C
HETATM    2  N1  UNL     1     -14.195  -4.941  25.094  1.00  0.00    -0.196 NA
HETATM    3  N2  UNL     1     -13.070  -5.881  24.950  1.00  0.00    -0.227 N
HETATM    4  C2  UNL     1     -12.725  -7.007  24.159  1.00  0.00     0.380 C
HETATM    5  O1  UNL     1     -11.609  -7.602  24.318  1.00  0.00    -0.237 OA
HETATM    6  C7  UNL     1     -13.040  -4.866  25.872  1.00  0.00     0.131 A
HETATM    7  C8  UNL     1     -12.197  -3.600  25.676  1.00  0.00     0.052 C
HETATM    8  C9  UNL     1     -11.226  -3.755  26.855  1.00  0.00     0.010 C
HETATM    9  C10 UNL     1     -12.216  -4.005  27.986  1.00  0.00     0.004 C
HETATM   10  C11 UNL     1     -13.172  -4.987  27.342  1.00  0.00     0.052 C
HETATM   11  C12 UNL     1     -12.386  -6.098  28.010  1.00  0.00     0.072 C
HETATM   12  S1  UNL     1     -13.549  -7.062  29.055  1.00  0.00    -0.086 SA
HETATM   13  C13 UNL     1     -13.630  -5.838  30.351  1.00  0.00     0.187 C
HETATM   14  O3  UNL     1     -14.541  -5.718  31.129  1.00  0.00    -0.285 OA
HETATM   15  C14 UNL     1     -12.413  -5.072  30.246  1.00  0.00     0.101 C
HETATM   16  C15 UNL     1     -11.802  -5.113  28.930  1.00  0.00    -0.019 C
HETATM   17  C16 UNL     1     -10.274  -5.228  29.014  1.00  0.00     0.017 C
ENDROOT
BRANCH   4  18
HETATM   18  O2  UNL     1     -13.527  -7.560  23.170  1.00  0.00    -0.293 OA
BRANCH  18  19
HETATM   19  C3  UNL     1     -13.645  -7.084  21.859  1.00  0.00     0.061 C
HETATM   20  C4  UNL     1     -14.055  -8.292  21.010  1.00  0.00     0.046 C
HETATM   21  C5  UNL     1     -12.386  -6.494  21.305  1.00  0.00     0.046 C
HETATM   22  C6  UNL     1     -14.778  -6.083  21.682  1.00  0.00     0.046 C
ENDBRANCH  18  19
ENDBRANCH   4  18
TORSDOF 2
ENDMDL