MODEL 2
REMARK VINA RESULT: -5.857087542      2.160      3.777
REMARK  2 active torsions:
REMARK  status: ('A' for Active; 'I' for Inactive)
REMARK    1  A    between atoms: C2_2  and  O2_4
REMARK    2  A    between atoms: O2_4  and  C3_5
ROOT
HETATM    1  C3  UNL     1     -12.740  -5.567  25.483  1.00  0.00     0.140 C
HETATM    2  C4  UNL     1     -14.203  -5.505  25.231  1.00  0.00     0.036 C
HETATM    3  C5  UNL     1     -15.110  -5.326  26.447  1.00  0.00     0.035 C
HETATM    4  C6  UNL     1     -14.134  -4.884  27.501  1.00  0.00     0.128 C
HETATM    5  O3  UNL     1     -14.492  -4.681  28.775  1.00  0.00    -0.366 OA
HETATM    6  C7  UNL     1     -13.316  -4.974  29.532  1.00  0.00     0.128 C
HETATM    7  C8  UNL     1     -13.527  -4.311  30.868  1.00  0.00     0.047 C
HETATM    8  C9  UNL     1     -14.153  -5.270  31.864  1.00  0.00     0.004 C
HETATM    9  C10 UNL     1     -15.263  -6.046  31.187  1.00  0.00     0.008 C
HETATM   10  C11 UNL     1     -14.716  -6.995  30.144  1.00  0.00     0.081 C
HETATM   11  C12 UNL     1     -13.369  -6.437  29.749  1.00  0.00     0.162 C
HETATM   12  O4  UNL     1     -12.479  -7.223  29.650  1.00  0.00    -0.295 OA
HETATM   13  C13 UNL     1     -12.068  -4.472  28.914  1.00  0.00    -0.005 C
HETATM   14  C14 UNL     1     -10.967  -4.655  29.975  1.00  0.00     0.019 C
HETATM   15  C15 UNL     1     -12.205  -2.957  28.790  1.00  0.00     0.013 C
HETATM   16  C16 UNL     1     -13.125  -2.578  27.695  1.00  0.00     0.009 C
HETATM   17  C17 UNL     1     -13.393  -3.766  26.848  1.00  0.00     0.025 C
HETATM   18  C18 UNL     1     -12.138  -4.486  26.363  1.00  0.00    -0.010 C
HETATM   19  C19 UNL     1     -11.183  -3.597  25.660  1.00  0.00     0.018 C
HETATM   20  C20 UNL     1     -11.558  -5.066  27.665  1.00  0.00     0.025 C
ENDROOT
BRANCH   1  21
HETATM   21  O2  UNL     1     -12.072  -5.694  24.259  1.00  0.00    -0.316 OA
BRANCH  21  22
HETATM   22  C2  UNL     1     -12.016  -6.787  23.448  1.00  0.00     0.255 C
HETATM   23  C1  UNL     1     -12.378  -6.760  21.995  1.00  0.00     0.126 C
HETATM   24  O1  UNL     1     -11.633  -7.833  24.024  1.00  0.00    -0.266 OA
ENDBRANCH  21  22
ENDBRANCH   1  21
TORSDOF 2
ENDMDL