MODEL 3
REMARK VINA RESULT: -5.451396724      2.318      4.444
REMARK  0 active torsions:
REMARK  status: ('A' for Active; 'I' for Inactive)
ROOT
HETATM    1  C1  UNL     1     -15.386  -1.640  29.832  1.00  0.00     0.310 C
HETATM    2  N1  UNL     1     -14.689  -2.832  30.343  1.00  0.00     0.091 N
HETATM    3  C2  UNL     1     -15.229  -3.904  29.567  1.00  0.00     0.273 C
HETATM    4  C3  UNL     1     -14.553  -5.283  29.705  1.00  0.00     0.042 C
HETATM    5  C4  UNL     1     -13.284  -4.894  30.476  1.00  0.00     0.003 C
HETATM    6  C5  UNL     1     -13.793  -4.829  31.817  1.00  0.00     0.012 C
HETATM    7  C6  UNL     1     -13.539  -3.896  32.888  1.00  0.00     0.001 C
HETATM    8  C7  UNL     1     -13.376  -2.467  32.577  1.00  0.00     0.007 C
HETATM    9  C8  UNL     1     -12.491  -2.295  31.400  1.00  0.00     0.025 C
HETATM   10  C9  UNL     1     -11.114  -2.753  31.495  1.00  0.00    -0.004 C
HETATM   11  C10 UNL     1     -10.564  -2.010  32.746  1.00  0.00     0.005 C
HETATM   12  C11 UNL     1      -9.187  -2.684  32.890  1.00  0.00     0.001 C
HETATM   13  C12 UNL     1      -9.733  -4.114  32.928  1.00  0.00     0.005 C
HETATM   14  C13 UNL     1     -10.555  -4.052  31.596  1.00  0.00    -0.010 C
HETATM   15  C14 UNL     1     -11.139  -5.351  31.487  1.00  0.00     0.015 C
HETATM   16  C15 UNL     1     -12.092  -5.777  30.377  1.00  0.00     0.065 C
HETATM   17  C16 UNL     1     -11.348  -5.479  29.112  1.00  0.00     0.336 C
HETATM   18  C17 UNL     1     -11.888  -6.077  27.906  1.00  0.00     0.118 C
HETATM   19  N2  UNL     1     -12.292  -6.559  26.933  1.00  0.00    -0.193 NA
HETATM   20  C18 UNL     1      -9.945  -5.957  29.168  1.00  0.00     0.118 C
HETATM   21  N3  UNL     1      -8.850  -6.345  29.192  1.00  0.00    -0.193 NA
HETATM   22  N4  UNL     1     -11.454  -4.034  29.156  1.00  0.00     0.130 N
HETATM   23  C19 UNL     1     -11.089  -3.512  27.890  1.00  0.00     0.314 C
HETATM   24  C20 UNL     1     -12.800  -3.836  29.568  1.00  0.00     0.268 C
HETATM   25  C21 UNL     1     -13.253  -2.563  30.134  1.00  0.00     0.261 C
ENDROOT
TORSDOF 0
ENDMDL