MODEL 3
REMARK VINA RESULT: -5.673910286      4.256      7.380
REMARK  2 active torsions:
REMARK  status: ('A' for Active; 'I' for Inactive)
REMARK       I    between atoms: N2_12  and  C10_13
REMARK    1  A    between atoms: C10_13  and  O3_15
REMARK    2  A    between atoms: O3_15  and  C11_16
ROOT
HETATM    1  C1  UNL     1     -13.795  -1.892  31.333  1.00  0.00     0.023 C
HETATM    2  C2  UNL     1     -13.160  -2.610  30.481  1.00  0.00    -0.017 C
HETATM    3  C3  UNL     1     -13.621  -2.711  29.058  1.00  0.00     0.157 C
HETATM    4  O1  UNL     1     -14.403  -1.847  28.564  1.00  0.00    -0.293 OA
HETATM    5  C4  UNL     1     -13.084  -3.889  28.321  1.00  0.00     0.112 C
HETATM    6  C5  UNL     1     -11.553  -3.983  28.343  1.00  0.00     0.074 C
HETATM    7  C6  UNL     1     -11.024  -3.517  27.061  1.00  0.00     0.073 C
HETATM    8  N1  UNL     1     -10.596  -3.164  26.050  1.00  0.00    -0.196 NA
HETATM    9  C7  UNL     1     -11.008  -5.274  28.807  1.00  0.00    -0.004 C
HETATM   10  C8  UNL     1     -10.560  -5.570  30.151  1.00  0.00    -0.003 C
HETATM   11  C9  UNL     1     -10.028  -4.602  31.102  1.00  0.00     0.121 C
HETATM   12  N2  UNL     1      -9.601  -5.311  32.305  1.00  0.00    -0.319 N
HETATM   13  C10 UNL     1      -8.598  -6.330  32.395  1.00  0.00     0.363 C
HETATM   14  O2  UNL     1      -8.408  -6.826  33.559  1.00  0.00    -0.238 OA
HETATM   15  C14 UNL     1     -10.316  -4.825  33.465  1.00  0.00     0.130 C
HETATM   16  C15 UNL     1     -11.611  -4.342  32.883  1.00  0.00     0.032 C
HETATM   17  C16 UNL     1     -11.076  -3.610  31.668  1.00  0.00    -0.011 C
HETATM   18  C17 UNL     1     -10.397  -2.339  32.099  1.00  0.00     0.018 C
HETATM   19  C18 UNL     1     -11.973  -3.434  30.583  1.00  0.00     0.034 C
HETATM   20  C19 UNL     1     -11.149  -2.976  29.395  1.00  0.00     0.039 C
ENDROOT
BRANCH  13  21
HETATM   21  O3  UNL     1      -7.841  -6.804  31.362  1.00  0.00    -0.299 OA
BRANCH  21  22
HETATM   22  C11 UNL     1      -7.860  -8.185  31.075  1.00  0.00     0.125 C
HETATM   23  C12 UNL     1      -6.502  -8.817  31.311  1.00  0.00     0.040 C
HETATM   24  C13 UNL     1      -8.225  -8.456  29.633  1.00  0.00     0.040 C
ENDBRANCH  21  22
ENDBRANCH  13  21
TORSDOF 2
ENDMDL