MODEL 4
REMARK VINA RESULT: -5.074887537      2.650      5.383
REMARK  0 active torsions:
REMARK  status: ('A' for Active; 'I' for Inactive)
ROOT
HETATM    1  C1  UNL     1     -12.827  -2.428  30.851  1.00  0.00     0.018 C
HETATM    2  C2  UNL     1     -12.234  -3.063  29.590  1.00  0.00     0.056 C
HETATM    3  C3  UNL     1     -13.140  -2.828  28.472  1.00  0.00     0.071 C
HETATM    4  N1  UNL     1     -12.699  -3.166  27.208  1.00  0.00    -0.364 N
HETATM    5  C4  UNL     1     -11.399  -3.563  26.934  1.00  0.00     0.065 C
HETATM    6  C5  UNL     1     -10.551  -4.241  27.886  1.00  0.00     0.067 C
HETATM    7  C6  UNL     1     -11.165  -5.240  28.857  1.00  0.00     0.047 C
HETATM    8  C7  UNL     1     -11.980  -6.210  28.091  1.00  0.00    -0.002 C
HETATM    9  C8  UNL     1     -13.298  -5.992  27.578  1.00  0.00     0.044 C
HETATM   10  S1  UNL     1     -13.375  -5.262  25.890  1.00  0.00    -0.122 SA
HETATM   11  C9  UNL     1     -13.663  -3.470  26.198  1.00  0.00     0.205 C
HETATM   12  C10 UNL     1      -9.968  -6.070  29.344  1.00  0.00     0.087 C
HETATM   13  N2  UNL     1      -9.590  -5.856  30.681  1.00  0.00    -0.297 N
HETATM   14  C11 UNL     1      -8.370  -6.150  31.350  1.00  0.00     0.226 C
HETATM   15  O1  UNL     1      -7.295  -6.607  30.833  1.00  0.00    -0.273 OA
HETATM   16  C12 UNL     1      -8.514  -5.847  32.772  1.00  0.00     0.108 C
HETATM   17  C13 UNL     1      -9.587  -4.777  32.780  1.00  0.00     0.071 C
HETATM   18  C14 UNL     1     -10.468  -5.249  31.651  1.00  0.00     0.143 C
HETATM   19  C15 UNL     1     -11.496  -6.178  32.225  1.00  0.00     0.062 C
HETATM   20  C16 UNL     1     -12.817  -5.402  32.099  1.00  0.00     0.008 C
HETATM   21  C17 UNL     1     -12.988  -5.223  30.591  1.00  0.00     0.040 C
HETATM   22  C18 UNL     1     -11.846  -4.475  29.943  1.00  0.00     0.088 C
HETATM   23  O2  UNL     1     -10.973  -4.157  31.025  1.00  0.00    -0.347 OA
ENDROOT
TORSDOF 0
ENDMDL