MODEL 3
REMARK VINA RESULT: -5.620210696      1.567      2.343
REMARK  2 active torsions:
REMARK  status: ('A' for Active; 'I' for Inactive)
REMARK    1  A    between atoms: N1_9  and  C8_10
REMARK    2  A    between atoms: C8_10  and  C9_12
ROOT
HETATM    1  C1  UNL     1      -8.395  -8.036  32.023  1.00  0.00     0.046 C
HETATM    2  C2  UNL     1      -8.975  -7.262  30.862  1.00  0.00     0.060 A
HETATM    3  C3  UNL     1      -7.901  -6.480  30.178  1.00  0.00     0.046 C
HETATM    4  O1  UNL     1      -9.610  -8.110  29.992  1.00  0.00    -0.375 OA
HETATM    5  C4  UNL     1     -10.825  -7.395  30.153  1.00  0.00     0.132 A
HETATM    6  C5  UNL     1     -11.226  -6.856  28.844  1.00  0.00     0.064 C
HETATM    7  C6  UNL     1     -12.484  -6.018  28.823  1.00  0.00     0.044 C
HETATM    8  C7  UNL     1     -13.684  -6.906  28.887  1.00  0.00     0.039 C
HETATM    9  N1  UNL     1     -12.350  -5.229  27.622  1.00  0.00    -0.336 N
HETATM   10  C10 UNL     1     -11.443  -4.107  27.689  1.00  0.00     0.067 C
HETATM   11  C11 UNL     1     -10.716  -3.824  28.909  1.00  0.00     0.054 C
HETATM   12  C12 UNL     1     -11.280  -4.328  30.220  1.00  0.00    -0.030 C
HETATM   13  C13 UNL     1     -11.623  -3.073  31.025  1.00  0.00     0.016 C
HETATM   14  C14 UNL     1     -10.251  -5.072  31.004  1.00  0.00     0.020 C
HETATM   15  C15 UNL     1     -10.267  -6.505  31.156  1.00  0.00     0.049 A
HETATM   16  C16 UNL     1     -12.582  -5.024  29.964  1.00  0.00    -0.015 C
HETATM   17  C17 UNL     1     -13.198  -5.562  31.218  1.00  0.00     0.018 C
HETATM   18  C18 UNL     1     -13.553  -3.945  29.478  1.00  0.00     0.018 C
ENDROOT
BRANCH   9  19
HETATM   19  C8  UNL     1     -12.994  -5.449  26.379  1.00  0.00     0.180 C
HETATM   20  S1  UNL     1     -14.592  -5.068  26.137  1.00  0.00    -0.053 SA
BRANCH  19  21
HETATM   21  C9  UNL     1     -12.388  -6.018  25.195  1.00  0.00     0.238 C
HETATM   22  O2  UNL     1     -11.879  -5.227  24.322  1.00  0.00    -0.642 OA
HETATM   23  O3  UNL     1     -12.279  -7.352  24.863  1.00  0.00    -0.642 OA
ENDBRANCH  19  21
ENDBRANCH   9  19
TORSDOF 2
ENDMDL