MODEL 4
REMARK VINA RESULT: -5.146416056      2.568      6.123
REMARK  2 active torsions:
REMARK  status: ('A' for Active; 'I' for Inactive)
REMARK    1  A    between atoms: O1_2  and  C2_3
REMARK    2  A    between atoms: C2_3  and  C3_5
ROOT
HETATM    1  C3  UNL     1     -13.273  -3.282  30.024  1.00  0.00     0.162 C
HETATM    2  O3  UNL     1     -12.549  -2.490  29.081  1.00  0.00    -0.363 OA
HETATM    3  C4  UNL     1     -12.801  -3.396  28.057  1.00  0.00     0.133 C
HETATM    4  C5  UNL     1     -11.601  -4.235  27.886  1.00  0.00     0.074 C
HETATM    5  C6  UNL     1     -11.431  -5.280  28.982  1.00  0.00     0.099 A
HETATM    6  O4  UNL     1     -10.782  -6.353  28.489  1.00  0.00    -0.363 OA
HETATM    7  C7  UNL     1     -12.109  -6.501  28.775  1.00  0.00     0.090 A
HETATM    8  C8  UNL     1     -12.341  -7.613  29.733  1.00  0.00     0.049 C
HETATM    9  C9  UNL     1     -13.254  -6.190  27.888  1.00  0.00     0.041 C
HETATM   10  C10 UNL     1     -14.219  -5.355  28.753  1.00  0.00     0.014 C
HETATM   11  C11 UNL     1     -13.905  -3.953  28.905  1.00  0.00     0.060 C
HETATM   12  C12 UNL     1     -11.127  -4.559  30.232  1.00  0.00     0.035 C
HETATM   13  C13 UNL     1     -10.235  -5.278  31.203  1.00  0.00     0.009 C
HETATM   14  C14 UNL     1      -9.620  -4.246  32.102  1.00  0.00     0.009 C
HETATM   15  C15 UNL     1     -10.467  -3.131  32.524  1.00  0.00    -0.047 C
HETATM   16  C16 UNL     1      -9.596  -1.855  32.561  1.00  0.00     0.015 C
HETATM   17  C17 UNL     1     -10.805  -3.345  34.013  1.00  0.00     0.015 C
HETATM   18  C18 UNL     1     -11.653  -2.763  31.734  1.00  0.00     0.022 C
HETATM   19  C19 UNL     1     -12.280  -3.938  30.944  1.00  0.00     0.005 C
HETATM   20  C20 UNL     1     -13.002  -4.728  31.958  1.00  0.00     0.019 C
ENDROOT
BRANCH   1  21
HETATM   21  C2  UNL     1     -14.130  -2.325  30.777  1.00  0.00     0.294 C
HETATM   22  O2  UNL     1     -15.266  -2.634  31.213  1.00  0.00    -0.262 OA
BRANCH  21  23
HETATM   23  O1  UNL     1     -13.728  -1.028  31.049  1.00  0.00    -0.324 OA
HETATM   24  C1  UNL     1     -14.524  -0.120  31.800  1.00  0.00     0.213 C
ENDBRANCH  21  23
ENDBRANCH   1  21
TORSDOF 2
ENDMDL