MODEL 4
REMARK VINA RESULT: -7.055404273      2.697      4.054
REMARK  6 active torsions:
REMARK  status: ('A' for Active; 'I' for Inactive)
REMARK    1  A    between atoms: C3_3  and  O1_4
REMARK    2  A    between atoms: C6_8  and  C7_9
REMARK    3  A    between atoms: C7_9  and  O2_10
REMARK    4  A    between atoms: C13_18  and  O3_19
REMARK    5  A    between atoms: C15_23  and  C16_24
REMARK    6  A    between atoms: C16_24  and  C17_25
ROOT
HETATM    1  C1  UNL     1       0.246 -30.517 -30.466  1.00  0.00     0.018 C
HETATM    2  C2  UNL     1       0.220 -30.892 -29.206  1.00  0.00    -0.042 C
HETATM    3  C3  UNL     1      -0.856 -30.436 -28.313  1.00  0.00     0.155 C
HETATM    4  C4  UNL     1      -0.314 -30.095 -26.993  1.00  0.00     0.064 C
HETATM    5  C5  UNL     1       0.509 -28.866 -26.863  1.00  0.00     0.035 C
HETATM    6  C6  UNL     1      -0.167 -27.557 -27.059  1.00  0.00     0.112 C
HETATM    7  N1  UNL     1       0.306 -26.538 -26.105  1.00  0.00    -0.387 N
HETATM    8  C8  UNL     1      -0.485 -25.336 -25.955  1.00  0.00     0.149 C
HETATM    9  C9  UNL     1       1.501 -26.712 -25.352  1.00  0.00     0.082 C
HETATM   10  C10 UNL     1       1.789 -27.949 -24.966  1.00  0.00     0.002 C
HETATM   11  C11 UNL     1       0.840 -28.976 -25.364  1.00  0.00     0.010 C
HETATM   12  C12 UNL     1      -0.427 -28.937 -24.534  1.00  0.00     0.023 C
HETATM   13  C13 UNL     1       1.355 -30.384 -25.323  1.00  0.00     0.166 C
HETATM   14  C14 UNL     1       0.519 -31.158 -26.331  1.00  0.00     0.100 C
HETATM   15  O4  UNL     1      -0.277 -32.042 -25.602  1.00  0.00    -0.371 OA
HETATM   16  C15 UNL     1       0.353 -33.266 -25.545  1.00  0.00     0.133 C
HETATM   17  C18 UNL     1       0.881 -33.427 -26.953  1.00  0.00     0.042 C
HETATM   18  C19 UNL     1       1.321 -31.998 -27.236  1.00  0.00     0.048 C
HETATM   19  C20 UNL     1       1.251 -31.771 -28.679  1.00  0.00     0.120 C
HETATM   20 CL1  UNL     1       2.841 -31.130 -29.244  1.00  0.00    -0.120 Cl
ENDROOT
BRANCH  16  21
HETATM   21  C16 UNL     1      -0.672 -34.311 -25.193  1.00  0.00     0.145 C
BRANCH  21  22
HETATM   22  C17 UNL     1      -0.857 -34.320 -23.720  1.00  0.00     0.175 C
HETATM   23  O5  UNL     1      -1.760 -35.053 -23.246  1.00  0.00    -0.648 OA
HETATM   24  O6  UNL     1      -0.098 -33.573 -22.841  1.00  0.00    -0.648 OA
ENDBRANCH  21  22
ENDBRANCH  16  21
BRANCH  13  25
HETATM   25  O3  UNL     1       1.130 -30.835 -24.014  1.00  0.00    -0.391 OA
ATOM     26  H3  UNL     1       1.510 -31.705 -23.971  1.00  0.00     0.210 HD
ENDBRANCH  13  25
BRANCH   3  27
HETATM   27  O1  UNL     1      -1.829 -31.434 -28.149  1.00  0.00    -0.391 OA
ATOM     28  H1  UNL     1      -2.701 -31.057 -28.124  1.00  0.00     0.210 HD
ENDBRANCH   3  27
BRANCH   6  29
HETATM   29  C7  UNL     1       0.170 -26.960 -28.433  1.00  0.00     0.189 C
BRANCH  29  30
HETATM   30  O2  UNL     1      -0.955 -27.052 -29.265  1.00  0.00    -0.399 OA
ATOM     31  H2  UNL     1      -1.124 -27.966 -29.464  1.00  0.00     0.209 HD
ENDBRANCH  29  30
ENDBRANCH   6  29
TORSDOF 6
ENDMDL