MODEL 4
REMARK VINA RESULT: -5.963382008      1.990      2.561
REMARK  7 active torsions:
REMARK  status: ('A' for Active; 'I' for Inactive)
REMARK    1  A    between atoms: C6_6  and  C7_7
REMARK    2  A    between atoms: C7_7  and  O1_8
REMARK    3  A    between atoms: C11_14  and  O2_15
REMARK    4  A    between atoms: C13_18  and  O3_19
REMARK    5  A    between atoms: C14_21  and  O4_22
REMARK    6  A    between atoms: N2_26  and  C17_27
REMARK    7  A    between atoms: C17_27  and  C18_28
ROOT
HETATM    1  C1  UNL     1       0.175 -28.229 -30.342  1.00  0.00     0.038 C
HETATM    2  C2  UNL     1       0.380 -29.007 -29.099  1.00  0.00     0.025 C
HETATM    3  C3  UNL     1      -0.094 -28.164 -27.906  1.00  0.00     0.038 C
HETATM    4  C4  UNL     1      -0.566 -30.211 -29.077  1.00  0.00     0.039 C
HETATM    5  C5  UNL     1      -0.029 -30.931 -27.906  1.00  0.00     0.049 C
HETATM    6  C6  UNL     1      -0.198 -32.415 -27.956  1.00  0.00     0.254 C
HETATM    7  N1  UNL     1       1.079 -32.883 -27.557  1.00  0.00     0.113 N
HETATM    8  C8  UNL     1       1.070 -33.206 -26.163  1.00  0.00     0.274 C
HETATM    9  C9  UNL     1       1.751 -32.288 -25.220  1.00  0.00     0.033 C
HETATM   10  C10 UNL     1       3.084 -31.742 -25.686  1.00  0.00     0.042 C
HETATM   11  C11 UNL     1       3.268 -32.275 -27.061  1.00  0.00     0.101 C
HETATM   12  C12 UNL     1       4.542 -31.931 -27.737  1.00  0.00     0.075 C
HETATM   13  C13 UNL     1       4.239 -32.389 -29.133  1.00  0.00     0.152 C
HETATM   14  C14 UNL     1       2.729 -32.267 -29.312  1.00  0.00     0.191 C
HETATM   15  C15 UNL     1       2.107 -31.962 -27.999  1.00  0.00     0.238 C
HETATM   16  C16 UNL     1       1.480 -30.642 -27.857  1.00  0.00     0.135 C
HETATM   17  N2  UNL     1       1.619 -29.639 -28.845  1.00  0.00    -0.376 N
ENDROOT
BRANCH   6  18
HETATM   18  C7  UNL     1      -0.821 -32.944 -29.179  1.00  0.00     0.200 C
BRANCH  18  19
HETATM   19  O1  UNL     1      -0.319 -34.264 -29.346  1.00  0.00    -0.399 OA
ATOM     20  H1  UNL     1      -1.031 -34.777 -29.709  1.00  0.00     0.209 HD
ENDBRANCH  18  19
ENDBRANCH   6  18
BRANCH  17  21
HETATM   21  C17 UNL     1       2.699 -28.753 -28.798  1.00  0.00     0.070 C
BRANCH  21  22
HETATM   22  C18 UNL     1       3.376 -28.472 -27.486  1.00  0.00     0.129 C
HETATM   23 BR1  UNL     1       5.307 -28.245 -27.779  1.00  0.00    -0.091 Br
ENDBRANCH  21  22
ENDBRANCH  17  21
BRANCH  11  24
HETATM   24  O2  UNL     1       3.397 -33.686 -26.889  1.00  0.00    -0.387 OA
ATOM     25  H2  UNL     1       3.892 -33.977 -27.647  1.00  0.00     0.210 HD
ENDBRANCH  11  24
BRANCH  14  26
HETATM   26  O4  UNL     1       2.346 -33.510 -29.863  1.00  0.00    -0.390 OA
ATOM     27  H4  UNL     1       1.603 -33.298 -30.415  1.00  0.00     0.210 HD
ENDBRANCH  14  26
BRANCH  13  28
HETATM   28  O3  UNL     1       4.957 -31.751 -30.112  1.00  0.00    -0.393 OA
ATOM     29  H3  UNL     1       4.475 -31.078 -30.580  1.00  0.00     0.210 HD
ENDBRANCH  13  28
TORSDOF 7
ENDMDL