MODEL 5
REMARK VINA RESULT: -6.631006248      3.651      6.119
REMARK  6 active torsions:
REMARK  status: ('A' for Active; 'I' for Inactive)
REMARK    1  A    between atoms: C2_2  and  C3_3
REMARK    2  A    between atoms: C4_4  and  O1_5
REMARK    3  A    between atoms: C5_7  and  O2_8
REMARK    4  A    between atoms: C11_16  and  O3_18
REMARK    5  A    between atoms: C14_21  and  C15_22
REMARK    6  A    between atoms: C15_22  and  O4_23
REMARK       I    between atoms: N1_30  and  C21_31
ROOT
HETATM    1  C3  UNL     1      -0.023 -32.135 -26.047  1.00  0.00     0.118 C
HETATM    2  C4  UNL     1      -0.291 -33.377 -26.831  1.00  0.00     0.170 C
HETATM    3  C5  UNL     1      -0.526 -33.169 -28.302  1.00  0.00     0.155 C
HETATM    4  C6  UNL     1       0.258 -32.132 -28.969  1.00  0.00     0.052 C
HETATM    5  C7  UNL     1       0.630 -30.954 -28.046  1.00  0.00     0.098 C
HETATM    6  C8  UNL     1      -0.681 -30.196 -28.106  1.00  0.00     0.070 C
HETATM    7  C9  UNL     1      -0.724 -30.009 -29.635  1.00  0.00     0.116 C
HETATM    8  F1  UNL     1       0.337 -29.110 -29.856  1.00  0.00    -0.242 F
HETATM    9  C10 UNL     1      -1.962 -29.384 -30.032  1.00  0.00     0.082 C
HETATM   10  C11 UNL     1      -2.954 -30.183 -30.820  1.00  0.00     0.065 C
HETATM   11  C12 UNL     1      -3.931 -30.882 -29.920  1.00  0.00     0.046 C
HETATM   12  C13 UNL     1      -2.197 -31.089 -31.717  1.00  0.00     0.056 C
HETATM   13  C14 UNL     1      -2.991 -31.983 -32.570  1.00  0.00    -0.053 C
HETATM   14  C16 UNL     1      -2.284 -33.110 -32.726  1.00  0.00    -0.021 C
HETATM   15  C17 UNL     1      -0.981 -32.990 -31.968  1.00  0.00     0.033 C
HETATM   16  C18 UNL     1      -1.444 -32.085 -30.843  1.00  0.00     0.012 C
HETATM   17  C19 UNL     1      -0.377 -31.382 -30.109  1.00  0.00     0.005 C
HETATM   18  C20 UNL     1       0.774 -31.171 -31.120  1.00  0.00     0.019 C
HETATM   19  N1  UNL     1       0.984 -31.382 -26.723  1.00  0.00    -0.340 N
HETATM   20  C21 UNL     1       2.253 -31.040 -26.199  1.00  0.00     0.216 C
HETATM   21  C22 UNL     1       3.212 -30.248 -27.014  1.00  0.00     0.117 C
HETATM   22  O5  UNL     1       2.654 -31.368 -25.049  1.00  0.00    -0.274 OA
ENDROOT
BRANCH  10  23
HETATM   23  O3  UNL     1      -3.705 -29.322 -31.640  1.00  0.00    -0.389 OA
ATOM     24  H3  UNL     1      -4.605 -29.626 -31.678  1.00  0.00     0.210 HD
ENDBRANCH  10  23
BRANCH  13  25
HETATM   25  C15 UNL     1      -4.326 -31.783 -33.192  1.00  0.00     0.198 C
BRANCH  25  26
HETATM   26  O4  UNL     1      -4.289 -30.730 -34.098  1.00  0.00    -0.397 OA
ATOM     27  H4  UNL     1      -4.283 -31.058 -34.990  1.00  0.00     0.209 HD
ENDBRANCH  25  26
ENDBRANCH  13  25
BRANCH   3  28
HETATM   28  O2  UNL     1      -0.194 -34.435 -28.866  1.00  0.00    -0.392 OA
ATOM     29  H2  UNL     1      -0.982 -34.673 -29.341  1.00  0.00     0.210 HD
ENDBRANCH   3  28
BRANCH   1  30
HETATM   30  C2  UNL     1       0.343 -32.558 -24.640  1.00  0.00     0.023 C
HETATM   31  C1  UNL     1      -0.915 -33.177 -24.013  1.00  0.00     0.007 C
ENDBRANCH   1  30
BRANCH   2  32
HETATM   32  O1  UNL     1       0.780 -34.250 -26.589  1.00  0.00    -0.391 OA
ATOM     33  H1  UNL     1       1.144 -34.012 -25.744  1.00  0.00     0.210 HD
ENDBRANCH   2  32
TORSDOF 6
ENDMDL