MODEL 4
REMARK VINA RESULT: -6.668758719      2.765      5.148
REMARK  7 active torsions:
REMARK  status: ('A' for Active; 'I' for Inactive)
REMARK    1  A    between atoms: C2_2  and  C3_3
REMARK    2  A    between atoms: N1_7  and  C6_8
REMARK    3  A    between atoms: C7_9  and  O2_10
REMARK    4  A    between atoms: C9_14  and  O3_15
REMARK    5  A    between atoms: C10_17  and  O4_18
REMARK    6  A    between atoms: C11_20  and  C12_21
REMARK    7  A    between atoms: C12_21  and  C13_22
ROOT
HETATM    1  C6  UNL     1       0.142 -31.866 -25.414  1.00  0.00     0.134 C
HETATM    2  C7  UNL     1      -0.201 -30.902 -24.328  1.00  0.00     0.159 C
HETATM    3  C8  UNL     1      -0.029 -29.515 -24.917  1.00  0.00     0.120 C
HETATM    4 BR1  UNL     1      -0.753 -28.227 -23.695  1.00  0.00    -0.086 Br
HETATM    5  C9  UNL     1       1.466 -29.316 -25.046  1.00  0.00     0.164 C
HETATM    6  C10 UNL     1       2.241 -30.595 -25.110  1.00  0.00     0.154 C
HETATM    7  C11 UNL     1       1.623 -31.692 -25.869  1.00  0.00     0.044 C
ENDROOT
BRANCH   1   8
HETATM    8  N1  UNL     1      -0.196 -33.241 -25.165  1.00  0.00    -0.258 N
HETATM    9  C5  UNL     1      -0.721 -34.025 -26.155  1.00  0.00     0.253 A
HETATM   10  C4  UNL     1      -1.062 -35.344 -25.973  1.00  0.00     0.099 A
HETATM   11  O1  UNL     1      -0.881 -33.461 -27.278  1.00  0.00    -0.268 OA
HETATM   12  C3  UNL     1      -0.872 -35.916 -24.736  1.00  0.00     0.018 A
HETATM   13  N2  UNL     1      -0.360 -35.160 -23.762  1.00  0.00    -0.312 N
HETATM   14  C17 UNL     1      -0.041 -33.872 -23.988  1.00  0.00     0.330 A
ATOM     15  H2  UNL     1      -0.209 -35.562 -22.836  1.00  0.00     0.170 HD
HETATM   16  O5  UNL     1       0.433 -33.239 -23.011  1.00  0.00    -0.246 OA
BRANCH  12  17
HETATM   17  C2  UNL     1      -1.226 -37.343 -24.491  1.00  0.00     0.053 C
HETATM   18  C1  UNL     1      -1.306 -38.091 -25.816  1.00  0.00     0.011 C
ENDBRANCH  12  17
ENDBRANCH   1   8
BRANCH   2  19
HETATM   19  O2  UNL     1      -1.588 -31.021 -24.074  1.00  0.00    -0.392 OA
ATOM     20  H2  UNL     1      -1.690 -31.395 -23.207  1.00  0.00     0.210 HD
ENDBRANCH   2  19
BRANCH   7  21
HETATM   21  C12 UNL     1       1.681 -31.615 -27.316  1.00  0.00     0.017 C
BRANCH  21  22
HETATM   22  C13 UNL     1       2.693 -32.004 -28.244  1.00  0.00    -0.051 C
HETATM   23  C14 UNL     1       3.868 -32.810 -28.054  1.00  0.00     0.014 C
HETATM   24  C15 UNL     1       3.223 -30.651 -28.847  1.00  0.00     0.014 C
HETATM   25  C16 UNL     1       1.967 -32.588 -29.511  1.00  0.00     0.014 C
ENDBRANCH  21  22
ENDBRANCH   7  21
BRANCH   6  26
HETATM   26  O4  UNL     1       3.557 -30.374 -25.382  1.00  0.00    -0.393 OA
ATOM     27  H4  UNL     1       4.119 -30.983 -24.919  1.00  0.00     0.210 HD
ENDBRANCH   6  26
BRANCH   5  28
HETATM   28  O3  UNL     1       1.670 -28.431 -26.068  1.00  0.00    -0.392 OA
ATOM     29  H3  UNL     1       2.076 -27.658 -25.694  1.00  0.00     0.210 HD
ENDBRANCH   5  28
TORSDOF 7
ENDMDL