MODEL 3
REMARK VINA RESULT: -6.988331615      3.858      6.857
REMARK  7 active torsions:
REMARK  status: ('A' for Active; 'I' for Inactive)
REMARK    1  A    between atoms: C4_4  and  C5_5
REMARK    2  A    between atoms: C5_5  and  C6_6
REMARK    3  A    between atoms: C6_6  and  C7_7
REMARK    4  A    between atoms: C7_7  and  N1_8
REMARK    5  A    between atoms: C11_16  and  O2_17
REMARK    6  A    between atoms: C20_29  and  O4_30
REMARK    7  A    between atoms: C21_32  and  O5_33
ROOT
HETATM    1  C1  UNL     1       1.653 -30.474 -24.612  1.00  0.00     0.017 C
HETATM    2  C2  UNL     1       0.409 -30.252 -24.985  1.00  0.00    -0.054 C
HETATM    3  C3  UNL     1      -0.423 -31.196 -25.690  1.00  0.00     0.033 C
HETATM    4  C4  UNL     1      -0.636 -32.589 -25.269  1.00  0.00     0.032 C
HETATM    5  C8  UNL     1      -0.556 -32.928 -26.732  1.00  0.00     0.093 A
HETATM    6  C9  UNL     1      -0.767 -34.014 -27.475  1.00  0.00     0.207 A
HETATM    7  O1  UNL     1      -1.790 -32.951 -27.375  1.00  0.00    -0.374 OA
HETATM    8  C10 UNL     1       0.337 -31.736 -26.883  1.00  0.00     0.060 C
HETATM    9  C11 UNL     1       0.058 -30.878 -28.123  1.00  0.00     0.127 C
HETATM   10  C12 UNL     1       0.907 -29.687 -28.234  1.00  0.00     0.052 C
HETATM   11  C13 UNL     1       0.361 -28.337 -28.084  1.00  0.00     0.057 C
HETATM   12  C14 UNL     1      -0.785 -28.182 -29.113  1.00  0.00     0.027 C
HETATM   13  C15 UNL     1       1.405 -27.412 -28.720  1.00  0.00     0.160 C
HETATM   14  O3  UNL     1       1.790 -27.677 -29.892  1.00  0.00    -0.292 OA
HETATM   15  C16 UNL     1       1.960 -26.259 -28.032  1.00  0.00     0.047 C
HETATM   16  C17 UNL     1       1.972 -26.324 -26.695  1.00  0.00    -0.013 C
HETATM   17  C18 UNL     1       1.419 -27.555 -26.163  1.00  0.00     0.075 A
HETATM   18  C19 UNL     1       0.159 -27.791 -25.509  1.00  0.00     0.109 A
HETATM   19 CL1  UNL     1      -0.219 -26.307 -24.494  1.00  0.00    -0.112 Cl
HETATM   20  C20 UNL     1      -0.157 -28.927 -24.643  1.00  0.00     0.174 C
HETATM   21  C21 UNL     1       0.009 -27.679 -26.871  1.00  0.00     0.106 A
ENDROOT
BRANCH   4  22
HETATM   22  C5  UNL     1       0.359 -33.325 -24.459  1.00  0.00     0.010 C
BRANCH  22  23
HETATM   23  C6  UNL     1      -0.377 -33.987 -23.279  1.00  0.00     0.028 C
BRANCH  23  24
HETATM   24  C7  UNL     1      -1.158 -35.155 -23.909  1.00  0.00     0.229 C
BRANCH  24  25
HETATM   25  N1  UNL     1      -0.543 -36.428 -23.594  1.00  0.00    -0.079 N
ATOM     26  H13 UNL     1       0.284 -36.596 -24.166  1.00  0.00     0.274 HD
ATOM     27  H12 UNL     1      -0.099 -36.412 -22.676  1.00  0.00     0.274 HD
ATOM     28  H11 UNL     1      -1.214 -37.192 -23.671  1.00  0.00     0.274 HD
ENDBRANCH  24  25
ENDBRANCH  23  24
ENDBRANCH  22  23
ENDBRANCH   4  22
BRANCH  20  29
HETATM   29  O4  UNL     1       0.248 -28.629 -23.311  1.00  0.00    -0.389 OA
ATOM     30  H4  UNL     1      -0.264 -29.182 -22.733  1.00  0.00     0.210 HD
ENDBRANCH  20  29
BRANCH   9  31
HETATM   31  O2  UNL     1      -1.307 -30.697 -28.138  1.00  0.00    -0.395 OA
ATOM     32  H2  UNL     1      -1.436 -29.768 -27.990  1.00  0.00     0.210 HD
ENDBRANCH   9  31
BRANCH  21  33
HETATM   33  O5  UNL     1      -0.548 -26.400 -27.260  1.00  0.00    -0.386 OA
ATOM     34  H5  UNL     1      -0.868 -26.513 -28.147  1.00  0.00     0.210 HD
ENDBRANCH  21  33
TORSDOF 7
ENDMDL