MODEL 3
REMARK VINA RESULT: -6.673900811      2.716      5.095
REMARK  8 active torsions:
REMARK  status: ('A' for Active; 'I' for Inactive)
REMARK    1  A    between atoms: C2_2  and  O2_4
REMARK    2  A    between atoms: O2_4  and  C3_5
REMARK    3  A    between atoms: C3_5  and  C4_6
REMARK    4  A    between atoms: C8_11  and  O4_12
REMARK    5  A    between atoms: C9_14  and  O5_16
REMARK    6  A    between atoms: C12_22  and  O6_24
REMARK    7  A    between atoms: C15_27  and  C16_28
REMARK    8  A    between atoms: C16_28  and  C17_29
ROOT
HETATM    1  C4  UNL     1       0.643 -30.375 -25.014  1.00  0.00     0.004 C
HETATM    2  C5  UNL     1       0.222 -30.952 -26.122  1.00  0.00    -0.062 C
HETATM    3  C6  UNL     1      -0.530 -30.303 -27.219  1.00  0.00     0.116 C
HETATM    4  C7  UNL     1      -0.864 -31.408 -28.180  1.00  0.00     0.169 C
HETATM    5  O3  UNL     1      -1.774 -31.411 -28.983  1.00  0.00    -0.294 OA
HETATM    6  C8  UNL     1       0.153 -32.461 -27.920  1.00  0.00     0.165 C
HETATM    7  C9  UNL     1       1.372 -32.090 -28.753  1.00  0.00     0.134 C
HETATM    8  C10 UNL     1       0.940 -31.390 -30.029  1.00  0.00     0.056 C
HETATM    9  C11 UNL     1       2.400 -31.358 -28.015  1.00  0.00     0.052 C
HETATM   10  N1  UNL     1       2.839 -30.255 -28.451  1.00  0.00    -0.401 N
ATOM     11  H11 UNL     1       3.556 -29.745 -27.936  1.00  0.00     0.155 HD
ATOM     12  H12 UNL     1       2.497 -29.838 -29.317  1.00  0.00     0.155 HD
HETATM   13  C12 UNL     1       2.898 -31.965 -26.755  1.00  0.00     0.096 C
HETATM   14  C13 UNL     1       4.016 -32.968 -27.105  1.00  0.00     0.052 C
HETATM   15  C14 UNL     1       1.832 -32.752 -26.080  1.00  0.00     0.061 C
HETATM   16  C15 UNL     1       0.414 -32.384 -26.478  1.00  0.00     0.029 C
ENDROOT
BRANCH   1  17
HETATM   17  C3  UNL     1       0.417 -28.938 -24.692  1.00  0.00     0.206 C
BRANCH  17  18
HETATM   18  O2  UNL     1       0.184 -28.665 -23.355  1.00  0.00    -0.318 OA
BRANCH  18  19
HETATM   19  C2  UNL     1      -0.952 -27.937 -23.029  1.00  0.00     0.255 C
HETATM   20  C1  UNL     1      -1.352 -26.734 -23.802  1.00  0.00     0.126 C
HETATM   21  O1  UNL     1      -1.681 -28.294 -22.045  1.00  0.00    -0.266 OA
ENDBRANCH  18  19
ENDBRANCH  17  18
ENDBRANCH   1  17
BRANCH  16  22
HETATM   22  C16 UNL     1      -0.510 -33.133 -25.571  1.00  0.00     0.028 C
BRANCH  22  23
HETATM   23  C17 UNL     1       0.059 -33.848 -24.409  1.00  0.00     0.086 C
HETATM   24 BR1  UNL     1      -1.124 -35.403 -24.136  1.00  0.00    -0.096 Br
ENDBRANCH  22  23
ENDBRANCH  16  22
BRANCH   6  25
HETATM   25  O4  UNL     1      -0.255 -33.689 -28.424  1.00  0.00    -0.377 OA
ATOM     26  H4  UNL     1       0.475 -34.163 -28.803  1.00  0.00     0.211 HD
ENDBRANCH   6  25
BRANCH   7  27
HETATM   27  O5  UNL     1       2.011 -33.280 -29.190  1.00  0.00    -0.381 OA
ATOM     28  H5  UNL     1       2.948 -33.190 -29.066  1.00  0.00     0.211 HD
ENDBRANCH   7  27
BRANCH  13  29
HETATM   29  O6  UNL     1       3.491 -30.979 -25.985  1.00  0.00    -0.384 OA
ATOM     30  H6  UNL     1       3.741 -31.351 -25.147  1.00  0.00     0.211 HD
ENDBRANCH  13  29
TORSDOF 8
ENDMDL