MODEL 2
REMARK VINA RESULT: -6.472739504      3.812      7.414
REMARK  5 active torsions:
REMARK  status: ('A' for Active; 'I' for Inactive)
REMARK    1  A    between atoms: N1_2  and  C2_5
REMARK    2  A    between atoms: N2_8  and  N3_9
REMARK       I    between atoms: N3_9  and  C5_11
REMARK    3  A    between atoms: C5_11  and  C6_13
REMARK    4  A    between atoms: C6_13  and  O2_14
REMARK    5  A    between atoms: C11_27  and  C12_28
ROOT
HETATM    1  N3  UNL     1      -0.239 -28.225 -25.030  1.00  0.00    -0.283 N
ATOM      2  H3  UNL     1      -0.864 -27.977 -25.798  1.00  0.00     0.184 HD
HETATM    3  C5  UNL     1       0.368 -29.499 -25.086  1.00  0.00     0.313 C
HETATM    4  O1  UNL     1       1.142 -29.785 -24.111  1.00  0.00    -0.265 OA
ENDROOT
BRANCH   1   5
HETATM    5  N2  UNL     1      -0.067 -27.285 -24.037  1.00  0.00    -0.222 NA
HETATM    6  C4  UNL     1      -1.183 -27.424 -23.138  1.00  0.00     0.116 C
HETATM    7  C3  UNL     1      -1.993 -26.157 -22.969  1.00  0.00     0.049 C
HETATM    8  C2  UNL     1      -1.049 -25.177 -22.310  1.00  0.00     0.188 C
HETATM    9  C15 UNL     1       0.165 -25.089 -23.173  1.00  0.00     0.056 C
HETATM   10  C11 UNL     1       0.116 -25.959 -24.430  1.00  0.00     0.104 C
BRANCH   8  11
HETATM   11  N1  UNL     1      -1.611 -23.877 -22.106  1.00  0.00    -0.075 N
HETATM   12  C1  UNL     1      -0.608 -22.863 -21.810  1.00  0.00     0.267 C
ATOM     13  H12 UNL     1      -2.329 -23.901 -21.382  1.00  0.00     0.277 HD
ATOM     14  H11 UNL     1      -2.186 -23.600 -22.902  1.00  0.00     0.277 HD
ENDBRANCH   8  11
BRANCH  10  15
HETATM   15  C12 UNL     1       1.364 -25.593 -25.145  1.00  0.00     0.047 C
HETATM   16  C13 UNL     1       1.717 -24.133 -24.890  1.00  0.00     0.034 C
HETATM   17  C14 UNL     1       2.586 -26.379 -24.825  1.00  0.00     0.034 C
HETATM   18 CL1  UNL     1       1.093 -25.730 -26.893  1.00  0.00    -0.118 Cl
ENDBRANCH  10  15
ENDBRANCH   1   5
BRANCH   3  19
HETATM   19  C6  UNL     1       0.148 -30.473 -26.184  1.00  0.00     0.383 C
HETATM   20  N4  UNL     1      -0.540 -31.583 -25.638  1.00  0.00     0.005 N
HETATM   21  C7  UNL     1      -0.451 -32.713 -26.496  1.00  0.00     0.240 C
ATOM     22  H42 UNL     1      -0.215 -31.801 -24.696  1.00  0.00     0.285 HD
ATOM     23  H41 UNL     1      -1.509 -31.353 -25.419  1.00  0.00     0.285 HD
HETATM   24  C8  UNL     1      -0.529 -34.002 -25.714  1.00  0.00     0.065 C
HETATM   25  C9  UNL     1      -1.460 -32.731 -27.618  1.00  0.00     0.065 C
HETATM   26  S1  UNL     1       1.200 -32.549 -27.143  1.00  0.00     0.250 S
HETATM   27  O3  UNL     1       2.139 -33.478 -26.474  1.00  0.00    -0.208 OA
HETATM   28  O4  UNL     1       1.197 -32.664 -28.622  1.00  0.00    -0.208 OA
HETATM   29  N5  UNL     1       1.464 -30.898 -26.621  1.00  0.00    -0.146 NA
HETATM   30  C10 UNL     1       1.830 -30.156 -27.818  1.00  0.00     0.135 C
BRANCH  19  31
HETATM   31  O2  UNL     1      -0.586 -29.896 -27.212  1.00  0.00    -0.345 OA
ATOM     32  H2  UNL     1      -1.372 -30.400 -27.386  1.00  0.00     0.214 HD
ENDBRANCH  19  31
ENDBRANCH   3  19
TORSDOF 5
ENDMDL