MODEL 1
REMARK VINA RESULT: -6.477654396      0.000      0.000
REMARK  7 active torsions:
REMARK  status: ('A' for Active; 'I' for Inactive)
REMARK    1  A    between atoms: N1_2  and  C2_4
REMARK    2  A    between atoms: C7_13  and  N4_14
REMARK    3  A    between atoms: N5_17  and  C9_18
REMARK    4  A    between atoms: C11_20  and  N6_21
REMARK    5  A    between atoms: C12_23  and  C13_24
REMARK    6  A    between atoms: C14_26  and  O1_27
REMARK    7  A    between atoms: C15_29  and  O2_30
ROOT
HETATM    1  C2  UNL     1       1.101 -33.031 -25.194  1.00  0.00     0.131 A
HETATM    2  N2  UNL     1       0.388 -33.527 -24.150  1.00  0.00    -0.345 N
ATOM      3  H2  UNL     1       0.686 -33.343 -23.192  1.00  0.00     0.167 HD
HETATM    4  C3  UNL     1      -0.704 -34.258 -24.385  1.00  0.00     0.009 A
HETATM    5  C4  UNL     1      -1.506 -34.818 -23.236  1.00  0.00     0.068 C
HETATM    6  C5  UNL     1      -1.121 -34.516 -25.666  1.00  0.00     0.057 A
HETATM    7  C6  UNL     1      -0.417 -34.023 -26.739  1.00  0.00     0.082 A
HETATM    8  N3  UNL     1      -0.589 -34.116 -28.076  1.00  0.00    -0.189 N
ATOM      9  H3  UNL     1      -1.337 -34.611 -28.563  1.00  0.00     0.184 HD
HETATM   10  C7  UNL     1       0.414 -33.431 -28.636  1.00  0.00     0.681 A
HETATM   11  N5  UNL     1       1.239 -32.892 -27.722  1.00  0.00    -0.170 N
HETATM   12  C16 UNL     1       0.728 -33.257 -26.507  1.00  0.00     0.123 A
ENDROOT
BRANCH  11  13
HETATM   13  C9  UNL     1       2.381 -32.118 -27.937  1.00  0.00     0.142 C
HETATM   14  C10 UNL     1       2.310 -31.048 -29.009  1.00  0.00     0.056 C
HETATM   15  C11 UNL     1       3.762 -30.514 -28.906  1.00  0.00     0.114 C
HETATM   16  C14 UNL     1       4.595 -31.680 -28.461  1.00  0.00     0.171 C
HETATM   17  C15 UNL     1       3.616 -32.854 -28.457  1.00  0.00     0.172 C
BRANCH  15  18
HETATM   18  N6  UNL     1       3.801 -29.423 -27.998  1.00  0.00    -0.394 N
HETATM   19  C12 UNL     1       3.115 -28.355 -28.145  1.00  0.00     0.067 C
ATOM     20  H6  UNL     1       4.411 -29.495 -27.184  1.00  0.00     0.159 HD
BRANCH  19  21
HETATM   21  C13 UNL     1       3.175 -27.232 -27.183  1.00  0.00     0.129 C
HETATM   22 BR1  UNL     1       4.257 -27.755 -25.642  1.00  0.00    -0.091 Br
ENDBRANCH  19  21
ENDBRANCH  15  18
BRANCH  16  23
HETATM   23  O1  UNL     1       5.097 -31.529 -27.179  1.00  0.00    -0.391 OA
ATOM     24  H1  UNL     1       5.718 -32.208 -26.940  1.00  0.00     0.210 HD
ENDBRANCH  16  23
BRANCH  17  25
HETATM   25  O2  UNL     1       3.463 -33.205 -29.792  1.00  0.00    -0.391 OA
ATOM     26  H2  UNL     1       3.836 -34.061 -29.966  1.00  0.00     0.210 HD
ENDBRANCH  17  25
ENDBRANCH  11  13
BRANCH  10  27
HETATM   27  N4  UNL     1       0.540 -33.322 -29.911  1.00  0.00    -0.230 N
HETATM   28  C8  UNL     1      -0.556 -32.855 -30.724  1.00  0.00     0.165 C
ATOM     29  H4  UNL     1       1.425 -33.570 -30.353  1.00  0.00     0.177 HD
ENDBRANCH  10  27
BRANCH   1  30
HETATM   30  N1  UNL     1       2.159 -32.322 -24.977  1.00  0.00    -0.379 N
HETATM   31  C1  UNL     1       2.010 -30.921 -24.709  1.00  0.00     0.147 C
ATOM     32  H1  UNL     1       3.083 -32.751 -24.996  1.00  0.00     0.160 HD
ENDBRANCH   1  30
TORSDOF 7
ENDMDL