MODEL 5
REMARK VINA RESULT: -6.412437819      5.377      7.416
REMARK  8 active torsions:
REMARK  status: ('A' for Active; 'I' for Inactive)
REMARK    1  A    between atoms: C2_2  and  N1_3
REMARK       I    between atoms: N1_3  and  C3_5
REMARK       I    between atoms: C3_5  and  N2_6
REMARK    2  A    between atoms: N2_6  and  N3_8
REMARK    3  A    between atoms: N4_11  and  C4_13
REMARK    4  A    between atoms: N5_15  and  O1_16
REMARK    5  A    between atoms: C8_20  and  C9_21
REMARK    6  A    between atoms: C12_25  and  S1_26
REMARK    7  A    between atoms: C14_28  and  O2_29
REMARK    8  A    between atoms: C15_31  and  O3_32
ROOT
HETATM    1  C4  UNL     1       0.865 -32.967 -25.547  1.00  0.00     0.109 A
HETATM    2  C5  UNL     1       2.127 -32.426 -25.565  1.00  0.00     0.160 A
HETATM    3  N5  UNL     1       2.771 -31.948 -26.607  1.00  0.00    -0.236 N
HETATM    4  C6  UNL     1       2.357 -31.869 -27.904  1.00  0.00     0.053 A
HETATM    5  C7  UNL     1       3.270 -31.207 -28.826  1.00  0.00     0.072 C
HETATM    6  C8  UNL     1       1.151 -32.297 -28.358  1.00  0.00     0.038 A
HETATM    7  S2  UNL     1       0.124 -32.980 -27.082  1.00  0.00    -0.068 SA
ENDROOT
BRANCH   6   8
HETATM    8  C9  UNL     1       0.606 -32.385 -29.724  1.00  0.00    -0.011 C
HETATM    9  C10 UNL     1      -0.658 -31.539 -29.841  1.00  0.00     0.116 C
HETATM   10 CL1  UNL     1      -0.447 -29.998 -28.911  1.00  0.00    -0.120 Cl
HETATM   11  C11 UNL     1      -1.103 -31.234 -31.240  1.00  0.00     0.042 C
HETATM   12  C12 UNL     1      -0.906 -32.558 -31.998  1.00  0.00     0.080 C
HETATM   13  C14 UNL     1       0.568 -32.582 -32.211  1.00  0.00     0.165 C
HETATM   14  C15 UNL     1       1.327 -32.796 -30.893  1.00  0.00     0.180 C
BRANCH  12  15
HETATM   15  S1  UNL     1      -1.850 -32.599 -33.518  1.00  0.00    -0.166 SA
HETATM   16  C13 UNL     1      -3.523 -33.291 -33.212  1.00  0.00     0.090 C
ENDBRANCH  12  15
BRANCH  13  17
HETATM   17  O2  UNL     1       0.950 -31.338 -32.751  1.00  0.00    -0.392 OA
ATOM     18  H2  UNL     1       1.478 -30.886 -32.103  1.00  0.00     0.210 HD
ENDBRANCH  13  17
BRANCH  14  19
HETATM   19  O3  UNL     1       1.547 -34.228 -30.984  1.00  0.00    -0.388 OA
ATOM     20  H3  UNL     1       1.633 -34.553 -31.872  1.00  0.00     0.210 HD
ENDBRANCH  14  19
ENDBRANCH   6   8
BRANCH   3  21
HETATM   21  O1  UNL     1       4.058 -31.465 -26.309  1.00  0.00    -0.283 OA
ATOM     22  H1  UNL     1       4.754 -32.089 -26.481  1.00  0.00     0.245 HD
ENDBRANCH   3  21
BRANCH   1  23
HETATM   23  N4  UNL     1       0.286 -33.437 -24.538  1.00  0.00    -0.183 N
HETATM   24  C3  UNL     1      -0.455 -34.502 -24.171  1.00  0.00     0.693 C
HETATM   25  N1  UNL     1      -0.420 -35.807 -24.717  1.00  0.00    -0.225 N
HETATM   26  N2  UNL     1      -1.330 -34.349 -23.187  1.00  0.00    -0.139 N
ATOM     27  H1  UNL     1       0.440 -36.351 -24.662  1.00  0.00     0.177 HD
ATOM     28  H2  UNL     1      -1.908 -35.133 -22.882  1.00  0.00     0.205 HD
ATOM     29  H4  UNL     1       0.417 -32.814 -23.741  1.00  0.00     0.185 HD
BRANCH  25  30
HETATM   30  C2  UNL     1      -1.593 -36.382 -25.355  1.00  0.00     0.134 C
HETATM   31  C1  UNL     1      -1.433 -37.847 -25.616  1.00  0.00     0.027 C
ENDBRANCH  25  30
BRANCH  26  32
HETATM   32  N3  UNL     1      -1.449 -33.100 -22.572  1.00  0.00    -0.331 N
ATOM     33  H32 UNL     1      -2.057 -32.996 -21.759  1.00  0.00     0.177 HD
ATOM     34  H31 UNL     1      -0.924 -32.310 -22.948  1.00  0.00     0.177 HD
ENDBRANCH  26  32
ENDBRANCH   1  23
TORSDOF 8
ENDMDL