MODEL 5
REMARK VINA RESULT: -8.796919043      1.129      1.914
REMARK  6 active torsions:
REMARK  status: ('A' for Active; 'I' for Inactive)
REMARK    1  A    between atoms: O1_2  and  C2_3
REMARK    2  A    between atoms: C2_3  and  C3_5
REMARK    3  A    between atoms: C3_5  and  C4_6
REMARK    4  A    between atoms: C3_5  and  N1_9
REMARK    5  A    between atoms: C9_12  and  O3_13
REMARK    6  A    between atoms: C9_12  and  C10_15
ROOT
HETATM    1  N1  UNL     1     -29.473  27.231  93.828  1.00  0.00    -0.335 N
HETATM    2  C7  UNL     1     -29.201  27.387  95.256  1.00  0.00     0.130 C
HETATM    3  C8  UNL     1     -27.690  27.327  95.316  1.00  0.00     0.068 C
HETATM    4  C9  UNL     1     -27.346  26.397  94.172  1.00  0.00     0.147 C
HETATM    5  C20 UNL     1     -28.456  26.450  93.229  1.00  0.00     0.256 C
HETATM    6  O4  UNL     1     -28.568  25.934  92.097  1.00  0.00    -0.270 OA
ENDROOT
BRANCH   4   7
HETATM    7  O3  UNL     1     -27.337  25.089  94.712  1.00  0.00    -0.379 OA
ATOM      8  H3  UNL     1     -28.239  24.790  94.704  1.00  0.00     0.211 HD
ENDBRANCH   4   7
BRANCH   4   9
HETATM    9  C10 UNL     1     -25.981  26.639  93.639  1.00  0.00     0.004 C
HETATM   10  C11 UNL     1     -26.058  27.727  92.595  1.00  0.00     0.018 C
HETATM   11  C12 UNL     1     -24.760  27.830  91.797  1.00  0.00    -0.010 C
HETATM   12  C13 UNL     1     -24.397  26.485  91.261  1.00  0.00     0.009 C
HETATM   13  C17 UNL     1     -23.720  28.304  92.815  1.00  0.00     0.048 C
HETATM   14  C14 UNL     1     -24.134  25.538  92.408  1.00  0.00    -0.010 C
HETATM   15  C15 UNL     1     -23.114  26.029  93.381  1.00  0.00     0.048 C
HETATM   16  C19 UNL     1     -25.464  25.324  93.090  1.00  0.00     0.018 C
HETATM   17  C16 UNL     1     -23.658  27.342  93.955  1.00  0.00     0.105 C
HETATM   18  F1  UNL     1     -22.720  27.806  94.863  1.00  0.00    -0.243 F
HETATM   19  C18 UNL     1     -24.968  27.106  94.655  1.00  0.00     0.056 C
ENDBRANCH   4   9
BRANCH   1  20
HETATM   20  C3  UNL     1     -30.617  27.799  93.153  1.00  0.00     0.190 C
BRANCH  20  21
HETATM   21  C2  UNL     1     -31.745  27.988  94.107  1.00  0.00     0.281 C
HETATM   22  O2  UNL     1     -32.449  27.000  94.424  1.00  0.00    -0.263 OA
BRANCH  21  23
HETATM   23  O1  UNL     1     -32.060  29.206  94.668  1.00  0.00    -0.325 OA
HETATM   24  C1  UNL     1     -32.143  29.478  96.034  1.00  0.00     0.213 C
ENDBRANCH  21  23
ENDBRANCH  20  21
BRANCH  20  25
HETATM   25  C4  UNL     1     -30.166  29.125  92.565  1.00  0.00     0.010 C
HETATM   26  C5  UNL     1     -29.693  28.957  91.136  1.00  0.00     0.012 C
HETATM   27  C6  UNL     1     -28.963  29.570  93.377  1.00  0.00     0.012 C
ENDBRANCH  20  25
ENDBRANCH   1  20
TORSDOF 6
ENDMDL