MODEL 5
REMARK VINA RESULT: -7.847136098      1.875      5.293
REMARK  5 active torsions:
REMARK  status: ('A' for Active; 'I' for Inactive)
REMARK    1  A    between atoms: C2_2  and  N1_3
REMARK    2  A    between atoms: N1_3  and  O1_4
REMARK    3  A    between atoms: C3_6  and  C4_7
REMARK    4  A    between atoms: C12_16  and  C13_17
REMARK    5  A    between atoms: C13_17  and  C14_18
REMARK       I    between atoms: C14_18  and  N2_20
ROOT
HETATM    1  C1  UNL     1     -24.444  24.944  92.547  1.00  0.00     0.041 C
HETATM    2  C2  UNL     1     -25.579  25.964  92.835  1.00  0.00     0.056 C
HETATM    3  C5  UNL     1     -25.546  26.156  94.357  1.00  0.00     0.042 C
HETATM    4  C6  UNL     1     -26.762  25.651  94.883  1.00  0.00    -0.037 C
HETATM    5  C7  UNL     1     -27.269  25.752  96.282  1.00  0.00     0.010 C
HETATM    6  C8  UNL     1     -28.478  24.792  96.068  1.00  0.00     0.005 C
HETATM    7  C9  UNL     1     -28.160  23.909  94.915  1.00  0.00    -0.013 C
HETATM    8  C10 UNL     1     -26.681  24.159  94.856  1.00  0.00     0.014 C
HETATM    9  C11 UNL     1     -28.669  24.239  93.562  1.00  0.00     0.014 C
HETATM   10  C12 UNL     1     -28.098  25.485  92.930  1.00  0.00    -0.029 C
HETATM   11  C19 UNL     1     -27.860  26.342  94.130  1.00  0.00     0.019 C
HETATM   12  C20 UNL     1     -26.784  25.381  92.242  1.00  0.00     0.043 C
ENDROOT
BRANCH  10  13
HETATM   13  C13 UNL     1     -29.106  26.188  92.059  1.00  0.00     0.112 C
BRANCH  13  14
HETATM   14  C14 UNL     1     -29.214  27.615  92.244  1.00  0.00     0.220 C
HETATM   15  O2  UNL     1     -28.407  28.403  91.724  1.00  0.00    -0.273 OA
HETATM   16  N2  UNL     1     -30.246  28.146  93.024  1.00  0.00    -0.349 N
HETATM   17  C15 UNL     1     -30.458  29.550  93.282  1.00  0.00     0.153 C
HETATM   18  C18 UNL     1     -31.192  27.236  93.635  1.00  0.00     0.153 C
HETATM   19  C16 UNL     1     -30.490  29.745  94.774  1.00  0.00     0.252 C
HETATM   20  N3  UNL     1     -31.260  28.764  95.466  1.00  0.00    -0.072 N
HETATM   21  C17 UNL     1     -32.077  27.944  94.624  1.00  0.00     0.252 C
ATOM     22  H32 UNL     1     -30.655  28.183  96.046  1.00  0.00     0.277 HD
ATOM     23  H31 UNL     1     -31.828  29.204  96.189  1.00  0.00     0.277 HD
ENDBRANCH  13  14
ENDBRANCH  10  13
BRANCH   2  24
HETATM   24  N1  UNL     1     -25.063  27.194  92.290  1.00  0.00    -0.265 N
HETATM   25  C3  UNL     1     -24.020  27.275  91.580  1.00  0.00     0.105 C
BRANCH  24  26
HETATM   26  O1  UNL     1     -25.740  28.397  92.550  1.00  0.00    -0.287 OA
ATOM     27  H1  UNL     1     -25.460  28.939  93.278  1.00  0.00     0.244 HD
ENDBRANCH  24  26
BRANCH  25  28
HETATM   28  C4  UNL     1     -23.554  28.626  91.049  1.00  0.00     0.161 C
HETATM   29 CL1  UNL     1     -21.970  28.334  90.265  1.00  0.00    -0.125 Cl
ENDBRANCH  25  28
ENDBRANCH   2  24
TORSDOF 5
ENDMDL