MODEL 5
REMARK VINA RESULT: -4.806670472      1.507      2.002
REMARK  6 active torsions:
REMARK  status: ('A' for Active; 'I' for Inactive)
REMARK    1  A    between atoms: C2_2  and  C3_3
REMARK    2  A    between atoms: C3_3  and  C4_4
REMARK    3  A    between atoms: C5_5  and  N1_6
REMARK       I    between atoms: N2_9  and  C8_10
REMARK    4  A    between atoms: C8_10  and  C9_12
REMARK    5  A    between atoms: C9_12  and  N3_13
REMARK    6  A    between atoms: C9_12  and  C10_17
ROOT
HETATM    1  N1  UNL     1     -28.343  27.475  92.244  1.00  0.00    -0.377 N
HETATM    2  C6  UNL     1     -29.394  26.564  92.631  1.00  0.00     0.143 C
HETATM    3  C7  UNL     1     -30.725  27.305  92.447  1.00  0.00     0.145 C
HETATM    4  N2  UNL     1     -30.689  28.510  93.292  1.00  0.00    -0.347 N
HETATM    5  C8  UNL     1     -31.694  28.695  94.254  1.00  0.00     0.251 C
HETATM    6  O1  UNL     1     -32.611  27.807  94.364  1.00  0.00    -0.271 OA
HETATM    7  C14 UNL     1     -29.592  29.423  93.054  1.00  0.00     0.145 C
HETATM    8  C15 UNL     1     -28.695  28.854  91.949  1.00  0.00     0.143 C
ENDROOT
BRANCH   1   9
HETATM    9  C5  UNL     1     -27.018  26.994  92.168  1.00  0.00     0.038 A
HETATM   10  C4  UNL     1     -26.649  25.698  92.393  1.00  0.00    -0.021 A
HETATM   11  C20 UNL     1     -25.297  25.342  92.299  1.00  0.00    -0.031 A
HETATM   12  C19 UNL     1     -24.365  26.299  91.981  1.00  0.00     0.046 A
HETATM   13  C21 UNL     1     -24.918  23.933  92.541  1.00  0.00     0.050 C
HETATM   14  C17 UNL     1     -24.735  27.597  91.754  1.00  0.00    -0.037 A
HETATM   15 CL1  UNL     1     -22.687  25.797  91.876  1.00  0.00    -0.083 Cl
HETATM   16  C16 UNL     1     -26.050  27.944  91.847  1.00  0.00     0.038 A
HETATM   17  C18 UNL     1     -23.720  28.630  91.410  1.00  0.00     0.050 C
BRANCH  10  18
HETATM   18  C3  UNL     1     -27.615  24.658  92.717  1.00  0.00     0.067 C
BRANCH  18  19
HETATM   19  C2  UNL     1     -27.751  24.276  94.128  1.00  0.00    -0.032 C
HETATM   20  C1  UNL     1     -28.809  23.551  94.539  1.00  0.00     0.007 C
ENDBRANCH  18  19
ENDBRANCH  10  18
ENDBRANCH   1   9
BRANCH   5  21
HETATM   21  C9  UNL     1     -31.823  29.823  95.183  1.00  0.00     0.282 C
BRANCH  21  22
HETATM   22  N3  UNL     1     -33.078  30.495  95.180  1.00  0.00    -0.066 N
ATOM     23  H33 UNL     1     -33.802  29.876  94.817  1.00  0.00     0.275 HD
ATOM     24  H32 UNL     1     -33.406  30.619  96.139  1.00  0.00     0.275 HD
ATOM     25  H31 UNL     1     -33.108  31.388  94.687  1.00  0.00     0.275 HD
ENDBRANCH  21  22
BRANCH  21  26
HETATM   26  C10 UNL     1     -31.550  29.376  96.622  1.00  0.00    -0.014 C
HETATM   27  C11 UNL     1     -32.820  28.910  97.298  1.00  0.00     0.017 C
HETATM   28  C12 UNL     1     -31.087  30.616  97.391  1.00  0.00     0.017 C
HETATM   29  C13 UNL     1     -30.441  28.376  96.696  1.00  0.00     0.017 C
ENDBRANCH  21  26
ENDBRANCH   5  21
TORSDOF 6
ENDMDL