MODEL 5
REMARK VINA RESULT: -8.870056868      2.205      4.526
REMARK  6 active torsions:
REMARK  status: ('A' for Active; 'I' for Inactive)
REMARK    1  A    between atoms: C2_2  and  O1_3
REMARK    2  A    between atoms: O1_3  and  C3_4
REMARK    3  A    between atoms: C3_4  and  C4_6
REMARK    4  A    between atoms: C4_6  and  C5_7
REMARK    5  A    between atoms: C16_18  and  C17_19
REMARK    6  A    between atoms: C17_19  and  O3_20
ROOT
HETATM    1  C4  UNL     1     -27.145  26.735  93.927  1.00  0.00     0.086 C
HETATM    2  C15 UNL     1     -28.052  25.864  94.801  1.00  0.00     0.033 C
HETATM    3  C16 UNL     1     -27.834  26.084  96.062  1.00  0.00     0.015 C
HETATM    4  C18 UNL     1     -26.789  27.115  96.274  1.00  0.00     0.050 C
HETATM    5  C19 UNL     1     -26.143  27.098  94.930  1.00  0.00    -0.014 C
HETATM    6 BR1  UNL     1     -24.911  28.481  94.579  1.00  0.00    -0.059 Br
ENDROOT
BRANCH   1   7
HETATM    7  C3  UNL     1     -26.561  25.700  93.006  1.00  0.00     0.273 C
HETATM    8  O2  UNL     1     -27.118  24.574  92.996  1.00  0.00    -0.264 OA
BRANCH   7   9
HETATM    9  O1  UNL     1     -25.509  25.814  92.179  1.00  0.00    -0.321 OA
BRANCH   9  10
HETATM   10  C2  UNL     1     -24.258  25.234  92.251  1.00  0.00     0.174 C
HETATM   11  C1  UNL     1     -23.243  25.799  91.299  1.00  0.00     0.034 C
ENDBRANCH   9  10
ENDBRANCH   7   9
ENDBRANCH   1   7
BRANCH   1  12
HETATM   12  C5  UNL     1     -28.008  27.716  93.263  1.00  0.00    -0.018 C
HETATM   13  C6  UNL     1     -28.603  28.765  94.169  1.00  0.00     0.015 C
HETATM   14  C7  UNL     1     -29.581  29.666  93.446  1.00  0.00    -0.013 C
HETATM   15  C8  UNL     1     -28.813  30.460  92.446  1.00  0.00     0.009 C
HETATM   16  C12 UNL     1     -30.712  28.889  92.814  1.00  0.00     0.009 C
HETATM   17  C9  UNL     1     -28.217  29.475  91.480  1.00  0.00    -0.013 C
HETATM   18  C10 UNL     1     -29.344  28.737  90.772  1.00  0.00     0.009 C
HETATM   19  C14 UNL     1     -27.325  28.461  92.130  1.00  0.00     0.015 C
HETATM   20  C11 UNL     1     -30.059  27.942  91.813  1.00  0.00    -0.013 C
HETATM   21  C13 UNL     1     -29.176  27.016  92.599  1.00  0.00     0.015 C
ENDBRANCH   1  12
BRANCH   3  22
HETATM   22  C17 UNL     1     -28.546  25.402  97.179  1.00  0.00     0.169 C
BRANCH  22  23
HETATM   23  O3  UNL     1     -29.420  26.298  97.746  1.00  0.00    -0.400 OA
ATOM     24  H3  UNL     1     -29.292  26.286  98.686  1.00  0.00     0.209 HD
ENDBRANCH  22  23
ENDBRANCH   3  22
TORSDOF 6
ENDMDL