MODEL 5
REMARK VINA RESULT: -7.371468141      2.458      5.584
REMARK  5 active torsions:
REMARK  status: ('A' for Active; 'I' for Inactive)
REMARK    1  A    between atoms: C2_2  and  C3_3
REMARK    2  A    between atoms: C3_3  and  C4_4
REMARK    3  A    between atoms: C4_4  and  C5_5
REMARK       I    between atoms: C5_5  and  N1_7
REMARK    4  A    between atoms: N1_7  and  C6_9
REMARK    5  A    between atoms: N3_16  and  C10_17
ROOT
HETATM    1  C6  UNL     1     -26.038  27.553  92.769  1.00  0.00     0.144 A
HETATM    2  C7  UNL     1     -24.820  27.355  92.144  1.00  0.00     0.080 A
HETATM    3 BR1  UNL     1     -23.888  28.564  90.982  1.00  0.00    -0.045 Br
HETATM    4  C8  UNL     1     -24.409  26.096  92.531  1.00  0.00     0.043 A
HETATM    5  C9  UNL     1     -23.133  25.486  92.078  1.00  0.00     0.071 C
HETATM    6  N2  UNL     1     -25.358  25.606  93.342  1.00  0.00    -0.300 N
ATOM      7  H2  UNL     1     -25.323  24.686  93.783  1.00  0.00     0.187 HD
HETATM    8  N3  UNL     1     -26.338  26.468  93.493  1.00  0.00    -0.270 N
ENDROOT
BRANCH   1   9
HETATM    9  N1  UNL     1     -26.767  28.582  92.687  1.00  0.00    -0.311 N
HETATM   10  C5  UNL     1     -27.788  28.889  91.789  1.00  0.00     0.223 C
HETATM   11  O1  UNL     1     -27.485  29.333  90.632  1.00  0.00    -0.273 OA
ATOM     12  H1  UNL     1     -26.578  29.300  93.387  1.00  0.00     0.170 HD
BRANCH  10  13
HETATM   13  C4  UNL     1     -29.228  28.725  92.115  1.00  0.00     0.103 C
BRANCH  13  14
HETATM   14  C3  UNL     1     -29.565  29.404  93.415  1.00  0.00     0.009 C
BRANCH  14  15
HETATM   15  C2  UNL     1     -30.869  28.965  93.989  1.00  0.00    -0.004 C
HETATM   16  C1  UNL     1     -31.030  29.631  95.346  1.00  0.00     0.005 C
ENDBRANCH  14  15
ENDBRANCH  13  14
ENDBRANCH  10  13
ENDBRANCH   1   9
BRANCH   8  17
HETATM   17  C10 UNL     1     -27.484  26.215  94.303  1.00  0.00     0.115 C
HETATM   18  C11 UNL     1     -27.495  27.063  95.564  1.00  0.00     0.059 C
HETATM   19  C12 UNL     1     -28.840  26.790  96.238  1.00  0.00     0.124 C
HETATM   20  C13 UNL     1     -28.704  25.955  97.469  1.00  0.00     0.034 C
HETATM   21  O2  UNL     1     -29.679  26.028  95.431  1.00  0.00    -0.380 OA
HETATM   22  C14 UNL     1     -28.807  24.530  96.941  1.00  0.00     0.034 C
HETATM   23  C15 UNL     1     -29.052  24.783  95.464  1.00  0.00     0.124 C
HETATM   24  C16 UNL     1     -27.711  24.806  94.708  1.00  0.00     0.059 C
ENDBRANCH   8  17
TORSDOF 5
ENDMDL