MODEL 4
REMARK VINA RESULT: -5.585987002      3.156      5.132
REMARK  5 active torsions:
REMARK  status: ('A' for Active; 'I' for Inactive)
REMARK    1  A    between atoms: C2_2  and  O1_4
REMARK    2  A    between atoms: O1_4  and  C4_5
REMARK    3  A    between atoms: C4_5  and  C5_7
REMARK       I    between atoms: N1_9  and  C7_10
REMARK       I    between atoms: C7_10  and  N2_12
REMARK    4  A    between atoms: N2_12  and  C8_14
REMARK    5  A    between atoms: C19_25  and  C20_26
ROOT
HETATM    1  C5  UNL     1     -34.322  27.971  98.005  1.00  0.00     0.110 C
HETATM    2  C6  UNL     1     -34.025  27.921  96.508  1.00  0.00     0.142 C
HETATM    3  N1  UNL     1     -33.206  29.087  96.383  1.00  0.00    -0.333 N
HETATM    4  C7  UNL     1     -32.072  29.226  95.544  1.00  0.00     0.319 C
HETATM    5  O3  UNL     1     -31.421  30.298  95.513  1.00  0.00    -0.247 OA
HETATM    6  N2  UNL     1     -31.683  28.141  94.738  1.00  0.00    -0.334 N
ATOM      7  H2  UNL     1     -32.216  27.273  94.774  1.00  0.00     0.165 HD
HETATM    8  C18 UNL     1     -33.737  30.095  97.256  1.00  0.00     0.134 C
HETATM    9  C19 UNL     1     -34.724  29.371  98.183  1.00  0.00     0.033 C
ENDROOT
BRANCH   6  10
HETATM   10  C8  UNL     1     -30.537  28.236  93.860  1.00  0.00     0.035 C
HETATM   11  C9  UNL     1     -30.520  29.565  93.194  1.00  0.00     0.035 C
HETATM   12  C10 UNL     1     -29.295  29.715  92.309  1.00  0.00    -0.012 C
HETATM   13  C11 UNL     1     -29.464  28.721  91.180  1.00  0.00     0.009 C
HETATM   14  C15 UNL     1     -28.060  29.402  93.098  1.00  0.00     0.009 C
HETATM   15  C12 UNL     1     -29.555  27.360  91.788  1.00  0.00    -0.012 C
HETATM   16  C13 UNL     1     -28.250  27.032  92.482  1.00  0.00     0.009 C
HETATM   17  C17 UNL     1     -30.665  27.171  92.762  1.00  0.00     0.035 C
HETATM   18  C14 UNL     1     -28.102  27.987  93.620  1.00  0.00    -0.012 C
HETATM   19  C16 UNL     1     -29.266  27.914  94.591  1.00  0.00     0.035 C
ENDBRANCH   6  10
BRANCH   1  20
HETATM   20  C4  UNL     1     -35.194  26.932  98.485  1.00  0.00     0.265 C
HETATM   21  O2  UNL     1     -36.367  26.671  98.135  1.00  0.00    -0.265 OA
BRANCH  20  22
HETATM   22  O1  UNL     1     -34.690  26.077  99.482  1.00  0.00    -0.316 OA
BRANCH  22  23
HETATM   23  C2  UNL     1     -35.505  25.605 100.539  1.00  0.00     0.123 C
HETATM   24  C1  UNL     1     -35.016  24.240 100.958  1.00  0.00     0.040 C
HETATM   25  C3  UNL     1     -35.356  26.596 101.679  1.00  0.00     0.040 C
ENDBRANCH  22  23
ENDBRANCH  20  22
ENDBRANCH   1  20
BRANCH   9  26
HETATM   26  C20 UNL     1     -36.085  29.756  97.747  1.00  0.00     0.121 C
HETATM   27 CL1  UNL     1     -36.289  31.507  98.123  1.00  0.00    -0.130 Cl
ENDBRANCH   9  26
TORSDOF 5
ENDMDL