MODEL 4
REMARK VINA RESULT: -6.278073511      1.900      6.585
REMARK  4 active torsions:
REMARK  status: ('A' for Active; 'I' for Inactive)
REMARK    1  A    between atoms: C2_2  and  N1_4
REMARK    2  A    between atoms: C6_7  and  C7_8
REMARK    3  A    between atoms: C6_7  and  N3_18
REMARK       I    between atoms: C7_8  and  N2_10
REMARK    4  A    between atoms: N2_10  and  C8_12
ROOT
HETATM    1  N1  UNL     1     -30.331  29.357  95.238  1.00  0.00     0.092 N
HETATM    2  C4  UNL     1     -30.121  29.059  93.861  1.00  0.00     0.276 C
HETATM    3  C5  UNL     1     -28.690  28.759  93.555  1.00  0.00     0.072 C
HETATM    4  C6  UNL     1     -28.097  27.691  94.484  1.00  0.00     0.119 C
HETATM    5  C19 UNL     1     -28.419  28.119  95.878  1.00  0.00     0.072 C
HETATM    6  C20 UNL     1     -29.935  28.231  96.071  1.00  0.00     0.276 C
ENDROOT
BRANCH   4   7
HETATM    7  C7  UNL     1     -26.638  27.752  94.308  1.00  0.00     0.246 C
HETATM    8  O1  UNL     1     -25.828  28.029  95.229  1.00  0.00    -0.271 OA
HETATM    9  N2  UNL     1     -26.082  27.485  93.036  1.00  0.00    -0.354 N
ATOM     10  H2  UNL     1     -26.708  27.253  92.265  1.00  0.00     0.162 HD
BRANCH   9  11
HETATM   11  C8  UNL     1     -24.632  27.531  92.784  1.00  0.00     0.084 C
HETATM   12  C9  UNL     1     -24.079  26.190  93.121  1.00  0.00     0.025 C
HETATM   13  C10 UNL     1     -23.973  25.380  91.842  1.00  0.00     0.002 C
HETATM   14  C11 UNL     1     -22.903  26.042  91.001  1.00  0.00     0.000 C
HETATM   15  C12 UNL     1     -23.246  27.476  90.681  1.00  0.00     0.002 C
HETATM   16  C13 UNL     1     -24.461  27.972  91.377  1.00  0.00     0.025 C
ENDBRANCH   9  11
ENDBRANCH   4   7
BRANCH   4  17
HETATM   17  N3  UNL     1     -28.688  26.452  94.123  1.00  0.00    -0.355 N
HETATM   18  C14 UNL     1     -29.552  25.803  95.013  1.00  0.00     0.066 C
HETATM   19  C15 UNL     1     -29.047  24.519  95.621  1.00  0.00     0.065 C
HETATM   20  C16 UNL     1     -28.417  23.675  94.559  1.00  0.00     0.091 C
HETATM   21 CL1  UNL     1     -29.163  22.047  94.478  1.00  0.00    -0.124 Cl
HETATM   22  C17 UNL     1     -28.491  24.259  93.185  1.00  0.00     0.065 C
HETATM   23  C18 UNL     1     -28.046  25.698  93.130  1.00  0.00     0.066 C
ENDBRANCH   4  17
BRANCH   1  24
HETATM   24  C2  UNL     1     -31.588  29.921  95.571  1.00  0.00     0.215 C
HETATM   25  C1  UNL     1     -32.036  29.662  96.990  1.00  0.00     0.042 C
HETATM   26  C3  UNL     1     -32.606  29.540  94.544  1.00  0.00     0.042 C
ENDBRANCH   1  24
TORSDOF 4
ENDMDL