MODEL 3
REMARK VINA RESULT: -7.719569561      1.310      1.316
REMARK  5 active torsions:
REMARK  status: ('A' for Active; 'I' for Inactive)
REMARK       I    between atoms: C2_2  and  N1_4
REMARK    1  A    between atoms: N1_4  and  S1_5
REMARK    2  A    between atoms: N1_4  and  C15_25
REMARK    3  A    between atoms: S1_5  and  N2_6
REMARK    4  A    between atoms: C6_10  and  C7_11
REMARK       I    between atoms: C7_11  and  N3_13
REMARK    5  A    between atoms: N3_13  and  C8_15
ROOT
HETATM    1  C7  UNL     1     -26.586  25.892  95.069  1.00  0.00     0.247 C
HETATM    2  O2  UNL     1     -25.808  25.812  96.082  1.00  0.00    -0.271 OA
HETATM    3  N3  UNL     1     -26.201  26.464  93.939  1.00  0.00    -0.310 N
ATOM      4  H3  UNL     1     -27.086  26.734  93.509  1.00  0.00     0.170 HD
ENDROOT
BRANCH   1   5
HETATM    5  C6  UNL     1     -27.963  25.272  95.309  1.00  0.00     0.190 C
HETATM    6  N2  UNL     1     -28.889  26.313  95.453  1.00  0.00    -0.304 N
HETATM    7  C3  UNL     1     -28.992  26.704  96.795  1.00  0.00     0.074 C
HETATM    8  C4  UNL     1     -28.551  25.507  97.608  1.00  0.00     0.048 C
HETATM    9  C5  UNL     1     -27.920  24.563  96.616  1.00  0.00     0.041 C
BRANCH   6  10
HETATM   10  S1  UNL     1     -30.129  26.568  94.347  1.00  0.00     0.075 SA
BRANCH  10  11
HETATM   11  N1  UNL     1     -30.314  28.136  93.628  1.00  0.00    -0.270 N
HETATM   12  C2  UNL     1     -29.533  28.619  92.542  1.00  0.00     0.227 C
HETATM   13  C1  UNL     1     -29.740  29.964  91.979  1.00  0.00     0.118 C
HETATM   14  O1  UNL     1     -28.626  27.867  92.042  1.00  0.00    -0.273 OA
BRANCH  11  15
HETATM   15  C15 UNL     1     -31.330  29.025  94.151  1.00  0.00     0.093 C
HETATM   16  C16 UNL     1     -30.920  29.660  95.466  1.00  0.00     0.033 C
HETATM   17  C17 UNL     1     -32.586  28.241  94.432  1.00  0.00     0.033 C
ENDBRANCH  11  15
ENDBRANCH  10  11
ENDBRANCH   6  10
ENDBRANCH   1   5
BRANCH   3  18
HETATM   18  C8  UNL     1     -25.381  26.849  93.128  1.00  0.00     0.130 A
HETATM   19  N4  UNL     1     -24.838  28.100  93.325  1.00  0.00    -0.350 N
HETATM   20  C9  UNL     1     -23.928  28.634  92.514  1.00  0.00     0.097 A
ATOM     21  H4  UNL     1     -25.148  28.642  94.131  1.00  0.00     0.166 HD
HETATM   22  C10 UNL     1     -23.464  27.964  91.414  1.00  0.00    -0.039 A
HETATM   23  C11 UNL     1     -22.444  28.570  90.513  1.00  0.00     0.050 C
HETATM   24  C12 UNL     1     -23.972  26.713  91.172  1.00  0.00    -0.029 A
HETATM   25  C13 UNL     1     -23.464  25.983  89.980  1.00  0.00     0.050 C
HETATM   26  C14 UNL     1     -24.923  26.165  92.026  1.00  0.00     0.084 A
HETATM   27 CL1  UNL     1     -25.504  24.557  91.603  1.00  0.00    -0.080 Cl
ENDBRANCH   3  18
TORSDOF 5
ENDMDL