MODEL 3
REMARK VINA RESULT: -6.131132273      0.147      1.464
REMARK  3 active torsions:
REMARK  status: ('A' for Active; 'I' for Inactive)
REMARK    1  A    between atoms: O1_2  and  C2_3
REMARK    2  A    between atoms: C6_8  and  N1_9
REMARK       I    between atoms: N2_12  and  C9_13
REMARK       I    between atoms: C9_13  and  N3_15
REMARK    3  A    between atoms: N3_15  and  C10_17
ROOT
HETATM    1  N1  UNL     1     -32.368  27.573  94.497  1.00  0.00    -0.363 N
HETATM    2  C7  UNL     1     -31.777  28.843  94.859  1.00  0.00     0.145 C
HETATM    3  C8  UNL     1     -30.354  28.421  95.146  1.00  0.00     0.149 C
HETATM    4  N2  UNL     1     -30.090  27.463  94.110  1.00  0.00    -0.316 N
HETATM    5  C9  UNL     1     -28.810  27.159  93.588  1.00  0.00     0.320 C
HETATM    6  O2  UNL     1     -28.758  26.287  92.677  1.00  0.00    -0.247 OA
HETATM    7  N3  UNL     1     -27.658  27.817  94.083  1.00  0.00    -0.334 N
ATOM      8  H3  UNL     1     -27.783  28.511  94.820  1.00  0.00     0.165 HD
HETATM    9  C20 UNL     1     -31.357  26.883  93.717  1.00  0.00     0.254 C
ENDROOT
BRANCH   7  10
HETATM   10  C10 UNL     1     -26.322  27.568  93.612  1.00  0.00     0.035 C
HETATM   11  C11 UNL     1     -26.152  28.085  92.201  1.00  0.00     0.035 C
HETATM   12  C12 UNL     1     -24.681  27.956  91.780  1.00  0.00    -0.012 C
HETATM   13  C13 UNL     1     -23.833  28.734  92.731  1.00  0.00     0.009 C
HETATM   14  C17 UNL     1     -24.371  26.480  91.762  1.00  0.00     0.009 C
HETATM   15  C14 UNL     1     -23.929  28.109  94.101  1.00  0.00    -0.012 C
HETATM   16  C15 UNL     1     -23.571  26.635  94.060  1.00  0.00     0.009 C
HETATM   17  C19 UNL     1     -25.345  28.215  94.563  1.00  0.00     0.035 C
HETATM   18  C16 UNL     1     -24.549  25.944  93.159  1.00  0.00    -0.012 C
HETATM   19  C18 UNL     1     -25.984  26.094  93.588  1.00  0.00     0.035 C
ENDBRANCH   7  10
BRANCH   1  20
HETATM   20  C6  UNL     1     -33.654  27.113  94.842  1.00  0.00     0.037 A
HETATM   21  C5  UNL     1     -34.378  26.297  94.004  1.00  0.00     0.071 A
HETATM   22  C4  UNL     1     -35.642  25.839  94.334  1.00  0.00     0.121 A
HETATM   23  C3  UNL     1     -36.227  26.187  95.527  1.00  0.00     0.079 A
HETATM   24  F1  UNL     1     -36.335  25.038  93.494  1.00  0.00    -0.206 F
HETATM   25  C2  UNL     1     -35.519  27.008  96.393  1.00  0.00     0.073 A
HETATM   26  C21 UNL     1     -34.266  27.446  96.036  1.00  0.00     0.066 A
BRANCH  25  27
HETATM   27  O1  UNL     1     -36.097  27.373  97.613  1.00  0.00    -0.356 OA
HETATM   28  C1  UNL     1     -35.661  26.705  98.774  1.00  0.00     0.210 C
ENDBRANCH  25  27
ENDBRANCH   1  20
TORSDOF 3
ENDMDL