MODEL 4
REMARK VINA RESULT: -7.550025604      2.146      4.160
REMARK  4 active torsions:
REMARK  status: ('A' for Active; 'I' for Inactive)
REMARK    1  A    between atoms: O1_2  and  C2_3
REMARK    2  A    between atoms: N2_19  and  C14_20
REMARK    3  A    between atoms: C14_20  and  C15_21
REMARK    4  A    between atoms: C15_21  and  C16_22
ROOT
HETATM    1  C2  UNL     1     -29.948  29.057  93.613  1.00  0.00     0.090 A
HETATM    2  C3  UNL     1     -28.610  28.717  93.554  1.00  0.00     0.048 A
HETATM    3  C4  UNL     1     -28.012  28.063  94.625  1.00  0.00    -0.023 A
HETATM    4  C5  UNL     1     -28.787  27.770  95.727  1.00  0.00     0.043 A
HETATM    5  C6  UNL     1     -30.143  28.109  95.800  1.00  0.00     0.056 A
HETATM    6  C7  UNL     1     -30.717  28.756  94.730  1.00  0.00     0.069 A
HETATM    7 CL1  UNL     1     -32.408  29.202  94.772  1.00  0.00    -0.081 Cl
HETATM    8  N1  UNL     1     -28.268  27.065  96.849  1.00  0.00    -0.326 N
ATOM      9  H1  UNL     1     -28.840  26.851  97.665  1.00  0.00     0.169 HD
HETATM   10  C8  UNL     1     -26.882  26.672  96.763  1.00  0.00     0.227 C
HETATM   11  O2  UNL     1     -26.153  26.572  97.760  1.00  0.00    -0.273 OA
HETATM   12  C9  UNL     1     -26.428  26.404  95.378  1.00  0.00     0.089 C
HETATM   13  C10 UNL     1     -24.971  26.174  95.211  1.00  0.00     0.051 C
HETATM   14  C11 UNL     1     -24.748  26.590  93.758  1.00  0.00     0.230 A
HETATM   15  C12 UNL     1     -25.948  27.414  93.343  1.00  0.00     0.057 A
HETATM   16  C13 UNL     1     -26.408  26.249  92.541  1.00  0.00     0.280 A
HETATM   17  N2  UNL     1     -25.197  25.532  92.887  1.00  0.00     0.094 N
HETATM   18  C21 UNL     1     -26.605  27.714  94.637  1.00  0.00     0.042 C
ENDROOT
BRANCH  17  19
HETATM   19  C14 UNL     1     -24.276  25.345  91.759  1.00  0.00     0.273 C
BRANCH  19  20
HETATM   20  C15 UNL     1     -23.242  26.394  91.834  1.00  0.00     0.034 C
BRANCH  20  21
HETATM   21  C16 UNL     1     -23.335  27.495  90.841  1.00  0.00    -0.013 C
HETATM   22  C17 UNL     1     -22.205  27.645  89.910  1.00  0.00     0.005 C
HETATM   23  C18 UNL     1     -21.554  28.941  90.289  1.00  0.00     0.000 C
HETATM   24  C19 UNL     1     -22.747  29.822  90.645  1.00  0.00     0.000 C
HETATM   25  C20 UNL     1     -23.558  28.842  91.506  1.00  0.00     0.005 C
ENDBRANCH  20  21
ENDBRANCH  19  20
ENDBRANCH  17  19
BRANCH   1  26
HETATM   26  O1  UNL     1     -30.584  29.706  92.572  1.00  0.00    -0.354 OA
HETATM   27  C1  UNL     1     -30.034  29.941  91.306  1.00  0.00     0.210 C
ENDBRANCH   1  26
TORSDOF 4
ENDMDL