MODEL 5
REMARK VINA RESULT: -6.759416082      2.627      8.927
REMARK  9 active torsions:
REMARK  status: ('A' for Active; 'I' for Inactive)
REMARK    1  A    between atoms: S1_2  and  C2_4
REMARK    2  A    between atoms: C5_8  and  C6_9
REMARK    3  A    between atoms: C6_9  and  C7_10
REMARK    4  A    between atoms: C7_10  and  N2_13
REMARK       I    between atoms: N2_13  and  C9_15
REMARK    5  A    between atoms: C9_15  and  C10_17
REMARK    6  A    between atoms: C18_28  and  C19_29
REMARK       I    between atoms: N4_33  and  C22_34
REMARK    7  A    between atoms: C22_34  and  O5_36
REMARK    8  A    between atoms: O5_36  and  C23_37
REMARK    9  A    between atoms: C23_37  and  C24_38
ROOT
HETATM    1  C7  UNL     1      -6.068  27.764  49.727  1.00  0.00     0.196 C
HETATM    2  C8  UNL     1      -5.467  29.067  49.493  1.00  0.00     0.085 C
HETATM    3  N1  UNL     1      -4.967  30.109  49.313  1.00  0.00    -0.195 NA
ENDROOT
BRANCH   1   4
HETATM    4  C6  UNL     1      -7.536  27.778  49.379  1.00  0.00     0.081 C
BRANCH   4   5
HETATM    5  C5  UNL     1      -8.407  27.044  50.293  1.00  0.00    -0.020 A
HETATM    6  C4  UNL     1      -9.189  27.646  51.262  1.00  0.00     0.093 A
HETATM    7  O2  UNL     1      -9.310  28.895  51.548  1.00  0.00    -0.320 OA
HETATM    8  C27 UNL     1     -10.013  26.924  52.131  1.00  0.00     0.029 A
HETATM    9  C3  UNL     1     -10.126  29.104  52.525  1.00  0.00     0.164 A
HETATM   10  C2  UNL     1     -10.604  27.854  52.936  1.00  0.00     0.067 A
HETATM   11  C18 UNL     1     -10.077  25.544  52.047  1.00  0.00    -0.004 A
HETATM   12  C17 UNL     1      -9.256  24.962  51.043  1.00  0.00     0.012 A
HETATM   13  C16 UNL     1      -8.453  25.679  50.198  1.00  0.00     0.011 A
BRANCH  10  14
HETATM   14  S1  UNL     1     -11.683  27.584  54.264  1.00  0.00     0.048 S
HETATM   15  C1  UNL     1     -11.159  28.593  55.632  1.00  0.00     0.133 C
HETATM   16  O1  UNL     1     -13.282  27.912  53.865  1.00  0.00    -0.253 OA
ENDBRANCH  10  14
BRANCH  11  17
HETATM   17  C19 UNL     1     -11.007  24.734  52.820  1.00  0.00     0.134 C
HETATM   18  F1  UNL     1     -10.791  23.430  52.273  1.00  0.00    -0.237 F
HETATM   19  C20 UNL     1     -12.459  24.842  52.503  1.00  0.00     0.069 C
HETATM   20  C21 UNL     1     -13.385  24.188  53.483  1.00  0.00     0.131 C
HETATM   21  N4  UNL     1     -12.647  23.246  54.270  1.00  0.00    -0.328 N
HETATM   22  C22 UNL     1     -12.853  21.839  54.273  1.00  0.00     0.362 C
HETATM   23  C25 UNL     1     -11.622  23.857  55.106  1.00  0.00     0.131 C
HETATM   24  O4  UNL     1     -12.158  21.104  54.994  1.00  0.00    -0.238 OA
HETATM   25  C26 UNL     1     -10.568  24.402  54.211  1.00  0.00     0.069 C
BRANCH  22  26
HETATM   26  O5  UNL     1     -13.823  21.298  53.475  1.00  0.00    -0.302 OA
BRANCH  26  27
HETATM   27  C23 UNL     1     -13.610  20.587  52.300  1.00  0.00     0.212 C
BRANCH  27  28
HETATM   28  C24 UNL     1     -13.863  21.352  51.034  1.00  0.00     0.249 C
HETATM   29  F2  UNL     1     -14.954  22.201  51.209  1.00  0.00    -0.253 F
ENDBRANCH  27  28
ENDBRANCH  26  27
ENDBRANCH  22  26
ENDBRANCH  11  17
ENDBRANCH   4   5
ENDBRANCH   1   4
BRANCH   1  30
HETATM   30  N2  UNL     1      -5.452  26.836  48.799  1.00  0.00    -0.342 N
HETATM   31  C9  UNL     1      -4.374  25.995  49.205  1.00  0.00     0.250 C
HETATM   32  O3  UNL     1      -3.974  26.079  50.378  1.00  0.00    -0.271 OA
ATOM     33  H2  UNL     1      -5.796  26.783  47.841  1.00  0.00     0.163 HD
BRANCH  31  34
HETATM   34  C10 UNL     1      -3.734  25.039  48.264  1.00  0.00     0.281 C
HETATM   35  N3  UNL     1      -2.495  24.526  48.818  1.00  0.00    -0.058 N
HETATM   36  C11 UNL     1      -1.469  24.789  47.856  1.00  0.00     0.187 C
ATOM     37  H32 UNL     1      -2.283  24.900  49.743  1.00  0.00     0.278 HD
ATOM     38  H31 UNL     1      -2.551  23.542  49.086  1.00  0.00     0.278 HD
HETATM   39  C12 UNL     1      -1.236  26.285  47.858  1.00  0.00     0.033 C
HETATM   40  C15 UNL     1      -2.257  24.665  46.537  1.00  0.00     0.040 C
HETATM   41  C13 UNL     1      -2.493  26.876  47.246  1.00  0.00     0.009 C
HETATM   42  C14 UNL     1      -3.335  25.685  46.953  1.00  0.00     0.028 C
ENDBRANCH  31  34
ENDBRANCH   1  30
TORSDOF 9
ENDMDL