MODEL 3
REMARK VINA RESULT: -7.279030566      3.739      8.879
REMARK  8 active torsions:
REMARK  status: ('A' for Active; 'I' for Inactive)
REMARK    1  A    between atoms: C2_2  and  C5_5
REMARK    2  A    between atoms: C5_5  and  C6_6
REMARK    3  A    between atoms: C6_6  and  C7_7
REMARK    4  A    between atoms: C7_7  and  C8_8
REMARK    5  A    between atoms: C8_8  and  N1_9
REMARK       I    between atoms: N1_9  and  C9_11
REMARK       I    between atoms: C9_11  and  N2_13
REMARK    6  A    between atoms: C12_16  and  C13_17
REMARK    7  A    between atoms: C15_19  and  C16_20
REMARK    8  A    between atoms: C22_32  and  C23_33
REMARK       I    between atoms: C23_33  and  N6_35
ROOT
HETATM    1  N1  UNL     1      -5.006  26.874  51.717  1.00  0.00    -0.342 N
ATOM      2  H1  UNL     1      -4.724  26.973  50.742  1.00  0.00     0.164 HD
HETATM    3  C9  UNL     1      -6.349  27.096  52.078  1.00  0.00     0.337 C
HETATM    4  O1  UNL     1      -6.613  26.964  53.316  1.00  0.00    -0.245 OA
HETATM    5  N2  UNL     1      -7.336  27.439  51.144  1.00  0.00    -0.233 N
HETATM    6  C10 UNL     1      -8.708  27.714  51.646  1.00  0.00     0.147 C
HETATM    7  C11 UNL     1      -9.290  26.484  52.350  1.00  0.00     0.068 C
HETATM    8  C12 UNL     1     -10.765  26.835  52.099  1.00  0.00     0.175 C
HETATM    9  O2  UNL     1     -10.696  26.967  50.694  1.00  0.00    -0.370 OA
HETATM   10  C20 UNL     1      -9.609  27.810  50.469  1.00  0.00     0.167 C
HETATM   11  C21 UNL     1      -8.711  27.316  49.340  1.00  0.00     0.182 C
HETATM   12  N5  UNL     1      -7.374  27.556  49.838  1.00  0.00    -0.289 N
HETATM   13  C22 UNL     1      -6.433  27.766  48.877  1.00  0.00     0.184 C
ENDROOT
BRANCH   1  14
HETATM   14  C8  UNL     1      -4.002  26.499  52.734  1.00  0.00     0.124 C
BRANCH  14  15
HETATM   15  C7  UNL     1      -2.646  26.491  52.114  1.00  0.00     0.020 C
BRANCH  15  16
HETATM   16  C6  UNL     1      -2.382  25.224  51.320  1.00  0.00     0.002 C
BRANCH  16  17
HETATM   17  C5  UNL     1      -2.494  24.007  52.200  1.00  0.00     0.008 C
BRANCH  17  18
HETATM   18  C2  UNL     1      -3.143  22.876  51.402  1.00  0.00    -0.051 C
HETATM   19  C1  UNL     1      -4.114  23.502  50.424  1.00  0.00     0.014 C
HETATM   20  C3  UNL     1      -2.030  22.123  50.706  1.00  0.00     0.014 C
HETATM   21  C4  UNL     1      -3.867  21.946  52.348  1.00  0.00     0.014 C
ENDBRANCH  17  18
ENDBRANCH  16  17
ENDBRANCH  15  16
ENDBRANCH  14  15
ENDBRANCH   1  14
BRANCH  13  22
HETATM   22  C23 UNL     1      -6.099  26.518  48.114  1.00  0.00     0.260 C
HETATM   23  O3  UNL     1      -7.031  25.797  47.736  1.00  0.00    -0.267 OA
HETATM   24  N6  UNL     1      -4.721  26.236  47.875  1.00  0.00    -0.342 N
HETATM   25  C24 UNL     1      -3.622  27.034  48.285  1.00  0.00     0.132 C
HETATM   26  C27 UNL     1      -4.272  25.072  47.182  1.00  0.00     0.205 C
HETATM   27  C25 UNL     1      -2.474  26.623  47.421  1.00  0.00     0.100 C
HETATM   28  C26 UNL     1      -2.859  25.322  46.779  1.00  0.00     0.261 C
HETATM   29  F1  UNL     1      -2.702  25.362  45.401  1.00  0.00    -0.204 F
HETATM   30  F2  UNL     1      -2.061  24.308  47.302  1.00  0.00    -0.204 F
ENDBRANCH  13  22
BRANCH   8  31
HETATM   31  C13 UNL     1     -11.717  25.876  52.578  1.00  0.00     0.056 A
HETATM   32  C14 UNL     1     -11.482  24.496  52.600  1.00  0.00     0.056 A
HETATM   33  C15 UNL     1     -12.583  23.831  53.121  1.00  0.00     0.035 A
HETATM   34  N3  UNL     1     -13.458  24.812  53.401  1.00  0.00    -0.304 N
HETATM   35  N4  UNL     1     -12.943  26.006  53.081  1.00  0.00    -0.302 N
ATOM     36  H3  UNL     1     -14.386  24.667  53.801  1.00  0.00     0.186 HD
ATOM     37  H4  UNL     1     -13.426  26.896  53.205  1.00  0.00     0.186 HD
BRANCH  33  38
HETATM   38  C16 UNL     1     -12.713  22.372  53.317  1.00  0.00    -0.007 C
HETATM   39  C17 UNL     1     -11.385  21.708  53.028  1.00  0.00     0.021 C
HETATM   40  C18 UNL     1     -13.078  22.051  54.742  1.00  0.00     0.021 C
HETATM   41  C19 UNL     1     -13.714  21.749  52.364  1.00  0.00     0.021 C
ENDBRANCH  33  38
ENDBRANCH   8  31
TORSDOF 8
ENDMDL