MODEL 1
REMARK VINA RESULT: -7.876849900      0.000      0.000
REMARK  8 active torsions:
REMARK  status: ('A' for Active; 'I' for Inactive)
REMARK    1  A    between atoms: C2_2  and  C4_4
REMARK       I    between atoms: C4_4  and  N1_6
REMARK    2  A    between atoms: C7_9  and  C8_10
REMARK    3  A    between atoms: C8_10  and  C9_11
REMARK    4  A    between atoms: C9_11  and  N2_12
REMARK    5  A    between atoms: N3_15  and  C12_16
REMARK    6  A    between atoms: C15_20  and  C16_21
REMARK    7  A    between atoms: C18_28  and  S1_29
REMARK    8  A    between atoms: S1_29  and  C19_32
ROOT
HETATM    1  C12 UNL     1     -11.861  22.578  54.937  1.00  0.00     0.094 A
HETATM    2  C13 UNL     1     -12.154  21.200  55.030  1.00  0.00     0.145 A
HETATM    3  F1  UNL     1     -11.714  20.460  56.079  1.00  0.00    -0.204 F
HETATM    4  C14 UNL     1     -12.894  20.571  54.060  1.00  0.00     0.062 A
HETATM    5  C15 UNL     1     -13.361  21.280  52.980  1.00  0.00     0.048 A
HETATM    6  C17 UNL     1     -13.081  22.608  52.882  1.00  0.00     0.153 A
HETATM    7  F2  UNL     1     -13.533  23.358  51.844  1.00  0.00    -0.203 F
HETATM    8  C18 UNL     1     -12.316  23.282  53.871  1.00  0.00     0.129 A
ENDROOT
BRANCH   1   9
HETATM    9  N3  UNL     1     -11.130  23.041  56.077  1.00  0.00    -0.371 N
HETATM   10  C11 UNL     1      -9.687  22.945  55.971  1.00  0.00     0.167 C
HETATM   11  C10 UNL     1      -8.893  23.122  57.214  1.00  0.00     0.083 C
HETATM   12  N2  UNL     1      -9.548  23.647  58.328  1.00  0.00    -0.367 N
HETATM   13  C24 UNL     1     -10.702  24.479  58.004  1.00  0.00     0.147 C
HETATM   14  C23 UNL     1     -11.723  23.616  57.240  1.00  0.00     0.143 C
BRANCH  12  15
HETATM   15  C9  UNL     1      -9.632  22.997  59.542  1.00  0.00     0.086 C
BRANCH  15  16
HETATM   16  C8  UNL     1     -10.748  22.178  59.998  1.00  0.00    -0.005 C
BRANCH  16  17
HETATM   17  C7  UNL     1     -11.361  22.188  61.323  1.00  0.00     0.012 C
HETATM   18  C6  UNL     1     -12.490  21.073  61.276  1.00  0.00     0.028 C
HETATM   19  C5  UNL     1     -13.568  21.452  60.335  1.00  0.00     0.126 C
HETATM   20  N1  UNL     1     -14.007  22.831  60.381  1.00  0.00    -0.352 N
HETATM   21  C4  UNL     1     -15.367  23.128  60.137  1.00  0.00     0.223 C
HETATM   22  C26 UNL     1     -13.065  23.888  60.652  1.00  0.00     0.126 C
HETATM   23  O1  UNL     1     -16.095  22.087  59.879  1.00  0.00    -0.273 OA
HETATM   24  C25 UNL     1     -12.156  23.378  61.752  1.00  0.00     0.028 C
BRANCH  21  25
HETATM   25  C2  UNL     1     -16.004  24.457  60.149  1.00  0.00     0.070 C
HETATM   26  C1  UNL     1     -16.000  25.071  58.791  1.00  0.00     0.019 C
HETATM   27  C3  UNL     1     -17.439  24.403  60.677  1.00  0.00     0.019 C
ENDBRANCH  21  25
ENDBRANCH  16  17
ENDBRANCH  15  16
ENDBRANCH  12  15
ENDBRANCH   1   9
BRANCH   8  28
HETATM   28  S1  UNL     1     -11.916  24.929  53.649  1.00  0.00     0.188 S
HETATM   29  O2  UNL     1     -10.397  25.059  53.734  1.00  0.00    -0.222 OA
HETATM   30  O3  UNL     1     -12.255  25.340  52.249  1.00  0.00    -0.222 OA
BRANCH  28  31
HETATM   31  C19 UNL     1     -12.629  26.116  54.708  1.00  0.00     0.058 C
HETATM   32  C20 UNL     1     -13.779  25.682  55.539  1.00  0.00     0.031 C
HETATM   33  C21 UNL     1     -13.214  27.209  53.769  1.00  0.00     0.031 C
HETATM   34  C22 UNL     1     -11.593  26.893  55.520  1.00  0.00     0.031 C
ENDBRANCH  28  31
ENDBRANCH   8  28
BRANCH   5  35
HETATM   35  C16 UNL     1     -14.148  20.610  51.948  1.00  0.00     0.123 C
HETATM   36  N4  UNL     1     -14.900  19.617  52.265  1.00  0.00    -0.387 N
ATOM     37  H42 UNL     1     -14.952  19.292  53.230  1.00  0.00     0.157 HD
ATOM     38  H41 UNL     1     -15.449  19.149  51.544  1.00  0.00     0.157 HD
HETATM   39  N5  UNL     1     -14.076  21.059  50.616  1.00  0.00    -0.082 NA
ENDBRANCH   5  35
TORSDOF 8
ENDMDL