MODEL 2
REMARK VINA RESULT: -7.670293357      0.892      1.779
REMARK  9 active torsions:
REMARK  status: ('A' for Active; 'I' for Inactive)
REMARK    1  A    between atoms: N1_7  and  C7_8
REMARK       I    between atoms: N2_11  and  C10_12
REMARK       I    between atoms: C10_12  and  N3_14
REMARK    2  A    between atoms: N3_14  and  C11_16
REMARK    3  A    between atoms: C11_16  and  C12_17
REMARK    4  A    between atoms: C12_17  and  C13_18
REMARK    5  A    between atoms: N4_22  and  C17_23
REMARK    6  A    between atoms: C17_23  and  C19_25
REMARK    7  A    between atoms: C19_25  and  O2_26
REMARK    8  A    between atoms: C21_31  and  C22_32
REMARK    9  A    between atoms: C22_32  and  C23_33
ROOT
HETATM    1  C11 UNL     1      -9.992  26.226  51.556  1.00  0.00     0.125 C
ENDROOT
BRANCH   1   2
HETATM    2  N3  UNL     1      -8.954  26.079  50.554  1.00  0.00    -0.343 N
HETATM    3  C10 UNL     1      -7.624  25.761  50.976  1.00  0.00     0.318 C
HETATM    4  N2  UNL     1      -6.559  25.598  50.082  1.00  0.00    -0.334 N
HETATM    5  O1  UNL     1      -7.403  25.624  52.211  1.00  0.00    -0.247 OA
HETATM    6  C9  UNL     1      -6.756  25.746  48.667  1.00  0.00     0.129 C
HETATM    7  C24 UNL     1      -5.239  25.271  50.558  1.00  0.00     0.129 C
HETATM    8  C8  UNL     1      -5.486  25.762  47.887  1.00  0.00     0.056 C
HETATM    9  C7  UNL     1      -4.467  24.746  48.271  1.00  0.00     0.226 C
HETATM   10  C25 UNL     1      -4.733  24.171  49.619  1.00  0.00     0.056 C
ATOM     11  H3  UNL     1      -9.169  26.199  49.565  1.00  0.00     0.164 HD
BRANCH   9  12
HETATM   12  N1  UNL     1      -3.152  25.352  48.188  1.00  0.00     0.093 N
HETATM   13  C6  UNL     1      -2.098  24.427  48.525  1.00  0.00     0.277 C
HETATM   14  C4  UNL     1      -0.778  25.097  48.156  1.00  0.00     0.010 C
HETATM   15  C3  UNL     1      -0.684  25.028  46.646  1.00  0.00     0.012 C
HETATM   16  C5  UNL     1       0.393  24.385  48.763  1.00  0.00     0.011 C
HETATM   17  C2  UNL     1      -1.989  25.421  46.001  1.00  0.00     0.010 C
HETATM   18  C1  UNL     1      -2.537  24.267  45.203  1.00  0.00     0.011 C
HETATM   19  C26 UNL     1      -2.969  26.035  46.945  1.00  0.00     0.277 C
ENDBRANCH   9  12
ENDBRANCH   1   2
BRANCH   1  20
HETATM   20  C12 UNL     1     -10.404  24.927  52.158  1.00  0.00     0.027 C
BRANCH  20  21
HETATM   21  C13 UNL     1     -11.126  24.990  53.478  1.00  0.00     0.022 C
HETATM   22  C14 UNL     1     -12.589  24.815  53.174  1.00  0.00     0.006 C
HETATM   23  C15 UNL     1     -13.363  25.903  53.945  1.00  0.00     0.012 C
HETATM   24  C16 UNL     1     -13.244  23.541  53.467  1.00  0.00     0.133 C
HETATM   25  N4  UNL     1     -12.592  22.433  52.749  1.00  0.00    -0.321 N
HETATM   26  C20 UNL     1     -11.276  21.999  53.129  1.00  0.00     0.363 C
HETATM   27  O3  UNL     1     -11.003  20.834  52.811  1.00  0.00    -0.238 OA
HETATM   28  O4  UNL     1     -10.285  22.747  53.813  1.00  0.00    -0.298 OA
HETATM   29  C21 UNL     1     -10.626  23.980  54.465  1.00  0.00     0.140 C
BRANCH  25  30
HETATM   30  C17 UNL     1     -13.284  21.786  51.674  1.00  0.00     0.109 C
HETATM   31  C18 UNL     1     -13.831  22.708  50.637  1.00  0.00     0.034 C
BRANCH  30  32
HETATM   32  C19 UNL     1     -14.312  20.770  52.084  1.00  0.00     0.189 C
BRANCH  32  33
HETATM   33  O2  UNL     1     -13.785  19.560  52.449  1.00  0.00    -0.399 OA
ATOM     34  H2  UNL     1     -12.887  19.429  52.168  1.00  0.00     0.209 HD
ENDBRANCH  32  33
ENDBRANCH  30  32
ENDBRANCH  25  30
BRANCH  29  35
HETATM   35  C22 UNL     1      -9.643  24.469  55.438  1.00  0.00     0.069 C
BRANCH  35  36
HETATM   36  C23 UNL     1     -10.128  24.062  56.847  1.00  0.00     0.180 C
HETATM   37 CL1  UNL     1     -11.820  23.551  56.695  1.00  0.00    -0.108 Cl
HETATM   38 CL2  UNL     1      -9.186  22.722  57.510  1.00  0.00    -0.108 Cl
ENDBRANCH  35  36
ENDBRANCH  29  35
ENDBRANCH  20  21
ENDBRANCH   1  20
TORSDOF 9
ENDMDL