MODEL 1
REMARK VINA RESULT: -7.240956161      0.000      0.000
REMARK  8 active torsions:
REMARK  status: ('A' for Active; 'I' for Inactive)
REMARK    1  A    between atoms: C2_2  and  C3_3
REMARK    2  A    between atoms: C2_2  and  N1_6
REMARK    3  A    between atoms: C3_3  and  O1_4
REMARK    4  A    between atoms: C6_9  and  O2_10
REMARK    5  A    between atoms: O2_10  and  C7_11
REMARK    6  A    between atoms: C9_13  and  O3_14
REMARK    7  A    between atoms: O3_14  and  C10_15
REMARK    8  A    between atoms: C10_15  and  C11_16
ROOT
HETATM    1  C11 UNL     1     -12.418  22.075  52.510  1.00  0.00     0.030 C
HETATM    2  C12 UNL     1     -13.487  22.675  51.593  1.00  0.00     0.027 C
HETATM    3  C13 UNL     1     -14.151  21.529  50.835  1.00  0.00     0.114 C
HETATM    4  N2  UNL     1     -14.564  20.476  51.683  1.00  0.00    -0.420 N
ATOM      5  H2  UNL     1     -15.456  20.008  51.526  1.00  0.00     0.153 HD
HETATM    6  C14 UNL     1     -13.726  20.079  52.751  1.00  0.00     0.133 C
HETATM    7  C15 UNL     1     -13.263  21.319  53.527  1.00  0.00     0.116 C
HETATM    8  C16 UNL     1     -12.583  21.026  54.741  1.00  0.00     0.066 C
HETATM    9  N3  UNL     1     -12.055  20.786  55.739  1.00  0.00    -0.197 NA
ENDROOT
BRANCH   1  10
HETATM   10  C10 UNL     1     -11.536  23.129  53.057  1.00  0.00     0.181 C
BRANCH  10  11
HETATM   11  O3  UNL     1     -12.297  24.239  53.365  1.00  0.00    -0.349 OA
BRANCH  11  12
HETATM   12  C9  UNL     1     -12.435  25.009  54.467  1.00  0.00     0.088 A
HETATM   13  C8  UNL     1     -13.199  24.712  55.577  1.00  0.00     0.076 A
HETATM   14  C7  UNL     1     -13.278  25.559  56.664  1.00  0.00     0.089 A
HETATM   15  C19 UNL     1     -12.559  26.762  56.633  1.00  0.00     0.045 A
HETATM   16  C18 UNL     1     -11.795  27.089  55.561  1.00  0.00     0.044 A
HETATM   17 BR2  UNL     1     -12.667  27.951  58.135  1.00  0.00    -0.048 Br
HETATM   18  C17 UNL     1     -11.737  26.218  54.497  1.00  0.00     0.045 A
HETATM   19 BR1  UNL     1     -10.643  26.666  53.003  1.00  0.00    -0.048 Br
BRANCH  14  20
HETATM   20  O2  UNL     1     -13.999  25.323  57.806  1.00  0.00    -0.344 OA
BRANCH  20  21
HETATM   21  C6  UNL     1     -15.374  25.231  57.994  1.00  0.00     0.132 C
HETATM   22  C5  UNL     1     -15.655  24.234  59.139  1.00  0.00     0.052 C
HETATM   23  C4  UNL     1     -16.279  24.952  60.340  1.00  0.00     0.119 C
HETATM   24  N1  UNL     1     -17.553  25.405  59.932  1.00  0.00    -0.406 N
HETATM   25  C21 UNL     1     -17.559  26.098  58.679  1.00  0.00     0.119 C
HETATM   26  C20 UNL     1     -16.112  26.483  58.284  1.00  0.00     0.052 C
BRANCH  24  27
HETATM   27  C2  UNL     1     -18.519  25.804  60.850  1.00  0.00     0.098 C
HETATM   28  C1  UNL     1     -17.921  26.844  61.807  1.00  0.00     0.034 C
BRANCH  27  29
HETATM   29  C3  UNL     1     -19.766  26.476  60.260  1.00  0.00     0.188 C
BRANCH  29  30
HETATM   30  O1  UNL     1     -20.225  27.531  61.021  1.00  0.00    -0.399 OA
ATOM     31  H1  UNL     1     -20.388  28.315  60.512  1.00  0.00     0.209 HD
ENDBRANCH  29  30
ENDBRANCH  27  29
ENDBRANCH  24  27
ENDBRANCH  20  21
ENDBRANCH  14  20
ENDBRANCH  11  12
ENDBRANCH  10  11
ENDBRANCH   1  10
TORSDOF 8
ENDMDL