MODEL 3
REMARK VINA RESULT: -8.066954161      1.023      1.103
REMARK  8 active torsions:
REMARK  status: ('A' for Active; 'I' for Inactive)
REMARK    1  A    between atoms: C7_7  and  C8_8
REMARK       I    between atoms: C8_8  and  N1_10
REMARK    2  A    between atoms: C10_12  and  S1_13
REMARK    3  A    between atoms: S1_13  and  C11_16
REMARK    4  A    between atoms: C18_25  and  C19_26
REMARK       I    between atoms: C19_26  and  N2_28
REMARK    5  A    between atoms: N2_28  and  C20_30
REMARK    6  A    between atoms: C20_30  and  C23_33
REMARK    7  A    between atoms: C23_33  and  C24_34
REMARK    8  A    between atoms: C24_34  and  C25_35
ROOT
HETATM    1  C8  UNL     1     -12.427  23.790  52.403  1.00  0.00     0.229 C
HETATM    2  O1  UNL     1     -11.814  23.907  51.341  1.00  0.00    -0.272 OA
HETATM    3  N1  UNL     1     -12.466  25.023  53.169  1.00  0.00    -0.337 N
HETATM    4  C9  UNL     1     -13.232  25.075  54.415  1.00  0.00     0.147 C
HETATM    5  C10 UNL     1     -12.980  26.424  55.023  1.00  0.00     0.134 C
HETATM    6  C17 UNL     1     -11.768  26.938  54.300  1.00  0.00     0.057 C
HETATM    7  C18 UNL     1     -11.889  26.273  52.925  1.00  0.00     0.180 C
ENDROOT
BRANCH   5   8
HETATM    8  S1  UNL     1     -12.641  26.287  56.766  1.00  0.00     0.181 S
HETATM    9  O2  UNL     1     -11.527  25.275  56.948  1.00  0.00    -0.222 OA
HETATM   10  O3  UNL     1     -12.200  27.638  57.257  1.00  0.00    -0.222 OA
BRANCH   8  11
HETATM   11  C11 UNL     1     -14.070  25.739  57.580  1.00  0.00     0.065 A
HETATM   12  C12 UNL     1     -14.028  24.561  58.304  1.00  0.00     0.065 A
HETATM   13  C13 UNL     1     -15.165  24.106  58.963  1.00  0.00     0.120 A
HETATM   14  F1  UNL     1     -15.055  22.951  59.651  1.00  0.00    -0.206 F
HETATM   15  C14 UNL     1     -16.320  24.842  58.879  1.00  0.00     0.084 A
HETATM   16  C15 UNL     1     -16.355  26.025  58.151  1.00  0.00     0.120 A
HETATM   17  F2  UNL     1     -17.494  26.741  58.080  1.00  0.00    -0.206 F
HETATM   18  C16 UNL     1     -15.240  26.486  57.495  1.00  0.00     0.065 A
ENDBRANCH   8  11
ENDBRANCH   5   8
BRANCH   7  19
HETATM   19  C19 UNL     1     -10.546  26.357  52.354  1.00  0.00     0.241 C
HETATM   20  O4  UNL     1      -9.489  26.290  53.002  1.00  0.00    -0.271 OA
HETATM   21  N2  UNL     1     -10.445  26.529  50.931  1.00  0.00    -0.351 N
ATOM     22  H2  UNL     1     -11.295  26.586  50.371  1.00  0.00     0.163 HD
BRANCH  21  23
HETATM   23  C20 UNL     1      -9.153  26.621  50.283  1.00  0.00     0.025 C
HETATM   24  C21 UNL     1      -9.416  26.628  48.777  1.00  0.00     0.038 C
HETATM   25  C22 UNL     1      -8.268  25.446  50.591  1.00  0.00     0.038 C
BRANCH  23  26
HETATM   26  C23 UNL     1      -8.497  27.928  50.595  1.00  0.00     0.031 C
BRANCH  26  27
HETATM   27  C24 UNL     1      -8.053  28.680  49.374  1.00  0.00     0.013 C
BRANCH  27  28
HETATM   28  C25 UNL     1      -6.526  28.837  49.436  1.00  0.00     0.086 C
HETATM   29  S2  UNL     1      -5.708  27.747  48.243  1.00  0.00    -0.098 SA
ENDBRANCH  27  28
ENDBRANCH  26  27
ENDBRANCH  23  26
ENDBRANCH  21  23
ENDBRANCH   7  19
BRANCH   1  30
HETATM   30  C7  UNL     1     -13.100  22.659  53.015  1.00  0.00     0.046 A
HETATM   31  C5  UNL     1     -12.804  21.174  52.684  1.00  0.00     0.005 A
HETATM   32  C4  UNL     1     -11.411  21.244  53.066  1.00  0.00     0.014 C
HETATM   33  C6  UNL     1     -13.828  21.889  52.050  1.00  0.00     0.025 A
HETATM   34  C2  UNL     1     -11.561  21.704  54.513  1.00  0.00    -0.046 C
HETATM   35  C1  UNL     1     -11.850  20.512  55.420  1.00  0.00     0.015 C
HETATM   36  C3  UNL     1     -10.419  22.435  55.049  1.00  0.00     0.015 C
HETATM   37  C26 UNL     1     -12.864  22.519  54.459  1.00  0.00     0.028 C
ENDBRANCH   1  30
TORSDOF 8
ENDMDL