MODEL 1
REMARK VINA RESULT: -6.899800655      0.000      0.000
REMARK  10 active torsions:
REMARK  status: ('A' for Active; 'I' for Inactive)
REMARK    1  A    between atoms: C5_7  and  C6_8
REMARK       I    between atoms: C6_8  and  N2_10
REMARK    2  A    between atoms: N2_10  and  C7_12
REMARK    3  A    between atoms: C7_12  and  C8_13
REMARK    4  A    between atoms: C8_13  and  O2_14
REMARK    5  A    between atoms: O2_14  and  C9_15
REMARK    6  A    between atoms: C12_20  and  C13_21
REMARK       I    between atoms: C13_21  and  N3_23
REMARK    7  A    between atoms: N3_23  and  C14_25
REMARK    8  A    between atoms: C15_28  and  C16_29
REMARK    9  A    between atoms: C16_29  and  C17_30
REMARK   10  A    between atoms: C17_30  and  C18_31
ROOT
HETATM    1  C1  UNL     1     -13.168  19.754  53.672  1.00  0.00     0.069 C
HETATM    2  C2  UNL     1     -13.144  21.277  53.580  1.00  0.00     0.019 C
HETATM    3  N1  UNL     1     -13.456  21.853  52.502  1.00  0.00    -0.362 N
ATOM      4  H1  UNL     1     -13.730  21.267  51.713  1.00  0.00     0.165 HD
HETATM    5  C3  UNL     1     -13.453  23.256  52.311  1.00  0.00     0.019 C
HETATM    6  C4  UNL     1     -13.861  23.834  50.996  1.00  0.00     0.069 C
HETATM    7  C5  UNL     1     -13.087  24.033  53.303  1.00  0.00     0.055 C
HETATM    8  C11 UNL     1     -12.550  23.445  54.569  1.00  0.00     0.163 C
HETATM    9 CL1  UNL     1     -10.792  23.802  54.671  1.00  0.00    -0.114 Cl
HETATM   10  C12 UNL     1     -12.880  22.043  54.792  1.00  0.00     0.055 C
ENDROOT
BRANCH  10  11
HETATM   11  C13 UNL     1     -12.051  21.350  55.804  1.00  0.00     0.257 C
HETATM   12  O3  UNL     1     -10.962  20.845  55.459  1.00  0.00    -0.267 OA
HETATM   13  N3  UNL     1     -12.403  21.209  57.169  1.00  0.00    -0.302 N
ATOM     14  H3  UNL     1     -12.649  20.287  57.530  1.00  0.00     0.171 HD
BRANCH  13  15
HETATM   15  C14 UNL     1     -12.419  22.243  57.978  1.00  0.00     0.169 A
HETATM   16  N4  UNL     1     -13.444  22.713  58.655  1.00  0.00    -0.325 N
HETATM   17  C15 UNL     1     -13.315  23.754  59.413  1.00  0.00     0.089 A
ATOM     18  H4  UNL     1     -14.351  22.252  58.581  1.00  0.00     0.169 HD
HETATM   19  N5  UNL     1     -12.076  24.321  59.465  1.00  0.00    -0.313 N
HETATM   20  S1  UNL     1     -11.191  23.332  58.435  1.00  0.00     0.024 SA
ATOM     21  H5  UNL     1     -11.766  25.136  59.994  1.00  0.00     0.175 HD
BRANCH  17  22
HETATM   22  C16 UNL     1     -14.462  24.317  60.218  1.00  0.00     0.078 C
BRANCH  22  23
HETATM   23  C17 UNL     1     -15.774  24.256  59.579  1.00  0.00     0.016 C
BRANCH  23  24
HETATM   24  C18 UNL     1     -16.706  25.403  59.680  1.00  0.00    -0.051 C
HETATM   25  C19 UNL     1     -18.030  24.963  60.319  1.00  0.00     0.014 C
HETATM   26  C20 UNL     1     -16.928  26.231  58.482  1.00  0.00     0.014 C
HETATM   27  C21 UNL     1     -16.100  26.352  60.764  1.00  0.00     0.014 C
ENDBRANCH  23  24
ENDBRANCH  22  23
ENDBRANCH  17  22
ENDBRANCH  13  15
ENDBRANCH  10  11
BRANCH   7  28
HETATM   28  C6  UNL     1     -13.070  25.521  53.181  1.00  0.00     0.251 C
HETATM   29  O1  UNL     1     -12.382  26.114  52.323  1.00  0.00    -0.268 OA
HETATM   30  N2  UNL     1     -13.837  26.353  54.037  1.00  0.00    -0.355 N
ATOM     31  H2  UNL     1     -14.413  25.887  54.737  1.00  0.00     0.162 HD
BRANCH  30  32
HETATM   32  C7  UNL     1     -13.880  27.780  54.012  1.00  0.00     0.149 C
BRANCH  32  33
HETATM   33  C8  UNL     1     -13.572  28.528  55.247  1.00  0.00     0.189 C
BRANCH  33  34
HETATM   34  O2  UNL     1     -13.779  27.945  56.453  1.00  0.00    -0.374 OA
BRANCH  34  35
HETATM   35  C9  UNL     1     -12.612  27.949  57.209  1.00  0.00     0.188 C
HETATM   36  C10 UNL     1     -11.706  26.787  56.832  1.00  0.00     0.052 C
HETATM   37 BR1  UNL     1     -13.041  27.883  59.104  1.00  0.00    -0.062 Br
ENDBRANCH  34  35
ENDBRANCH  33  34
ENDBRANCH  32  33
ENDBRANCH  30  32
ENDBRANCH   7  28
TORSDOF 10
ENDMDL