MODEL 1
REMARK VINA RESULT: -7.413667273      0.000      0.000
REMARK  9 active torsions:
REMARK  status: ('A' for Active; 'I' for Inactive)
REMARK    1  A    between atoms: O1_1  and  C1_3
REMARK    2  A    between atoms: C1_3  and  C2_4
REMARK    3  A    between atoms: C2_4  and  N1_5
REMARK    4  A    between atoms: N2_8  and  C5_9
REMARK    5  A    between atoms: C5_9  and  C6_10
REMARK    6  A    between atoms: C6_10  and  O2_11
REMARK    7  A    between atoms: C6_10  and  C7_13
REMARK    8  A    between atoms: C7_13  and  O3_14
REMARK    9  A    between atoms: O3_14  and  C8_15
ROOT
HETATM    1  C6  UNL     1     -11.094  25.815  52.345  1.00  0.00     0.160 C
ENDROOT
BRANCH   1   2
HETATM    2  C5  UNL     1     -10.066  26.923  52.382  1.00  0.00     0.150 C
BRANCH   2   3
HETATM    3  N2  UNL     1      -9.394  26.978  51.115  1.00  0.00    -0.407 N
HETATM    4  C4  UNL     1      -9.255  25.721  50.456  1.00  0.00     0.136 C
HETATM    5  C3  UNL     1      -7.804  25.375  50.153  1.00  0.00     0.137 C
HETATM    6  N1  UNL     1      -7.256  26.404  49.345  1.00  0.00    -0.399 N
HETATM    7  C18 UNL     1      -7.581  27.740  49.690  1.00  0.00     0.137 C
HETATM    8  C17 UNL     1      -8.270  27.851  51.051  1.00  0.00     0.136 C
BRANCH   6   9
HETATM    9  C2  UNL     1      -5.917  26.189  48.898  1.00  0.00     0.049 C
HETATM   10  C19 UNL     1      -5.624  24.704  48.892  1.00  0.00     0.033 C
HETATM   11  C20 UNL     1      -4.097  24.655  48.902  1.00  0.00     0.002 C
HETATM   12  C21 UNL     1      -3.657  25.956  49.496  1.00  0.00     0.002 C
HETATM   13  C22 UNL     1      -4.934  26.683  49.915  1.00  0.00     0.033 C
BRANCH   9  14
HETATM   14  C1  UNL     1      -5.595  26.791  47.577  1.00  0.00     0.195 C
BRANCH  14  15
HETATM   15  O1  UNL     1      -6.231  26.108  46.515  1.00  0.00    -0.398 OA
ATOM     16  H1  UNL     1      -6.662  25.315  46.809  1.00  0.00     0.209 HD
ENDBRANCH  14  15
ENDBRANCH   9  14
ENDBRANCH   6   9
ENDBRANCH   2   3
ENDBRANCH   1   2
BRANCH   1  17
HETATM   17  O2  UNL     1     -12.398  26.352  52.385  1.00  0.00    -0.392 OA
ATOM     18  H2  UNL     1     -12.885  26.096  51.612  1.00  0.00     0.210 HD
ENDBRANCH   1  17
BRANCH   1  19
HETATM   19  C7  UNL     1     -10.999  24.939  53.584  1.00  0.00     0.209 C
BRANCH  19  20
HETATM   20  O3  UNL     1     -10.569  23.664  53.169  1.00  0.00    -0.346 OA
BRANCH  20  21
HETATM   21  C8  UNL     1     -11.338  22.534  53.232  1.00  0.00     0.098 A
HETATM   22  C9  UNL     1     -11.201  21.675  54.300  1.00  0.00     0.046 A
HETATM   23 BR1  UNL     1      -9.949  22.055  55.689  1.00  0.00    -0.048 Br
HETATM   24  C10 UNL     1     -11.956  20.513  54.413  1.00  0.00     0.043 A
HETATM   25  C11 UNL     1     -12.873  20.217  53.416  1.00  0.00     0.040 A
HETATM   26 BR2  UNL     1     -13.904  18.601  53.593  1.00  0.00    -0.049 Br
HETATM   27  C12 UNL     1     -13.028  21.052  52.346  1.00  0.00     0.062 A
HETATM   28  N3  UNL     1     -13.933  20.713  51.410  1.00  0.00    -0.364 N
HETATM   29  C16 UNL     1     -12.255  22.214  52.259  1.00  0.00     0.027 A
HETATM   30  C13 UNL     1     -14.104  21.521  50.348  1.00  0.00     0.088 A
ATOM     31  H3  UNL     1     -14.481  19.858  51.504  1.00  0.00     0.165 HD
HETATM   32  C14 UNL     1     -13.372  22.680  50.207  1.00  0.00     0.018 A
HETATM   33  C15 UNL     1     -12.447  23.018  51.171  1.00  0.00     0.018 A
ENDBRANCH  20  21
ENDBRANCH  19  20
ENDBRANCH   1  19
TORSDOF 9
ENDMDL