MODEL 2
REMARK VINA RESULT: -7.378041432      1.937      7.533
REMARK  9 active torsions:
REMARK  status: ('A' for Active; 'I' for Inactive)
REMARK    1  A    between atoms: C2_2  and  C5_5
REMARK    2  A    between atoms: C5_5  and  C6_6
REMARK    3  A    between atoms: C6_6  and  O1_7
REMARK    4  A    between atoms: C6_6  and  C21_28
REMARK    5  A    between atoms: O1_7  and  C7_8
REMARK    6  A    between atoms: C13_17  and  C14_18
REMARK    7  A    between atoms: N3_22  and  O3_23
REMARK       I    between atoms: C21_28  and  N4_30
REMARK    8  A    between atoms: N4_30  and  C22_32
REMARK    9  A    between atoms: C22_32  and  C23_33
ROOT
HETATM    1  C7  UNL     1     -12.523  27.232  56.326  1.00  0.00     0.158 C
HETATM    2  C8  UNL     1     -12.679  28.742  56.244  1.00  0.00     0.064 C
HETATM    3  C9  UNL     1     -11.586  29.178  55.329  1.00  0.00     0.278 C
HETATM    4  N1  UNL     1     -10.660  28.038  55.241  1.00  0.00     0.119 N
HETATM    5  C10 UNL     1     -11.528  26.912  55.250  1.00  0.00     0.263 C
HETATM    6  C11 UNL     1     -12.244  26.682  53.955  1.00  0.00     0.141 C
HETATM    7  C12 UNL     1     -11.329  26.790  52.788  1.00  0.00     0.224 C
HETATM    8  O2  UNL     1     -11.601  26.135  51.759  1.00  0.00    -0.273 OA
HETATM    9  N2  UNL     1     -10.204  27.618  52.881  1.00  0.00    -0.315 N
HETATM   10  C13 UNL     1      -9.180  28.094  52.006  1.00  0.00     0.109 C
HETATM   11  C18 UNL     1      -7.910  27.940  52.854  1.00  0.00     0.031 C
HETATM   12  C19 UNL     1      -8.395  27.803  54.280  1.00  0.00     0.059 C
HETATM   13  C20 UNL     1      -9.818  28.258  54.157  1.00  0.00     0.327 C
ENDROOT
BRANCH   1  14
HETATM   14  O1  UNL     1     -13.743  26.631  56.227  1.00  0.00    -0.369 OA
BRANCH  14  15
HETATM   15  C6  UNL     1     -14.046  25.832  57.409  1.00  0.00     0.214 C
BRANCH  15  16
HETATM   16  C5  UNL     1     -15.513  25.958  57.618  1.00  0.00     0.050 C
BRANCH  16  17
HETATM   17  C2  UNL     1     -16.098  25.880  58.961  1.00  0.00    -0.049 C
HETATM   18  C1  UNL     1     -15.546  26.824  59.987  1.00  0.00     0.014 C
HETATM   19  C3  UNL     1     -16.243  24.505  59.545  1.00  0.00     0.014 C
HETATM   20  C4  UNL     1     -17.605  26.364  58.837  1.00  0.00     0.014 C
ENDBRANCH  16  17
ENDBRANCH  15  16
BRANCH  15  21
HETATM   21  C21 UNL     1     -13.539  24.504  57.083  1.00  0.00     0.246 C
HETATM   22  O4  UNL     1     -13.085  23.764  58.022  1.00  0.00    -0.271 OA
HETATM   23  N4  UNL     1     -13.500  23.911  55.777  1.00  0.00    -0.358 N
ATOM     24  H4  UNL     1     -13.848  24.441  54.977  1.00  0.00     0.162 HD
BRANCH  23  25
HETATM   25  C22 UNL     1     -12.984  22.590  55.573  1.00  0.00     0.133 C
BRANCH  25  26
HETATM   26  C23 UNL     1     -12.171  22.350  54.362  1.00  0.00     0.076 C
HETATM   27  C24 UNL     1     -12.946  22.876  53.152  1.00  0.00     0.012 C
HETATM   28  C25 UNL     1     -13.534  21.845  52.274  1.00  0.00     0.001 C
HETATM   29  C26 UNL     1     -13.766  20.481  52.791  1.00  0.00     0.006 C
HETATM   30  C27 UNL     1     -12.970  20.049  53.973  1.00  0.00     0.079 C
HETATM   31  C28 UNL     1     -11.755  20.942  54.097  1.00  0.00     0.248 C
HETATM   32  F1  UNL     1     -10.786  20.451  54.936  1.00  0.00    -0.206 F
HETATM   33  F2  UNL     1     -11.183  20.937  52.806  1.00  0.00    -0.206 F
ENDBRANCH  25  26
ENDBRANCH  23  25
ENDBRANCH  15  21
ENDBRANCH  14  15
ENDBRANCH   1  14
BRANCH  10  34
HETATM   34  C14 UNL     1      -8.954  27.352  50.748  1.00  0.00     0.109 C
HETATM   35  C15 UNL     1      -7.563  27.766  50.235  1.00  0.00     0.025 C
HETATM   36  C16 UNL     1      -7.809  29.174  49.778  1.00  0.00     0.018 C
HETATM   37  C17 UNL     1      -9.233  29.120  49.269  1.00  0.00     0.121 C
HETATM   38  N3  UNL     1      -9.748  27.827  49.614  1.00  0.00    -0.193 NA
BRANCH  38  39
HETATM   39  O3  UNL     1      -9.715  26.931  48.625  1.00  0.00    -0.313 OA
ATOM     40  H3  UNL     1      -9.664  27.372  47.786  1.00  0.00     0.237 HD
ENDBRANCH  38  39
ENDBRANCH  10  34
TORSDOF 9
ENDMDL