MODEL 1
REMARK VINA RESULT: -8.460248358      0.000      0.000
REMARK  11 active torsions:
REMARK  status: ('A' for Active; 'I' for Inactive)
REMARK    1  A    between atoms: N2_5  and  C4_6
REMARK    2  A    between atoms: C4_6  and  C5_7
REMARK    3  A    between atoms: C7_9  and  N3_10
REMARK    4  A    between atoms: N3_10  and  C8_12
REMARK    5  A    between atoms: C8_12  and  O1_13
REMARK    6  A    between atoms: C8_12  and  C9_15
REMARK    7  A    between atoms: C9_15  and  C10_16
REMARK    8  A    between atoms: C10_16  and  C11_17
REMARK    9  A    between atoms: C11_17  and  N4_18
REMARK   10  A    between atoms: C18_27  and  N5_28
REMARK   11  A    between atoms: C21_31  and  N6_32
ROOT
HETATM    1  C5  UNL     1     -11.397  24.220  54.218  1.00  0.00    -0.025 A
HETATM    2  C6  UNL     1     -12.613  24.908  54.403  1.00  0.00     0.039 A
HETATM    3  C7  UNL     1     -12.945  26.014  53.684  1.00  0.00     0.036 A
HETATM    4  C17 UNL     1     -12.016  26.464  52.722  1.00  0.00     0.058 A
HETATM    5  C18 UNL     1     -10.820  25.825  52.509  1.00  0.00     0.033 A
HETATM    6  C23 UNL     1     -10.550  24.711  53.274  1.00  0.00     0.039 A
ENDROOT
BRANCH   3   7
HETATM    7  N3  UNL     1     -14.143  26.756  53.872  1.00  0.00    -0.337 N
ATOM      8  H3  UNL     1     -14.901  26.554  53.219  1.00  0.00     0.168 HD
BRANCH   7   9
HETATM    9  C8  UNL     1     -14.412  27.721  54.834  1.00  0.00     0.140 C
BRANCH   9  10
HETATM   10  O1  UNL     1     -15.061  28.755  54.372  1.00  0.00    -0.346 OA
ATOM     11  H1  UNL     1     -15.255  29.410  55.033  1.00  0.00     0.219 HD
ENDBRANCH   9  10
BRANCH   9  12
HETATM   12  C9  UNL     1     -14.107  27.786  56.227  1.00  0.00     0.053 C
BRANCH  12  13
HETATM   13  C10 UNL     1     -14.029  26.958  57.196  1.00  0.00     0.007 C
BRANCH  13  14
HETATM   14  C11 UNL     1     -14.724  25.716  57.418  1.00  0.00     0.300 C
BRANCH  14  15
HETATM   15  N4  UNL     1     -14.805  25.415  58.864  1.00  0.00     0.092 N
HETATM   16  C12 UNL     1     -15.555  24.178  58.982  1.00  0.00     0.278 C
HETATM   17  C13 UNL     1     -16.304  24.118  60.299  1.00  0.00     0.109 C
HETATM   18  C14 UNL     1     -17.355  25.203  60.387  1.00  0.00     0.246 C
HETATM   19  F1  UNL     1     -18.628  24.696  60.265  1.00  0.00    -0.206 F
HETATM   20  F2  UNL     1     -17.221  25.814  61.617  1.00  0.00    -0.206 F
HETATM   21  C15 UNL     1     -17.058  26.259  59.344  1.00  0.00     0.109 C
HETATM   22  C16 UNL     1     -15.557  26.534  59.417  1.00  0.00     0.278 C
ENDBRANCH  14  15
ENDBRANCH  13  14
ENDBRANCH  12  13
ENDBRANCH   9  12
ENDBRANCH   7   9
ENDBRANCH   3   7
BRANCH   1  23
HETATM   23  C4  UNL     1     -11.172  23.030  55.058  1.00  0.00     0.063 C
HETATM   24  C24 UNL     1      -9.704  23.141  55.498  1.00  0.00     0.036 C
HETATM   25  C25 UNL     1      -9.515  24.497  56.117  1.00  0.00     0.003 C
HETATM   26  C26 UNL     1     -10.486  24.742  57.234  1.00  0.00     0.000 C
HETATM   27  C27 UNL     1     -11.458  23.654  57.490  1.00  0.00     0.003 C
HETATM   28  C28 UNL     1     -12.008  22.958  56.274  1.00  0.00     0.036 C
BRANCH  23  29
HETATM   29  N2  UNL     1     -11.321  21.853  54.273  1.00  0.00    -0.356 N
HETATM   30  C3  UNL     1     -11.765  20.692  54.919  1.00  0.00     0.094 C
HETATM   31  C2  UNL     1     -12.997  20.116  54.297  1.00  0.00     0.317 C
HETATM   32  N1  UNL     1     -12.963  20.120  52.844  1.00  0.00     0.093 N
HETATM   33  C1  UNL     1     -14.313  19.763  52.411  1.00  0.00     0.310 C
HETATM   34  C30 UNL     1     -12.718  21.462  52.361  1.00  0.00     0.317 C
HETATM   35  C29 UNL     1     -11.379  21.968  52.890  1.00  0.00     0.094 C
ENDBRANCH  23  29
ENDBRANCH   1  23
BRANCH   5  36
HETATM   36  N5  UNL     1      -9.917  26.315  51.528  1.00  0.00    -0.379 N
HETATM   37  C19 UNL     1      -9.547  27.699  51.312  1.00  0.00     0.125 C
HETATM   38  C20 UNL     1      -9.548  27.807  49.782  1.00  0.00     0.054 C
HETATM   39  C21 UNL     1      -9.269  26.411  49.299  1.00  0.00     0.202 C
HETATM   40  C22 UNL     1      -9.168  25.564  50.544  1.00  0.00     0.155 C
BRANCH  39  41
HETATM   41  N6  UNL     1      -8.008  26.369  48.548  1.00  0.00    -0.073 N
ATOM     42  H63 UNL     1      -7.555  25.458  48.616  1.00  0.00     0.274 HD
ATOM     43  H62 UNL     1      -8.166  26.386  47.541  1.00  0.00     0.274 HD
ATOM     44  H61 UNL     1      -7.390  27.123  48.848  1.00  0.00     0.274 HD
ENDBRANCH  39  41
ENDBRANCH   5  36
TORSDOF 11
ENDMDL