MODEL 2
REMARK VINA RESULT: -7.746723432      2.014      4.269
REMARK  5 active torsions:
REMARK  status: ('A' for Active; 'I' for Inactive)
REMARK    1  A    between atoms: C3_3  and  C4_4
REMARK    2  A    between atoms: C4_4  and  N1_5
REMARK    3  A    between atoms: N2_15  and  C12_17
REMARK    4  A    between atoms: C12_17  and  C13_18
REMARK    5  A    between atoms: C13_18  and  C14_19
ROOT
HETATM    1  C1  UNL     1     185.724  26.132 520.692  1.00  0.00     0.112 C
HETATM    2  C2  UNL     1     185.930  25.577 522.042  1.00  0.00    -0.109 C
HETATM    3  C3  UNL     1     186.092  25.143 523.152  1.00  0.00    -0.087 C
ENDROOT
BRANCH   3   4
HETATM    4  C4  UNL     1     186.280  24.635 524.508  1.00  0.00     0.218 C
BRANCH   4   5
HETATM    5  N1  UNL     1     186.168  25.754 525.454  1.00  0.00    -0.358 N
HETATM    6  C5  UNL     1     187.359  26.574 525.581  1.00  0.00     0.151 C
HETATM    7  C6  UNL     1     187.083  27.986 525.983  1.00  0.00     0.187 C
HETATM    8  O1  UNL     1     187.720  28.370 527.167  1.00  0.00    -0.387 OA
HETATM    9  C7  UNL     1     186.841  28.931 528.076  1.00  0.00     0.193 C
HETATM   10  C8  UNL     1     186.561  27.924 529.186  1.00  0.00     0.193 C
HETATM   11  O2  UNL     1     186.925  26.685 528.732  1.00  0.00    -0.389 OA
HETATM   12  C9  UNL     1     185.917  25.808 528.462  1.00  0.00     0.175 C
HETATM   13  C10 UNL     1     184.812  26.287 527.592  1.00  0.00     0.102 C
HETATM   14  C11 UNL     1     184.944  25.954 526.152  1.00  0.00     0.081 C
HETATM   15  N2  UNL     1     183.877  25.824 525.426  1.00  0.00    -0.359 N
ATOM     16  H2  UNL     1     184.044  25.596 524.445  1.00  0.00     0.166 HD
BRANCH  15  17
HETATM   17  C12 UNL     1     182.523  25.952 525.790  1.00  0.00     0.062 C
BRANCH  17  18
HETATM   18  C13 UNL     1     181.729  26.832 524.849  1.00  0.00     0.051 C
BRANCH  18  19
HETATM   19  C14 UNL     1     180.793  27.730 525.595  1.00  0.00     0.016 C
HETATM   20  C15 UNL     1     179.852  28.403 524.650  1.00  0.00     0.008 C
HETATM   21  C16 UNL     1     179.217  29.576 525.383  1.00  0.00     0.028 C
HETATM   22  C17 UNL     1     180.268  30.577 525.727  1.00  0.00     0.232 C
HETATM   23  N3  UNL     1     181.590  29.993 525.879  1.00  0.00    -0.075 N
HETATM   24  C18 UNL     1     181.515  28.685 526.514  1.00  0.00     0.237 C
ATOM     25  H32 UNL     1     182.087  29.950 524.989  1.00  0.00     0.277 HD
ATOM     26  H31 UNL     1     182.222  30.618 526.380  1.00  0.00     0.277 HD
ENDBRANCH  18  19
ENDBRANCH  17  18
ENDBRANCH  15  17
ENDBRANCH   4   5
ENDBRANCH   3   4
TORSDOF 5
ENDMDL