MODEL 4
REMARK VINA RESULT: -7.224310421      1.052      1.941
REMARK  6 active torsions:
REMARK  status: ('A' for Active; 'I' for Inactive)
REMARK    1  A    between atoms: C2_2  and  C3_3
REMARK    2  A    between atoms: C3_3  and  S1_4
REMARK    3  A    between atoms: S1_4  and  N1_7
REMARK    4  A    between atoms: N2_15  and  N3_17
REMARK    5  A    between atoms: N3_17  and  C11_19
REMARK    6  A    between atoms: C11_19  and  N4_21
ROOT
HETATM    1  C3  UNL     1     184.446  26.902 523.891  1.00  0.00     0.217 C
ENDROOT
BRANCH   1   2
HETATM    2  C2  UNL     1     185.413  25.845 524.206  1.00  0.00     0.015 C
HETATM    3  C1  UNL     1     185.431  24.591 523.413  1.00  0.00     0.066 C
HETATM    4  N2  UNL     1     186.254  25.963 525.161  1.00  0.00    -0.306 N
ATOM      5  H2  UNL     1     186.906  25.202 525.351  1.00  0.00     0.186 HD
BRANCH   4   6
HETATM    6  N3  UNL     1     186.295  27.103 525.942  1.00  0.00    -0.276 N
ATOM      7  H3  UNL     1     186.217  28.015 525.490  1.00  0.00     0.189 HD
BRANCH   6   8
HETATM    8  C11 UNL     1     186.443  27.043 527.340  1.00  0.00     0.188 C
HETATM    9  S2  UNL     1     185.994  25.606 528.038  1.00  0.00    -0.039 SA
BRANCH   8  10
HETATM   10  N4  UNL     1     186.922  28.063 528.163  1.00  0.00    -0.366 N
HETATM   11  C12 UNL     1     187.085  29.425 527.739  1.00  0.00     0.151 C
HETATM   12  C13 UNL     1     187.290  27.751 529.552  1.00  0.00     0.151 C
ENDBRANCH   8  10
ENDBRANCH   6   8
ENDBRANCH   4   6
ENDBRANCH   1   2
BRANCH   1  13
HETATM   13  S1  UNL     1     183.100  26.766 525.078  1.00  0.00     0.237 S
HETATM   14  O1  UNL     1     181.868  26.422 524.291  1.00  0.00    -0.205 OA
HETATM   15  O2  UNL     1     183.454  25.650 525.997  1.00  0.00    -0.205 OA
BRANCH  13  16
HETATM   16  N1  UNL     1     182.933  28.250 525.846  1.00  0.00    -0.290 N
HETATM   17  C4  UNL     1     183.342  29.385 525.145  1.00  0.00     0.076 C
HETATM   18  C5  UNL     1     182.633  30.658 525.424  1.00  0.00     0.045 C
HETATM   19  C6  UNL     1     181.379  30.848 524.618  1.00  0.00     0.005 C
HETATM   20  C7  UNL     1     180.147  31.003 525.456  1.00  0.00     0.000 C
HETATM   21  C8  UNL     1     180.129  30.121 526.674  1.00  0.00     0.002 C
HETATM   22  C9  UNL     1     180.569  28.733 526.290  1.00  0.00     0.021 C
HETATM   23  C10 UNL     1     181.926  28.373 526.827  1.00  0.00     0.140 C
ENDBRANCH  13  16
ENDBRANCH   1  13
TORSDOF 6
ENDMDL