MODEL 3
REMARK VINA RESULT: -7.800180773      1.457      1.751
REMARK  7 active torsions:
REMARK  status: ('A' for Active; 'I' for Inactive)
REMARK    1  A    between atoms: O1_1  and  C1_3
REMARK    2  A    between atoms: C1_3  and  N3_20
REMARK    3  A    between atoms: C2_4  and  N1_5
REMARK    4  A    between atoms: C5_8  and  C6_9
REMARK    5  A    between atoms: C6_9  and  O2_10
REMARK    6  A    between atoms: C6_9  and  N2_12
REMARK    7  A    between atoms: N3_20  and  C13_22
ROOT
HETATM    1  N1  UNL     1     181.335  28.615 525.225  1.00  0.00    -0.386 N
HETATM    2  C3  UNL     1     181.730  28.215 523.916  1.00  0.00     0.123 C
HETATM    3  C4  UNL     1     183.016  27.520 523.721  1.00  0.00     0.032 C
HETATM    4  C5  UNL     1     183.795  27.518 525.017  1.00  0.00     0.063 C
HETATM    5  C11 UNL     1     182.885  26.823 525.995  1.00  0.00     0.032 C
HETATM    6  C12 UNL     1     181.784  27.822 526.303  1.00  0.00     0.123 C
ENDROOT
BRANCH   1   7
HETATM    7  C2  UNL     1     181.290  30.016 525.410  1.00  0.00     0.141 C
HETATM    8  C1  UNL     1     180.654  30.615 526.539  1.00  0.00     0.151 C
BRANCH   8   9
HETATM    9  O1  UNL     1     180.736  31.914 526.592  1.00  0.00    -0.345 OA
ATOM     10  H1  UNL     1     180.834  32.345 525.751  1.00  0.00     0.219 HD
ENDBRANCH   8   9
BRANCH   8  11
HETATM   11  N3  UNL     1     179.960  30.025 527.590  1.00  0.00    -0.365 N
ATOM     12  H3  UNL     1     179.876  29.009 527.637  1.00  0.00     0.162 HD
BRANCH  11  13
HETATM   13  C13 UNL     1     179.347  30.860 528.631  1.00  0.00     0.083 C
HETATM   14  C14 UNL     1     179.943  30.642 529.983  1.00  0.00     0.025 C
HETATM   15  C15 UNL     1     178.565  30.309 530.516  1.00  0.00     0.004 C
HETATM   16  C16 UNL     1     178.080  30.180 529.106  1.00  0.00     0.025 C
ENDBRANCH  11  13
ENDBRANCH   8  11
ENDBRANCH   1   7
BRANCH   4  17
HETATM   17  C6  UNL     1     185.164  27.041 524.948  1.00  0.00     0.117 C
BRANCH  17  18
HETATM   18  O2  UNL     1     185.597  26.724 523.745  1.00  0.00    -0.349 OA
ATOM     19  H2  UNL     1     185.920  27.447 523.220  1.00  0.00     0.219 HD
ENDBRANCH  17  18
BRANCH  17  20
HETATM   20  N2  UNL     1     186.125  26.852 525.944  1.00  0.00    -0.364 N
HETATM   21  C7  UNL     1     186.455  25.633 526.641  1.00  0.00     0.134 C
HETATM   22  C8  UNL     1     185.906  25.682 528.060  1.00  0.00     0.093 C
HETATM   23  S1  UNL     1     186.583  27.182 528.898  1.00  0.00    -0.166 SA
HETATM   24  C9  UNL     1     186.345  28.533 527.679  1.00  0.00     0.093 C
HETATM   25  C10 UNL     1     186.916  28.042 526.366  1.00  0.00     0.134 C
ENDBRANCH  17  20
ENDBRANCH   4  17
TORSDOF 7
ENDMDL