MODEL 1
REMARK VINA RESULT: -7.896171303      0.000      0.000
REMARK  4 active torsions:
REMARK  status: ('A' for Active; 'I' for Inactive)
REMARK    1  A    between atoms: C4_6  and  C5_7
REMARK    2  A    between atoms: N2_15  and  C11_16
REMARK    3  A    between atoms: C11_16  and  C12_17
REMARK    4  A    between atoms: C12_17  and  N3_18
ROOT
HETATM    1  C1  UNL     1     185.591  24.141 524.693  1.00  0.00     0.034 C
HETATM    2  C2  UNL     1     184.438  25.122 524.616  1.00  0.00     0.101 C
HETATM    3  C3  UNL     1     183.617  24.998 525.870  1.00  0.00     0.144 C
HETATM    4  N1  UNL     1     182.555  25.944 525.864  1.00  0.00    -0.386 N
ATOM      5  H1  UNL     1     181.698  25.706 526.362  1.00  0.00     0.159 HD
HETATM    6  C4  UNL     1     182.612  27.080 525.267  1.00  0.00     0.078 C
HETATM    7  C10 UNL     1     183.822  27.458 524.503  1.00  0.00     0.266 C
HETATM    8  O1  UNL     1     183.843  28.553 523.950  1.00  0.00    -0.266 OA
HETATM    9  N2  UNL     1     184.867  26.493 524.485  1.00  0.00    -0.340 N
ENDROOT
BRANCH   9  10
HETATM   10  C11 UNL     1     186.248  26.921 524.336  1.00  0.00     0.146 C
BRANCH  10  11
HETATM   11  C12 UNL     1     187.029  26.575 525.591  1.00  0.00     0.147 C
BRANCH  11  12
HETATM   12  N3  UNL     1     186.615  27.347 526.722  1.00  0.00    -0.331 N
HETATM   13  C13 UNL     1     186.440  28.779 526.869  1.00  0.00     0.147 C
HETATM   14  C14 UNL     1     186.858  28.997 528.320  1.00  0.00     0.144 C
HETATM   15  N4  UNL     1     186.203  27.849 528.954  1.00  0.00    -0.341 N
HETATM   16  C15 UNL     1     186.277  26.804 527.996  1.00  0.00     0.318 C
ATOM     17  H4  UNL     1     185.784  27.809 529.883  1.00  0.00     0.164 HD
HETATM   18  O2  UNL     1     186.065  25.577 528.282  1.00  0.00    -0.247 OA
ENDBRANCH  11  12
ENDBRANCH  10  11
ENDBRANCH   9  10
BRANCH   6  19
HETATM   19  C5  UNL     1     181.450  27.963 525.340  1.00  0.00     0.050 C
HETATM   20  C6  UNL     1     180.393  27.669 524.314  1.00  0.00     0.012 C
HETATM   21  C7  UNL     1     179.051  28.216 524.668  1.00  0.00     0.011 C
HETATM   22  C8  UNL     1     179.125  29.639 525.227  1.00  0.00     0.074 C
HETATM   23  S1  UNL     1     179.872  29.456 526.895  1.00  0.00    -0.168 SA
HETATM   24  C9  UNL     1     180.926  27.960 526.755  1.00  0.00     0.084 C
ENDBRANCH   6  19
TORSDOF 4
ENDMDL