MODEL 4
REMARK VINA RESULT: -6.410437700      1.939      5.966
REMARK  5 active torsions:
REMARK  status: ('A' for Active; 'I' for Inactive)
REMARK    1  A    between atoms: C4_4  and  N1_5
REMARK    2  A    between atoms: N1_5  and  C5_7
REMARK    3  A    between atoms: C5_7  and  C6_8
REMARK    4  A    between atoms: C6_8  and  C7_9
REMARK    5  A    between atoms: C7_9  and  N2_10
ROOT
HETATM    1  C1  UNL     1     186.209  26.142 522.073  1.00  0.00     0.068 C
HETATM    2  C2  UNL     1     185.131  26.302 523.113  1.00  0.00     0.007 A
HETATM    3  C3  UNL     1     185.013  25.436 524.181  1.00  0.00     0.054 A
HETATM    4  C4  UNL     1     184.008  25.593 525.147  1.00  0.00     0.038 A
HETATM    5  C13 UNL     1     183.120  26.643 525.015  1.00  0.00    -0.006 A
HETATM    6  C14 UNL     1     183.268  27.485 523.938  1.00  0.00     0.046 A
HETATM    7  N4  UNL     1     184.241  27.315 523.024  1.00  0.00    -0.361 N
ATOM      8  H4  UNL     1     184.310  27.968 522.243  1.00  0.00     0.165 HD
HETATM    9  C15 UNL     1     182.265  28.599 523.892  1.00  0.00     0.329 C
HETATM   10  N5  UNL     1     182.130  29.210 525.179  1.00  0.00     0.090 N
HETATM   11  C16 UNL     1     183.132  30.253 525.356  1.00  0.00     0.310 C
HETATM   12  C17 UNL     1     182.046  28.360 526.307  1.00  0.00     0.277 C
HETATM   13  C18 UNL     1     182.023  26.893 525.959  1.00  0.00     0.073 C
ENDROOT
BRANCH   4  14
HETATM   14  N1  UNL     1     183.880  24.810 526.147  1.00  0.00    -0.389 N
ATOM     15  H1  UNL     1     182.919  24.549 526.368  1.00  0.00     0.159 HD
BRANCH  14  16
HETATM   16  C5  UNL     1     184.858  24.249 526.995  1.00  0.00     0.121 C
BRANCH  16  17
HETATM   17  C6  UNL     1     186.016  25.248 527.174  1.00  0.00     0.050 C
BRANCH  17  18
HETATM   18  C7  UNL     1     186.069  25.590 528.620  1.00  0.00     0.274 C
BRANCH  18  19
HETATM   19  N2  UNL     1     185.894  26.961 528.965  1.00  0.00     0.091 N
HETATM   20  C8  UNL     1     185.283  27.660 527.857  1.00  0.00     0.302 C
HETATM   21  C9  UNL     1     185.531  29.144 527.884  1.00  0.00     0.302 C
HETATM   22  N3  UNL     1     186.932  29.481 527.913  1.00  0.00     0.087 N
HETATM   23  C10 UNL     1     187.360  29.832 526.544  1.00  0.00     0.310 C
HETATM   24  C11 UNL     1     187.776  28.360 528.287  1.00  0.00     0.302 C
HETATM   25  C12 UNL     1     187.117  27.617 529.399  1.00  0.00     0.302 C
ENDBRANCH  18  19
ENDBRANCH  17  18
ENDBRANCH  16  17
ENDBRANCH  14  16
ENDBRANCH   4  14
TORSDOF 5
ENDMDL