MODEL 3
REMARK VINA RESULT: -7.869904487      1.648      2.993
REMARK  4 active torsions:
REMARK  status: ('A' for Active; 'I' for Inactive)
REMARK    1  A    between atoms: C3_5  and  C4_6
REMARK    2  A    between atoms: C4_6  and  N2_7
REMARK       I    between atoms: N3_14  and  C11_15
REMARK    3  A    between atoms: C11_15  and  C12_17
REMARK    4  A    between atoms: C12_17  and  C13_18
ROOT
HETATM    1  N2  UNL     1     181.967  29.042 525.296  1.00  0.00     0.095 N
HETATM    2  C5  UNL     1     182.759  30.179 525.686  1.00  0.00     0.273 C
HETATM    3  C6  UNL     1     184.189  29.754 525.906  1.00  0.00     0.041 C
HETATM    4  C7  UNL     1     184.464  28.351 525.470  1.00  0.00    -0.021 C
HETATM    5  C8  UNL     1     185.957  28.195 525.265  1.00  0.00     0.013 C
HETATM    6  C9  UNL     1     186.749  28.543 526.487  1.00  0.00     0.021 C
HETATM    7  C10 UNL     1     186.363  27.627 527.613  1.00  0.00     0.126 C
HETATM    8  N3  UNL     1     185.259  26.792 527.185  1.00  0.00    -0.351 N
HETATM    9  C11 UNL     1     185.343  25.395 527.335  1.00  0.00     0.226 C
HETATM   10  O1  UNL     1     186.367  24.881 527.812  1.00  0.00    -0.273 OA
HETATM   11  C14 UNL     1     184.090  27.379 526.601  1.00  0.00     0.135 C
HETATM   12  C15 UNL     1     183.785  27.962 524.193  1.00  0.00     0.041 C
HETATM   13  C16 UNL     1     182.428  28.595 524.019  1.00  0.00     0.273 C
ENDROOT
BRANCH   1  14
HETATM   14  C4  UNL     1     180.560  29.253 525.373  1.00  0.00     0.349 C
BRANCH  14  15
HETATM   15  C3  UNL     1     180.116  30.003 526.545  1.00  0.00     0.126 A
HETATM   16  N1  UNL     1     179.512  29.496 527.624  1.00  0.00    -0.332 N
HETATM   17  C2  UNL     1     179.249  30.480 528.498  1.00  0.00     0.093 A
ATOM     18  H1  UNL     1     179.286  28.511 527.762  1.00  0.00     0.168 HD
HETATM   19  C1  UNL     1     178.588  30.313 529.801  1.00  0.00     0.090 C
HETATM   20  N5  UNL     1     179.711  31.624 527.926  1.00  0.00    -0.288 N
HETATM   21  N4  UNL     1     180.231  31.319 526.748  1.00  0.00    -0.286 N
ATOM     22  H5  UNL     1     179.664  32.558 528.335  1.00  0.00     0.188 HD
ATOM     23  H4  UNL     1     180.653  31.983 526.099  1.00  0.00     0.188 HD
ENDBRANCH  14  15
ENDBRANCH   1  14
BRANCH   9  24
HETATM   24  C12 UNL     1     184.204  24.541 526.921  1.00  0.00     0.172 C
BRANCH  24  25
HETATM   25  C13 UNL     1     184.030  24.623 525.435  1.00  0.00     0.240 C
HETATM   26  O2  UNL     1     185.028  24.682 524.741  1.00  0.00    -0.306 OA
ENDBRANCH  24  25
ENDBRANCH   9  24
TORSDOF 4
ENDMDL