MODEL 3
REMARK VINA RESULT: -7.076703828      1.283      1.693
REMARK  5 active torsions:
REMARK  status: ('A' for Active; 'I' for Inactive)
REMARK    1  A    between atoms: N1_1  and  C1_5
REMARK    2  A    between atoms: N2_9  and  C5_10
REMARK    3  A    between atoms: C5_10  and  C6_11
REMARK    4  A    between atoms: C6_11  and  N3_12
REMARK    5  A    between atoms: C9_15  and  N4_16
ROOT
HETATM    1  N3  UNL     1     184.485  25.896 525.146  1.00  0.00     0.090 N
HETATM    2  C7  UNL     1     184.160  26.618 523.962  1.00  0.00     0.274 C
HETATM    3  C8  UNL     1     183.249  27.803 524.235  1.00  0.00     0.056 C
HETATM    4  C9  UNL     1     182.403  27.441 525.415  1.00  0.00     0.095 C
HETATM    5  C16 UNL     1     182.107  25.996 525.466  1.00  0.00     0.056 C
HETATM    6  C17 UNL     1     183.395  25.284 525.837  1.00  0.00     0.274 C
ENDROOT
BRANCH   1   7
HETATM    7  C6  UNL     1     185.609  24.996 524.990  1.00  0.00     0.302 C
BRANCH   7   8
HETATM    8  C5  UNL     1     186.752  25.291 525.879  1.00  0.00     0.302 C
BRANCH   8   9
HETATM    9  N2  UNL     1     186.502  26.500 526.636  1.00  0.00     0.092 N
HETATM   10  C4  UNL     1     187.274  27.615 526.063  1.00  0.00     0.272 C
HETATM   11  C3  UNL     1     186.595  28.875 526.595  1.00  0.00     0.032 C
HETATM   12  C2  UNL     1     186.880  28.913 528.078  1.00  0.00     0.036 C
HETATM   13  C1  UNL     1     186.659  27.622 528.782  1.00  0.00     0.211 C
HETATM   14  C18 UNL     1     186.990  26.389 527.997  1.00  0.00     0.305 C
BRANCH  13  15
HETATM   15  N1  UNL     1     187.558  27.609 529.948  1.00  0.00    -0.073 N
ATOM     16  H13 UNL     1     188.497  27.947 529.734  1.00  0.00     0.274 HD
ATOM     17  H12 UNL     1     187.322  28.316 530.644  1.00  0.00     0.274 HD
ATOM     18  H11 UNL     1     187.548  26.660 530.321  1.00  0.00     0.274 HD
ENDBRANCH  13  15
ENDBRANCH   8   9
ENDBRANCH   7   8
ENDBRANCH   1   7
BRANCH   4  19
HETATM   19  N4  UNL     1     181.229  28.315 525.597  1.00  0.00    -0.326 N
HETATM   20  C10 UNL     1     181.316  29.267 526.649  1.00  0.00     0.068 C
HETATM   21  C11 UNL     1     180.339  29.423 527.745  1.00  0.00     0.056 C
HETATM   22  C12 UNL     1     178.886  29.769 527.283  1.00  0.00     0.085 C
HETATM   23  C13 UNL     1     178.701  29.230 526.000  1.00  0.00    -0.174 C
HETATM   24  C14 UNL     1     178.799  28.611 524.726  1.00  0.00     0.183 C
HETATM   25  C15 UNL     1     180.216  28.001 524.611  1.00  0.00     0.234 C
HETATM   26  O1  UNL     1     180.413  27.261 523.668  1.00  0.00    -0.272 OA
ENDBRANCH   4  19
TORSDOF 5
ENDMDL