MODEL 5
REMARK VINA RESULT: -6.995146987      1.382      6.667
REMARK  4 active torsions:
REMARK  status: ('A' for Active; 'I' for Inactive)
REMARK    1  A    between atoms: C3_3  and  N1_4
REMARK    2  A    between atoms: C6_7  and  N2_8
REMARK    3  A    between atoms: N3_12  and  C10_13
REMARK    4  A    between atoms: C10_13  and  C11_14
ROOT
HETATM    1  C1  UNL     1     186.743  27.620 529.579  1.00  0.00     0.013 C
HETATM    2  C2  UNL     1     186.720  26.752 528.760  1.00  0.00    -0.087 C
HETATM    3  C3  UNL     1     186.678  25.696 527.727  1.00  0.00     0.364 C
ENDROOT
BRANCH   3   4
HETATM    4  N1  UNL     1     185.628  25.992 526.771  1.00  0.00     0.099 N
HETATM    5  C4  UNL     1     186.139  26.270 525.456  1.00  0.00     0.275 C
HETATM    6  C5  UNL     1     184.998  26.792 524.615  1.00  0.00     0.055 C
HETATM    7  C6  UNL     1     183.680  26.617 525.380  1.00  0.00     0.086 C
HETATM    8  C17 UNL     1     183.594  25.155 525.740  1.00  0.00     0.055 C
HETATM    9  C18 UNL     1     184.733  24.846 526.686  1.00  0.00     0.275 C
BRANCH   7  10
HETATM   10  N2  UNL     1     182.569  27.135 524.708  1.00  0.00    -0.387 N
HETATM   11  C7  UNL     1     181.278  26.792 525.196  1.00  0.00     0.127 C
HETATM   12  C8  UNL     1     180.251  27.100 524.155  1.00  0.00     0.064 C
HETATM   13  C9  UNL     1     179.842  28.557 524.102  1.00  0.00     0.065 C
HETATM   14  N3  UNL     1     180.552  29.390 524.988  1.00  0.00    -0.363 N
HETATM   15  C15 UNL     1     181.947  29.526 524.816  1.00  0.00     0.171 C
HETATM   16  C16 UNL     1     182.601  28.394 524.094  1.00  0.00     0.078 C
BRANCH  14  17
HETATM   17  C10 UNL     1     179.877  30.456 525.608  1.00  0.00     0.121 C
BRANCH  17  18
HETATM   18  C11 UNL     1     179.528  30.281 527.029  1.00  0.00     0.064 A
HETATM   19  C12 UNL     1     178.772  29.276 527.576  1.00  0.00     0.120 A
HETATM   20  N4  UNL     1     178.679  29.456 528.900  1.00  0.00    -0.354 N
HETATM   21  C13 UNL     1     179.370  30.565 529.187  1.00  0.00     0.077 A
ATOM     22  H4  UNL     1     178.178  28.863 529.562  1.00  0.00     0.166 HD
HETATM   23  C14 UNL     1     179.518  31.127 530.578  1.00  0.00     0.089 C
HETATM   24  N5  UNL     1     179.876  31.057 528.068  1.00  0.00    -0.344 N
ATOM     25  H5  UNL     1     180.447  31.900 528.003  1.00  0.00     0.167 HD
ENDBRANCH  17  18
ENDBRANCH  14  17
ENDBRANCH   7  10
ENDBRANCH   3   4
TORSDOF 4
ENDMDL