MODEL 3
REMARK VINA RESULT: -7.520597711      3.611      7.223
REMARK  4 active torsions:
REMARK  status: ('A' for Active; 'I' for Inactive)
REMARK    1  A    between atoms: C2_2  and  S1_4
REMARK    2  A    between atoms: S1_4  and  C4_5
REMARK    3  A    between atoms: N3_14  and  S2_15
REMARK    4  A    between atoms: S2_15  and  N4_18
ROOT
HETATM    1  C4  UNL     1     180.207  29.244 527.151  1.00  0.00     0.145 A
HETATM    2  N1  UNL     1     180.541  27.946 527.056  1.00  0.00    -0.338 N
ATOM      3  H1  UNL     1     180.016  27.172 527.461  1.00  0.00     0.168 HD
HETATM    4  C5  UNL     1     181.677  27.828 526.344  1.00  0.00     0.038 A
HETATM    5  C6  UNL     1     182.046  29.094 525.996  1.00  0.00     0.035 A
HETATM    6  N2  UNL     1     181.146  29.943 526.491  1.00  0.00    -0.339 N
ATOM      7  H2  UNL     1     181.167  30.958 526.387  1.00  0.00     0.168 HD
HETATM    8  C7  UNL     1     183.243  29.478 525.199  1.00  0.00     0.080 C
HETATM    9  C8  UNL     1     184.521  29.049 525.878  1.00  0.00     0.147 C
HETATM   10  N3  UNL     1     184.533  27.687 526.261  1.00  0.00    -0.277 N
HETATM   11  C11 UNL     1     183.729  26.802 525.519  1.00  0.00     0.083 C
HETATM   12  C12 UNL     1     182.360  26.544 526.025  1.00  0.00     0.104 C
ENDROOT
BRANCH  10  13
HETATM   13  S2  UNL     1     186.032  27.089 526.771  1.00  0.00     0.303 S
HETATM   14  O1  UNL     1     187.074  27.181 525.696  1.00  0.00    -0.188 OA
HETATM   15  O2  UNL     1     185.939  25.629 527.189  1.00  0.00    -0.188 OA
BRANCH  13  16
HETATM   16  N4  UNL     1     186.537  27.961 528.172  1.00  0.00    -0.201 NA
HETATM   17  C9  UNL     1     186.730  27.134 529.321  1.00  0.00     0.130 C
HETATM   18  C10 UNL     1     187.685  28.793 527.924  1.00  0.00     0.130 C
ENDBRANCH  13  16
ENDBRANCH  10  13
BRANCH   1  19
HETATM   19  S1  UNL     1     178.819  29.987 527.967  1.00  0.00    -0.090 SA
BRANCH  19  20
HETATM   20  C2  UNL     1     178.975  29.934 529.768  1.00  0.00     0.047 C
HETATM   21  C1  UNL     1     180.051  30.922 530.169  1.00  0.00     0.021 C
HETATM   22  C3  UNL     1     177.688  30.378 530.442  1.00  0.00     0.021 C
ENDBRANCH  19  20
ENDBRANCH   1  19
TORSDOF 4
ENDMDL