MODEL 4
REMARK VINA RESULT: -6.493928969      2.103      7.314
REMARK  4 active torsions:
REMARK  status: ('A' for Active; 'I' for Inactive)
REMARK    1  A    between atoms: C2_3  and  N2_4
REMARK       I    between atoms: N2_4  and  C3_6
REMARK    2  A    between atoms: C3_6  and  C4_8
REMARK    3  A    between atoms: C4_8  and  N3_9
REMARK    4  A    between atoms: N4_17  and  C11_18
ROOT
HETATM    1  N1  UNL     1     182.174  28.367 522.700  1.00  0.00    -0.195 NA
HETATM    2  C1  UNL     1     182.496  28.356 523.808  1.00  0.00     0.091 C
HETATM    3  C2  UNL     1     182.900  28.367 525.225  1.00  0.00     0.128 C
HETATM    4  C9  UNL     1     182.606  27.025 525.859  1.00  0.00     0.067 C
HETATM    5  C10 UNL     1     183.521  25.949 525.295  1.00  0.00     0.126 C
HETATM    6  N4  UNL     1     184.820  26.450 525.029  1.00  0.00    -0.388 N
HETATM    7  C16 UNL     1     185.185  27.632 525.681  1.00  0.00     0.062 C
HETATM    8  C17 UNL     1     184.335  28.786 525.285  1.00  0.00     0.091 C
ENDROOT
BRANCH   3   9
HETATM    9  N2  UNL     1     182.083  29.373 525.896  1.00  0.00    -0.337 N
HETATM   10  C3  UNL     1     181.745  30.624 525.318  1.00  0.00     0.236 C
HETATM   11  O1  UNL     1     182.108  30.999 524.167  1.00  0.00    -0.272 OA
ATOM     12  H2  UNL     1     181.737  29.166 526.833  1.00  0.00     0.164 HD
BRANCH  10  13
HETATM   13  C4  UNL     1     180.896  31.550 526.152  1.00  0.00     0.228 C
BRANCH  13  14
HETATM   14  N3  UNL     1     179.962  30.790 526.948  1.00  0.00    -0.343 N
HETATM   15  C5  UNL     1     179.553  31.145 528.311  1.00  0.00     0.127 C
HETATM   16  C6  UNL     1     179.038  29.878 528.925  1.00  0.00     0.029 C
HETATM   17  C7  UNL     1     178.842  28.891 527.808  1.00  0.00     0.104 C
HETATM   18  C8  UNL     1     179.285  29.609 526.602  1.00  0.00     0.220 C
HETATM   19  O2  UNL     1     179.078  29.211 525.429  1.00  0.00    -0.273 OA
ENDBRANCH  13  14
ENDBRANCH  10  13
ENDBRANCH   3   9
BRANCH   6  20
HETATM   20  C11 UNL     1     185.641  25.820 524.111  1.00  0.00     0.083 C
HETATM   21  C12 UNL     1     185.820  26.476 522.767  1.00  0.00     0.025 C
HETATM   22  C13 UNL     1     186.451  25.368 521.921  1.00  0.00     0.002 C
HETATM   23  C14 UNL     1     186.305  24.087 522.687  1.00  0.00     0.002 C
HETATM   24  C15 UNL     1     185.224  24.423 523.691  1.00  0.00     0.025 C
ENDBRANCH   6  20
TORSDOF 4
ENDMDL