MODEL 2
REMARK VINA RESULT: -8.359932958      1.905      6.234
REMARK  8 active torsions:
REMARK  status: ('A' for Active; 'I' for Inactive)
REMARK    1  A    between atoms: C2_2  and  C4_4
REMARK    2  A    between atoms: C4_4  and  C5_5
REMARK       I    between atoms: C5_5  and  N1_7
REMARK    3  A    between atoms: N1_7  and  C6_9
REMARK    4  A    between atoms: C6_9  and  C7_10
REMARK    5  A    between atoms: C6_9  and  C13_16
REMARK    6  A    between atoms: C7_10  and  C8_11
REMARK       I    between atoms: C13_16  and  N2_18
REMARK    7  A    between atoms: N2_18  and  C14_19
REMARK    8  A    between atoms: N2_18  and  C20_25
ROOT
HETATM    1  C13 UNL     1      39.989  -6.077  19.299  1.00  0.00     0.243 C
HETATM    2  O2  UNL     1      39.128  -6.137  18.392  1.00  0.00    -0.271 OA
HETATM    3  N2  UNL     1      41.214  -6.751  19.109  1.00  0.00    -0.339 N
ENDROOT
BRANCH   1   4
HETATM    4  C6  UNL     1      39.625  -5.285  20.514  1.00  0.00     0.177 C
BRANCH   4   5
HETATM    5  N1  UNL     1      40.235  -5.757  21.723  1.00  0.00    -0.348 N
HETATM    6  C5  UNL     1      39.671  -6.683  22.645  1.00  0.00     0.218 C
HETATM    7  O1  UNL     1      38.565  -7.239  22.547  1.00  0.00    -0.274 OA
ATOM      8  H1  UNL     1      41.162  -5.396  21.942  1.00  0.00     0.163 HD
BRANCH   6   9
HETATM    9  C4  UNL     1      40.478  -7.030  23.860  1.00  0.00     0.106 C
BRANCH   9  10
HETATM   10  C2  UNL     1      41.722  -7.783  23.515  1.00  0.00    -0.014 C
HETATM   11  C1  UNL     1      42.595  -7.871  24.757  1.00  0.00     0.010 C
HETATM   12  C3  UNL     1      41.375  -9.233  23.152  1.00  0.00     0.010 C
ENDBRANCH   9  10
ENDBRANCH   6   9
ENDBRANCH   4   5
BRANCH   4  13
HETATM   13  C7  UNL     1      39.665  -3.821  20.286  1.00  0.00     0.039 C
BRANCH  13  14
HETATM   14  C8  UNL     1      38.809  -2.945  21.131  1.00  0.00    -0.012 C
HETATM   15  C9  UNL     1      38.008  -1.977  20.240  1.00  0.00     0.005 C
HETATM   16  C10 UNL     1      38.518  -0.592  20.520  1.00  0.00     0.000 C
HETATM   17  C11 UNL     1      39.851  -0.801  21.235  1.00  0.00     0.000 C
HETATM   18  C12 UNL     1      39.478  -2.019  22.092  1.00  0.00     0.005 C
ENDBRANCH  13  14
ENDBRANCH   4  13
ENDBRANCH   1   4
BRANCH   3  19
HETATM   19  C14 UNL     1      41.401  -7.539  17.907  1.00  0.00     0.087 C
HETATM   20  C15 UNL     1      40.283  -8.562  17.738  1.00  0.00     0.025 C
HETATM   21  C16 UNL     1      40.770  -9.505  16.628  1.00  0.00     0.002 C
HETATM   22  C17 UNL     1      40.774  -8.767  15.320  1.00  0.00     0.000 C
HETATM   23  C18 UNL     1      40.677  -7.274  15.518  1.00  0.00     0.002 C
HETATM   24  C19 UNL     1      41.534  -6.755  16.648  1.00  0.00     0.025 C
ENDBRANCH   3  19
BRANCH   3  25
HETATM   25  C20 UNL     1      42.322  -6.656  20.023  1.00  0.00     0.114 C
HETATM   26  C21 UNL     1      43.340  -5.620  19.566  1.00  0.00     0.054 C
HETATM   27  C22 UNL     1      44.508  -5.985  20.477  1.00  0.00     0.234 C
HETATM   28  N3  UNL     1      44.542  -7.409  20.372  1.00  0.00    -0.073 N
HETATM   29  C23 UNL     1      43.173  -7.874  20.131  1.00  0.00     0.257 C
ATOM     30  H32 UNL     1      45.201  -7.739  19.667  1.00  0.00     0.277 HD
ATOM     31  H31 UNL     1      44.974  -7.855  21.181  1.00  0.00     0.277 HD
ENDBRANCH   3  25
TORSDOF 8
ENDMDL