MODEL 5
REMARK VINA RESULT: -7.134041162      1.873      5.256
REMARK  9 active torsions:
REMARK  status: ('A' for Active; 'I' for Inactive)
REMARK    1  A    between atoms: C2_2  and  C3_3
REMARK    2  A    between atoms: C3_3  and  C5_5
REMARK    3  A    between atoms: C5_5  and  N1_6
REMARK       I    between atoms: N1_6  and  C6_8
REMARK    4  A    between atoms: C6_8  and  C7_10
REMARK    5  A    between atoms: C7_10  and  N2_11
REMARK    6  A    between atoms: C7_10  and  C21_28
REMARK       I    between atoms: N2_11  and  C8_13
REMARK    7  A    between atoms: C8_13  and  C9_15
REMARK    8  A    between atoms: N3_20  and  C14_21
REMARK    9  A    between atoms: C14_21  and  C15_22
ROOT
HETATM    1  N2  UNL     1      40.685  -6.530  19.703  1.00  0.00    -0.345 N
ATOM      2  H2  UNL     1      40.285  -7.465  19.633  1.00  0.00     0.163 HD
HETATM    3  C8  UNL     1      41.509  -6.209  20.814  1.00  0.00     0.257 C
HETATM    4  O2  UNL     1      41.982  -5.046  20.863  1.00  0.00    -0.271 OA
ENDROOT
BRANCH   1   5
HETATM    5  C7  UNL     1      40.393  -5.539  18.642  1.00  0.00     0.180 C
BRANCH   5   6
HETATM    6  C6  UNL     1      39.230  -4.728  18.998  1.00  0.00     0.240 C
HETATM    7  N1  UNL     1      39.338  -3.511  19.731  1.00  0.00    -0.359 N
ATOM      8  H1  UNL     1      40.252  -3.171  20.029  1.00  0.00     0.162 HD
HETATM    9  O1  UNL     1      38.082  -5.144  18.633  1.00  0.00    -0.271 OA
BRANCH   7  10
HETATM   10  C5  UNL     1      38.155  -2.767  20.049  1.00  0.00     0.126 C
BRANCH  10  11
HETATM   11  C3  UNL     1      38.511  -1.325  20.348  1.00  0.00    -0.001 C
HETATM   12  C4  UNL     1      37.368  -0.618  21.001  1.00  0.00     0.011 C
BRANCH  11  13
HETATM   13  C2  UNL     1      39.731  -1.276  21.251  1.00  0.00     0.001 C
HETATM   14  C1  UNL     1      39.380  -1.785  22.639  1.00  0.00     0.005 C
ENDBRANCH  11  13
ENDBRANCH  10  11
ENDBRANCH   7  10
ENDBRANCH   5   6
BRANCH   5  15
HETATM   15  C21 UNL     1      40.288  -6.337  17.389  1.00  0.00     0.018 A
HETATM   16  C22 UNL     1      41.384  -6.111  16.369  1.00  0.00     0.007 A
HETATM   17  C23 UNL     1      41.174  -7.455  17.079  1.00  0.00     0.007 A
ENDBRANCH   5  15
ENDBRANCH   1   5
BRANCH   3  18
HETATM   18  C9  UNL     1      41.751  -7.247  21.818  1.00  0.00     0.235 C
HETATM   19  C10 UNL     1      41.331  -8.620  21.423  1.00  0.00     0.060 C
HETATM   20  C11 UNL     1      43.277  -7.293  22.010  1.00  0.00     0.053 C
HETATM   21  C12 UNL     1      43.328  -8.050  23.319  1.00  0.00     0.033 C
HETATM   22  C13 UNL     1      41.966  -7.856  23.969  1.00  0.00     0.274 C
HETATM   23  N3  UNL     1      41.347  -6.853  23.159  1.00  0.00     0.107 N
BRANCH  23  24
HETATM   24  C14 UNL     1      39.942  -6.782  23.308  1.00  0.00     0.278 C
BRANCH  24  25
HETATM   25  C15 UNL     1      39.409  -7.556  24.469  1.00  0.00     0.014 C
HETATM   26  C16 UNL     1      38.588  -8.773  24.071  1.00  0.00     0.006 C
HETATM   27  C17 UNL     1      38.337  -9.558  25.343  1.00  0.00     0.000 C
HETATM   28  C18 UNL     1      37.364  -8.763  26.157  1.00  0.00     0.000 C
HETATM   29  C19 UNL     1      37.603  -7.302  26.218  1.00  0.00     0.000 C
HETATM   30  C20 UNL     1      38.921  -6.827  25.651  1.00  0.00     0.006 C
ENDBRANCH  24  25
ENDBRANCH  23  24
ENDBRANCH   3  18
TORSDOF 9
ENDMDL