MODEL 5
REMARK VINA RESULT: -6.760490539      1.422      1.894
REMARK  9 active torsions:
REMARK  status: ('A' for Active; 'I' for Inactive)
REMARK    1  A    between atoms: C4_4  and  C5_5
REMARK    2  A    between atoms: C5_5  and  C6_6
REMARK    3  A    between atoms: C6_6  and  C7_7
REMARK    4  A    between atoms: C7_7  and  O1_8
REMARK    5  A    between atoms: O1_8  and  C8_9
REMARK    6  A    between atoms: C8_9  and  C9_10
REMARK    7  A    between atoms: C9_10  and  N1_11
REMARK    8  A    between atoms: C10_15  and  N2_16
REMARK    9  A    between atoms: N2_16  and  N3_18
ROOT
HETATM    1  C1  UNL     1      43.379  -4.972  18.540  1.00  0.00     0.036 C
HETATM    2  C2  UNL     1      43.746  -5.600  19.826  1.00  0.00    -0.027 C
HETATM    3  C3  UNL     1      43.040  -5.864  20.868  1.00  0.00    -0.073 C
HETATM    4  C4  UNL     1      41.602  -5.615  21.103  1.00  0.00     0.039 C
HETATM    5  C10 UNL     1      40.979  -7.044  20.973  1.00  0.00     0.119 C
HETATM    6  C14 UNL     1      41.412  -7.693  22.265  1.00  0.00     0.015 C
HETATM    7  C15 UNL     1      40.860  -9.076  22.503  1.00  0.00     0.007 C
HETATM    8  C16 UNL     1      41.454  -9.481  23.877  1.00  0.00     0.005 C
HETATM    9  C17 UNL     1      42.877  -9.895  23.549  1.00  0.00    -0.014 C
HETATM   10  C18 UNL     1      43.514 -10.342  24.847  1.00  0.00     0.010 C
HETATM   11  C19 UNL     1      43.633  -8.790  22.856  1.00  0.00    -0.006 C
HETATM   12  C20 UNL     1      44.349  -9.176  21.618  1.00  0.00     0.005 C
HETATM   13  C21 UNL     1      45.421  -8.108  21.366  1.00  0.00     0.001 C
HETATM   14  C22 UNL     1      45.085  -6.820  22.014  1.00  0.00     0.009 C
HETATM   15  C23 UNL     1      43.652  -6.479  22.121  1.00  0.00     0.019 C
HETATM   16  C24 UNL     1      42.789  -7.518  22.744  1.00  0.00     0.004 C
ENDROOT
BRANCH   4  17
HETATM   17  C5  UNL     1      40.923  -4.610  20.299  1.00  0.00     0.013 C
BRANCH  17  18
HETATM   18  C6  UNL     1      39.421  -4.518  20.557  1.00  0.00     0.027 C
BRANCH  18  19
HETATM   19  C7  UNL     1      38.649  -4.071  19.347  1.00  0.00     0.167 C
BRANCH  19  20
HETATM   20  O1  UNL     1      37.986  -2.873  19.492  1.00  0.00    -0.389 OA
BRANCH  20  21
HETATM   21  C8  UNL     1      38.346  -2.113  20.590  1.00  0.00     0.194 C
BRANCH  21  22
HETATM   22  C9  UNL     1      37.834  -0.692  20.494  1.00  0.00     0.255 C
BRANCH  22  23
HETATM   23  N1  UNL     1      36.717  -0.478  21.389  1.00  0.00    -0.077 N
ATOM     24  H13 UNL     1      35.866  -0.915  21.038  1.00  0.00     0.274 HD
ATOM     25  H12 UNL     1      36.821  -1.011  22.253  1.00  0.00     0.274 HD
ATOM     26  H11 UNL     1      36.579   0.516  21.576  1.00  0.00     0.274 HD
ENDBRANCH  22  23
ENDBRANCH  21  22
ENDBRANCH  20  21
ENDBRANCH  19  20
ENDBRANCH  18  19
ENDBRANCH  17  18
ENDBRANCH   4  17
BRANCH   5  27
HETATM   27  N2  UNL     1      41.279  -7.627  19.764  1.00  0.00    -0.248 N
ATOM     28  H2  UNL     1      42.217  -8.020  19.682  1.00  0.00     0.187 HD
BRANCH  27  29
HETATM   29  N3  UNL     1      40.503  -7.749  18.678  1.00  0.00    -0.003 N
HETATM   30  C11 UNL     1      39.110  -8.087  19.043  1.00  0.00     0.300 C
HETATM   31  C12 UNL     1      40.905  -8.994  17.936  1.00  0.00     0.300 C
HETATM   32  C13 UNL     1      40.436  -6.743  17.690  1.00  0.00     0.300 C
ENDBRANCH  27  29
ENDBRANCH   5  27
TORSDOF 9
ENDMDL