MODEL 1
REMARK VINA RESULT: -6.777027653      0.000      0.000
REMARK  8 active torsions:
REMARK  status: ('A' for Active; 'I' for Inactive)
REMARK    1  A    between atoms: N1_2  and  C2_5
REMARK    2  A    between atoms: C2_5  and  C3_6
REMARK    3  A    between atoms: C6_9  and  C7_10
REMARK    4  A    between atoms: C7_10  and  N2_11
REMARK       I    between atoms: N2_11  and  C8_13
REMARK    5  A    between atoms: C8_13  and  C9_15
REMARK    6  A    between atoms: C9_15  and  C10_16
REMARK    7  A    between atoms: C13_19  and  C14_20
REMARK    8  A    between atoms: C14_20  and  N3_21
ROOT
HETATM    1  N2  UNL     1      38.855  -7.223  20.781  1.00  0.00    -0.361 N
ATOM      2  H2  UNL     1      38.129  -7.936  20.712  1.00  0.00     0.162 HD
HETATM    3  C8  UNL     1      39.721  -7.203  21.892  1.00  0.00     0.218 C
HETATM    4  O1  UNL     1      40.613  -6.350  21.989  1.00  0.00    -0.274 OA
ENDROOT
BRANCH   3   5
HETATM    5  C9  UNL     1      39.542  -8.230  22.948  1.00  0.00     0.117 C
BRANCH   5   6
HETATM    6  C10 UNL     1      38.563  -7.684  23.955  1.00  0.00     0.056 C
HETATM    7  C11 UNL     1      39.146  -6.749  24.960  1.00  0.00     0.016 C
HETATM    8  C12 UNL     1      39.794  -7.511  26.054  1.00  0.00     0.008 C
HETATM    9  C13 UNL     1      38.880  -7.980  27.163  1.00  0.00     0.021 C
HETATM   10  C20 UNL     1      37.695  -8.744  26.613  1.00  0.00     0.080 C
HETATM   11  S1  UNL     1      37.849  -9.086  24.851  1.00  0.00    -0.163 SA
BRANCH   9  12
HETATM   12  C14 UNL     1      38.398  -6.821  27.945  1.00  0.00     0.242 C
BRANCH  12  13
HETATM   13  N3  UNL     1      38.940  -6.576  29.222  1.00  0.00    -0.070 N
HETATM   14  C15 UNL     1      39.126  -7.835  29.916  1.00  0.00     0.272 C
HETATM   15  C16 UNL     1      37.992  -5.814  30.052  1.00  0.00     0.237 C
HETATM   16  C17 UNL     1      38.850  -5.343  31.175  1.00  0.00     0.029 C
HETATM   17  C18 UNL     1      40.147  -4.996  30.528  1.00  0.00     0.029 C
HETATM   18  C19 UNL     1      40.168  -5.853  29.279  1.00  0.00     0.237 C
ENDBRANCH  12  13
ENDBRANCH   9  12
ENDBRANCH   5   6
ENDBRANCH   3   5
BRANCH   1  19
HETATM   19  C7  UNL     1      38.998  -6.233  19.742  1.00  0.00     0.127 C
BRANCH  19  20
HETATM   20  C6  UNL     1      39.155  -6.920  18.413  1.00  0.00     0.003 C
HETATM   21  C5  UNL     1      39.800  -8.282  18.560  1.00  0.00     0.007 C
HETATM   22  C4  UNL     1      41.012  -8.333  17.689  1.00  0.00     0.007 C
HETATM   23  C3  UNL     1      42.054  -7.324  18.067  1.00  0.00     0.011 C
HETATM   24  C22 UNL     1      41.445  -5.950  18.049  1.00  0.00     0.007 C
HETATM   25  C21 UNL     1      40.027  -5.998  17.570  1.00  0.00     0.007 C
BRANCH  23  26
HETATM   26  C2  UNL     1      42.644  -7.646  19.425  1.00  0.00     0.236 C
BRANCH  26  27
HETATM   27  N1  UNL     1      42.949  -6.468  20.182  1.00  0.00    -0.079 N
HETATM   28  C1  UNL     1      44.339  -6.287  20.460  1.00  0.00     0.267 C
ATOM     29  H12 UNL     1      42.408  -6.451  21.046  1.00  0.00     0.276 HD
ATOM     30  H11 UNL     1      42.568  -5.641  19.721  1.00  0.00     0.276 HD
ENDBRANCH  26  27
ENDBRANCH  23  26
ENDBRANCH  19  20
ENDBRANCH   1  19
TORSDOF 8
ENDMDL