MODEL 5
REMARK VINA RESULT: -7.232159070      2.297      5.046
REMARK  9 active torsions:
REMARK  status: ('A' for Active; 'I' for Inactive)
REMARK    1  A    between atoms: C2_2  and  C3_3
REMARK    2  A    between atoms: C3_3  and  N1_4
REMARK    3  A    between atoms: C6_7  and  N2_8
REMARK       I    between atoms: N2_8  and  C7_9
REMARK    4  A    between atoms: C7_9  and  C8_11
REMARK    5  A    between atoms: C8_11  and  C9_12
REMARK    6  A    between atoms: C14_18  and  C15_19
REMARK    7  A    between atoms: C15_19  and  C16_20
REMARK    8  A    between atoms: C18_22  and  C20_24
REMARK    9  A    between atoms: C20_24  and  O2_25
ROOT
HETATM    1  C9  UNL     1      40.761  -8.240  20.416  1.00  0.00     0.001 C
HETATM    2  C10 UNL     1      39.430  -8.063  19.815  1.00  0.00     0.012 C
HETATM    3  C11 UNL     1      39.344  -8.260  18.319  1.00  0.00     0.017 C
HETATM    4  C12 UNL     1      40.402  -9.111  17.721  1.00  0.00     0.278 C
HETATM    5  N3  UNL     1      41.433  -8.155  17.450  1.00  0.00     0.100 N
HETATM    6  C13 UNL     1      42.352  -7.965  18.494  1.00  0.00     0.278 C
HETATM    7  C14 UNL     1      41.861  -7.418  19.795  1.00  0.00     0.018 C
HETATM    8  C18 UNL     1      40.812  -7.028  16.856  1.00  0.00     0.177 C
HETATM    9  C19 UNL     1      41.625  -5.806  16.733  1.00  0.00     0.051 C
HETATM   10  C21 UNL     1      39.546  -6.890  17.658  1.00  0.00     0.050 C
ENDROOT
BRANCH   1  11
HETATM   11  C8  UNL     1      40.720  -8.112  21.899  1.00  0.00     0.123 C
BRANCH  11  12
HETATM   12  C7  UNL     1      39.811  -7.034  22.430  1.00  0.00     0.287 C
HETATM   13  N2  UNL     1      40.169  -5.756  22.051  1.00  0.00    -0.409 NA
HETATM   14  O1  UNL     1      38.831  -7.313  23.139  1.00  0.00    -0.258 OA
BRANCH  13  15
HETATM   15  C6  UNL     1      40.523  -4.480  21.674  1.00  0.00     0.170 C
HETATM   16  C5  UNL     1      40.359  -4.221  20.177  1.00  0.00     0.069 C
HETATM   17  C4  UNL     1      38.976  -3.874  19.769  1.00  0.00     0.276 C
HETATM   18  N1  UNL     1      38.326  -2.878  20.645  1.00  0.00     0.091 N
HETATM   19  C23 UNL     1      39.414  -2.279  21.458  1.00  0.00     0.276 C
HETATM   20  C22 UNL     1      39.827  -3.344  22.421  1.00  0.00     0.069 C
BRANCH  18  21
HETATM   21  C3  UNL     1      37.742  -1.828  19.814  1.00  0.00     0.299 C
BRANCH  21  22
HETATM   22  C2  UNL     1      37.532  -0.606  20.606  1.00  0.00    -0.007 C
HETATM   23  C1  UNL     1      36.474  -0.267  21.297  1.00  0.00     0.008 C
ENDBRANCH  21  22
ENDBRANCH  18  21
ENDBRANCH  13  15
ENDBRANCH  11  12
ENDBRANCH   1  11
BRANCH   7  24
HETATM   24  C15 UNL     1      43.022  -7.470  20.769  1.00  0.00     0.006 C
BRANCH  24  25
HETATM   25  C16 UNL     1      44.011  -6.337  20.590  1.00  0.00    -0.004 C
HETATM   26  C17 UNL     1      45.311  -6.863  21.220  1.00  0.00     0.005 C
ENDBRANCH  24  25
ENDBRANCH   7  24
BRANCH   8  27
HETATM   27  C20 UNL     1      40.343  -7.349  15.422  1.00  0.00     0.205 C
BRANCH  27  28
HETATM   28  O2  UNL     1      41.008  -8.490  14.946  1.00  0.00    -0.398 OA
ATOM     29  H2  UNL     1      40.501  -8.893  14.251  1.00  0.00     0.209 HD
ENDBRANCH  27  28
ENDBRANCH   8  27
TORSDOF 9
ENDMDL