MODEL 2
REMARK VINA RESULT: -8.056050226      1.687      5.335
REMARK  8 active torsions:
REMARK  status: ('A' for Active; 'I' for Inactive)
REMARK    1  A    between atoms: C5_6  and  C6_7
REMARK       I    between atoms: C6_7  and  N2_9
REMARK    2  A    between atoms: N2_9  and  C7_11
REMARK    3  A    between atoms: C7_11  and  C8_12
REMARK    4  A    between atoms: C8_12  and  C9_13
REMARK    5  A    between atoms: C9_13  and  C10_14
REMARK    6  A    between atoms: C10_14  and  C11_15
REMARK    7  A    between atoms: C11_15  and  C12_16
REMARK       I    between atoms: C12_16  and  N3_18
REMARK    8  A    between atoms: N3_18  and  C13_20
ROOT
HETATM    1  N1  UNL     1      39.435  -1.902  23.430  1.00  0.00    -0.197 NA
HETATM    2  C1  UNL     1      39.587  -2.148  22.311  1.00  0.00     0.064 C
HETATM    3  C2  UNL     1      39.789  -2.480  20.905  1.00  0.00     0.093 C
HETATM    4  C3  UNL     1      40.449  -3.851  20.856  1.00  0.00     0.020 C
HETATM    5  C4  UNL     1      40.450  -4.265  19.391  1.00  0.00     0.015 C
HETATM    6  C5  UNL     1      39.054  -4.612  19.008  1.00  0.00     0.078 C
HETATM    7  C23 UNL     1      38.014  -3.896  19.829  1.00  0.00     0.015 C
HETATM    8  C24 UNL     1      38.522  -2.497  20.111  1.00  0.00     0.020 C
ENDROOT
BRANCH   6   9
HETATM    9  C6  UNL     1      38.881  -6.087  19.045  1.00  0.00     0.221 C
HETATM   10  O1  UNL     1      38.602  -6.595  20.157  1.00  0.00    -0.273 OA
HETATM   11  N2  UNL     1      39.029  -6.878  17.861  1.00  0.00    -0.361 N
ATOM     12  H2  UNL     1      39.260  -6.416  16.983  1.00  0.00     0.162 HD
BRANCH  11  13
HETATM   13  C7  UNL     1      38.860  -8.302  17.874  1.00  0.00     0.122 C
BRANCH  13  14
HETATM   14  C8  UNL     1      40.046  -8.955  17.224  1.00  0.00     0.020 C
BRANCH  14  15
HETATM   15  C9  UNL     1      41.353  -8.261  17.567  1.00  0.00     0.002 C
BRANCH  15  16
HETATM   16  C10 UNL     1      41.689  -8.386  19.027  1.00  0.00     0.009 C
BRANCH  16  17
HETATM   17  C11 UNL     1      42.474  -7.150  19.474  1.00  0.00     0.103 C
BRANCH  17  18
HETATM   18  C12 UNL     1      42.433  -6.989  20.937  1.00  0.00     0.217 C
HETATM   19  O2  UNL     1      43.446  -6.542  21.513  1.00  0.00    -0.274 OA
HETATM   20  N3  UNL     1      41.302  -7.323  21.666  1.00  0.00    -0.356 N
ATOM     21  H3  UNL     1      40.507  -7.683  21.137  1.00  0.00     0.162 HD
BRANCH  20  22
HETATM   22  C13 UNL     1      41.133  -7.213  23.090  1.00  0.00     0.092 C
HETATM   23  C14 UNL     1      39.789  -6.755  23.521  1.00  0.00     0.009 C
HETATM   24  C15 UNL     1      38.723  -7.817  23.430  1.00  0.00     0.011 C
HETATM   25  C19 UNL     1      39.888  -6.392  25.010  1.00  0.00     0.011 C
HETATM   26  C16 UNL     1      39.118  -9.031  24.235  1.00  0.00    -0.013 C
HETATM   27  C17 UNL     1      39.354  -8.720  25.675  1.00  0.00     0.009 C
HETATM   28  C22 UNL     1      40.422  -9.548  23.645  1.00  0.00     0.011 C
HETATM   29  C18 UNL     1      40.368  -7.591  25.786  1.00  0.00    -0.013 C
HETATM   30  C20 UNL     1      41.680  -8.132  25.276  1.00  0.00     0.011 C
HETATM   31  C21 UNL     1      41.484  -8.502  23.817  1.00  0.00     0.009 C
ENDBRANCH  20  22
ENDBRANCH  17  18
ENDBRANCH  16  17
ENDBRANCH  15  16
ENDBRANCH  14  15
ENDBRANCH  13  14
ENDBRANCH  11  13
ENDBRANCH   6   9
TORSDOF 8
ENDMDL