MODEL 5
REMARK VINA RESULT: -7.464236854      1.938      5.114
REMARK  8 active torsions:
REMARK  status: ('A' for Active; 'I' for Inactive)
REMARK    1  A    between atoms: C2_2  and  C3_3
REMARK    2  A    between atoms: C2_2  and  N1_10
REMARK    3  A    between atoms: C3_3  and  C4_4
REMARK    4  A    between atoms: C4_4  and  C5_5
REMARK       I    between atoms: N1_10  and  C10_12
REMARK       I    between atoms: C10_12  and  N2_14
REMARK    5  A    between atoms: N3_17  and  C13_18
REMARK    6  A    between atoms: C13_18  and  C14_19
REMARK    7  A    between atoms: C14_19  and  N4_20
REMARK    8  A    between atoms: N4_20  and  C15_23
ROOT
HETATM    1  N1  UNL     1      41.522  -6.520  19.151  1.00  0.00    -0.339 N
ATOM      2  H1  UNL     1      41.004  -7.326  19.502  1.00  0.00     0.164 HD
HETATM    3  C10 UNL     1      42.676  -6.083  19.848  1.00  0.00     0.319 C
HETATM    4  O1  UNL     1      43.270  -5.074  19.362  1.00  0.00    -0.247 OA
HETATM    5  N2  UNL     1      43.184  -6.691  21.017  1.00  0.00    -0.325 N
HETATM    6  C11 UNL     1      44.370  -6.136  21.628  1.00  0.00     0.172 C
HETATM    7  C12 UNL     1      44.741  -6.774  22.910  1.00  0.00     0.083 C
HETATM    8  N3  UNL     1      44.321  -8.088  23.167  1.00  0.00    -0.369 N
HETATM    9  C23 UNL     1      43.586  -8.738  22.167  1.00  0.00     0.083 C
HETATM   10  C24 UNL     1      42.511  -7.851  21.560  1.00  0.00     0.172 C
ENDROOT
BRANCH   1  11
HETATM   11  C2  UNL     1      41.058  -5.850  17.949  1.00  0.00     0.082 C
HETATM   12  C1  UNL     1      41.487  -6.618  16.706  1.00  0.00     0.032 C
BRANCH  11  13
HETATM   13  C3  UNL     1      39.552  -5.735  17.889  1.00  0.00     0.025 C
BRANCH  13  14
HETATM   14  C4  UNL     1      39.064  -5.341  19.263  1.00  0.00     0.006 C
BRANCH  14  15
HETATM   15  C5  UNL     1      39.146  -3.842  19.473  1.00  0.00    -0.014 C
HETATM   16  C6  UNL     1      37.757  -3.249  19.397  1.00  0.00     0.004 C
HETATM   17  C7  UNL     1      37.955  -1.894  20.049  1.00  0.00     0.000 C
HETATM   18  C8  UNL     1      38.979  -2.138  21.122  1.00  0.00     0.000 C
HETATM   19  C9  UNL     1      39.564  -3.507  20.886  1.00  0.00     0.004 C
ENDBRANCH  14  15
ENDBRANCH  13  14
ENDBRANCH  11  13
ENDBRANCH   1  11
BRANCH   8  20
HETATM   20  C13 UNL     1      44.088  -8.414  24.524  1.00  0.00     0.154 C
BRANCH  20  21
HETATM   21  C14 UNL     1      43.131  -7.531  25.267  1.00  0.00     0.253 C
BRANCH  21  22
HETATM   22  N4  UNL     1      41.976  -8.243  25.758  1.00  0.00    -0.069 N
ATOM     23  H42 UNL     1      42.215  -9.173  26.102  1.00  0.00     0.277 HD
ATOM     24  H41 UNL     1      41.625  -7.852  26.632  1.00  0.00     0.277 HD
BRANCH  22  25
HETATM   25  C15 UNL     1      40.976  -8.284  24.749  1.00  0.00     0.194 C
HETATM   26  C16 UNL     1      40.270  -6.970  24.497  1.00  0.00     0.017 C
HETATM   27  C17 UNL     1      39.548  -6.792  25.815  1.00  0.00     0.011 C
HETATM   28  C21 UNL     1      39.225  -7.402  23.487  1.00  0.00     0.011 C
HETATM   29  C18 UNL     1      39.031  -8.206  26.063  1.00  0.00    -0.007 C
HETATM   30  C19 UNL     1      37.787  -8.455  25.198  1.00  0.00     0.010 C
HETATM   31  C22 UNL     1      39.769  -9.113  25.127  1.00  0.00     0.025 C
HETATM   32  C20 UNL     1      38.778  -8.729  24.058  1.00  0.00    -0.007 C
ENDBRANCH  22  25
ENDBRANCH  21  22
ENDBRANCH  20  21
ENDBRANCH   8  20
TORSDOF 8
ENDMDL