MODEL 1
REMARK VINA RESULT: -8.303978713      0.000      0.000
REMARK  8 active torsions:
REMARK  status: ('A' for Active; 'I' for Inactive)
REMARK    1  A    between atoms: C2_2  and  C3_3
REMARK    2  A    between atoms: C3_3  and  C4_4
REMARK    3  A    between atoms: C4_4  and  C5_5
REMARK    4  A    between atoms: C5_5  and  C6_6
REMARK    5  A    between atoms: C8_8  and  C9_9
REMARK       I    between atoms: C9_9  and  N1_11
REMARK    6  A    between atoms: N1_11  and  C10_13
REMARK    7  A    between atoms: C16_20  and  C17_21
REMARK       I    between atoms: C17_21  and  N3_23
REMARK    8  A    between atoms: N3_23  and  C18_25
ROOT
HETATM    1  C6  UNL     1      38.480  -4.518  19.495  1.00  0.00     0.009 C
HETATM    2  C7  UNL     1      38.900  -5.012  20.807  1.00  0.00    -0.009 C
HETATM    3  C8  UNL     1      39.302  -6.236  21.030  1.00  0.00     0.019 C
HETATM    4  C16 UNL     1      39.379  -7.244  19.970  1.00  0.00     0.116 C
HETATM    5  C23 UNL     1      38.754  -6.782  18.671  1.00  0.00     0.020 C
HETATM    6  C24 UNL     1      39.098  -5.325  18.404  1.00  0.00     0.009 C
ENDROOT
BRANCH   3   7
HETATM    7  C9  UNL     1      39.702  -6.645  22.370  1.00  0.00     0.248 C
HETATM    8  O1  UNL     1      40.937  -6.612  22.720  1.00  0.00    -0.268 OA
HETATM    9  N1  UNL     1      38.796  -7.096  23.358  1.00  0.00    -0.352 N
ATOM     10  H1  UNL     1      37.799  -7.149  23.150  1.00  0.00     0.163 HD
BRANCH   9  11
HETATM   11  C10 UNL     1      39.285  -7.485  24.668  1.00  0.00     0.087 C
HETATM   12  C11 UNL     1      38.296  -7.051  25.717  1.00  0.00     0.044 C
HETATM   13  C12 UNL     1      37.407  -8.138  26.202  1.00  0.00     0.118 C
HETATM   14  N2  UNL     1      37.108  -9.153  25.263  1.00  0.00    -0.416 N
HETATM   15  C13 UNL     1      36.042 -10.025  25.607  1.00  0.00     0.143 C
HETATM   16  C14 UNL     1      38.199  -9.722  24.566  1.00  0.00     0.118 C
HETATM   17  C15 UNL     1      39.500  -8.981  24.746  1.00  0.00     0.044 C
ENDBRANCH   9  11
ENDBRANCH   3   7
BRANCH   4  18
HETATM   18  C17 UNL     1      40.771  -7.662  19.702  1.00  0.00     0.226 C
HETATM   19  O2  UNL     1      40.997  -8.762  19.163  1.00  0.00    -0.273 OA
HETATM   20  N3  UNL     1      41.847  -6.821  20.055  1.00  0.00    -0.356 N
ATOM     21  H3  UNL     1      41.640  -5.925  20.496  1.00  0.00     0.162 HD
BRANCH  20  22
HETATM   22  C18 UNL     1      43.238  -7.173  19.819  1.00  0.00     0.084 C
HETATM   23  C19 UNL     1      43.721  -7.971  20.996  1.00  0.00     0.025 C
HETATM   24  C20 UNL     1      44.580  -7.061  21.840  1.00  0.00     0.002 C
HETATM   25  C21 UNL     1      44.182  -5.677  21.374  1.00  0.00     0.002 C
HETATM   26  C22 UNL     1      44.011  -5.858  19.883  1.00  0.00     0.025 C
ENDBRANCH  20  22
ENDBRANCH   4  18
BRANCH   1  27
HETATM   27  C5  UNL     1      38.809  -3.041  19.351  1.00  0.00     0.008 C
BRANCH  27  28
HETATM   28  C4  UNL     1      37.669  -2.232  19.895  1.00  0.00     0.001 C
BRANCH  28  29
HETATM   29  C3  UNL     1      38.143  -1.109  20.793  1.00  0.00    -0.000 C
BRANCH  29  30
HETATM   30  C2  UNL     1      39.562  -1.290  21.252  1.00  0.00    -0.005 C
HETATM   31  C1  UNL     1      39.543  -1.822  22.670  1.00  0.00     0.005 C
ENDBRANCH  29  30
ENDBRANCH  28  29
ENDBRANCH  27  28
ENDBRANCH   1  27
TORSDOF 8
ENDMDL