MODEL 4
REMARK VINA RESULT: -6.719675527      3.026      5.006
REMARK  9 active torsions:
REMARK  status: ('A' for Active; 'I' for Inactive)
REMARK    1  A    between atoms: C4_4  and  C5_5
REMARK    2  A    between atoms: C5_5  and  C6_6
REMARK       I    between atoms: C6_6  and  N1_8
REMARK    3  A    between atoms: N1_8  and  C7_10
REMARK    4  A    between atoms: C7_10  and  N2_12
REMARK    5  A    between atoms: N2_12  and  C8_14
REMARK    6  A    between atoms: C8_14  and  C9_15
REMARK    7  A    between atoms: C9_15  and  C10_16
REMARK    8  A    between atoms: C10_16  and  C11_17
REMARK    9  A    between atoms: C11_17  and  N3_18
ROOT
HETATM    1  C6  UNL     1      44.318  -6.714  20.724  1.00  0.00     0.224 C
HETATM    2  O1  UNL     1      44.490  -7.887  20.389  1.00  0.00    -0.273 OA
HETATM    3  N1  UNL     1      44.861  -6.143  21.869  1.00  0.00    -0.304 N
ATOM      4  H1  UNL     1      44.640  -5.158  22.022  1.00  0.00     0.171 HD
ENDROOT
BRANCH   1   5
HETATM    5  C5  UNL     1      43.474  -5.850  19.842  1.00  0.00     0.112 C
BRANCH   5   6
HETATM    6  C4  UNL     1      42.095  -6.384  19.549  1.00  0.00    -0.029 C
HETATM    7  C3  UNL     1      41.569  -6.941  20.847  1.00  0.00     0.041 C
HETATM    8  C2  UNL     1      40.826  -8.228  20.755  1.00  0.00     0.118 C
HETATM    9  C1  UNL     1      40.829  -8.811  22.187  1.00  0.00     0.039 C
HETATM   10  O2  UNL     1      39.520  -8.021  20.452  1.00  0.00    -0.381 OA
HETATM   11  C19 UNL     1      39.205  -7.828  19.127  1.00  0.00     0.122 C
HETATM   12  C18 UNL     1      40.067  -8.572  18.153  1.00  0.00     0.036 C
HETATM   13  C20 UNL     1      39.036  -6.382  18.814  1.00  0.00     0.036 C
HETATM   14  C17 UNL     1      41.229  -7.821  17.641  1.00  0.00    -0.011 C
HETATM   15  C16 UNL     1      40.744  -6.547  16.982  1.00  0.00     0.009 C
HETATM   16  C21 UNL     1      42.344  -7.502  18.534  1.00  0.00     0.014 C
HETATM   17  C15 UNL     1      40.151  -5.725  18.066  1.00  0.00    -0.011 C
HETATM   18  C14 UNL     1      41.247  -5.292  19.027  1.00  0.00     0.014 C
ENDBRANCH   5   6
ENDBRANCH   1   5
BRANCH   3  19
HETATM   19  C7  UNL     1      45.683  -6.753  22.854  1.00  0.00     0.174 C
HETATM   20  S1  UNL     1      46.038  -5.780  24.160  1.00  0.00    -0.041 SA
BRANCH  19  21
HETATM   21  N2  UNL     1      46.268  -7.991  22.737  1.00  0.00    -0.367 N
ATOM     22  H2  UNL     1      45.630  -8.750  22.977  1.00  0.00     0.161 HD
BRANCH  21  23
HETATM   23  C8  UNL     1      47.547  -8.455  22.363  1.00  0.00     0.122 C
BRANCH  23  24
HETATM   24  C9  UNL     1      47.651  -9.083  21.038  1.00  0.00     0.021 C
BRANCH  24  25
HETATM   25  C10 UNL     1      47.117 -10.413  20.793  1.00  0.00     0.032 C
BRANCH  25  26
HETATM   26  C11 UNL     1      48.155 -11.264  20.046  1.00  0.00     0.271 C
BRANCH  26  27
HETATM   27  N3  UNL     1      47.889 -11.323  18.653  1.00  0.00     0.080 N
HETATM   28  C12 UNL     1      48.669 -10.513  17.795  1.00  0.00     0.309 C
HETATM   29  C13 UNL     1      47.722 -12.662  18.198  1.00  0.00     0.309 C
ENDBRANCH  26  27
ENDBRANCH  25  26
ENDBRANCH  24  25
ENDBRANCH  23  24
ENDBRANCH  21  23
ENDBRANCH  19  21
ENDBRANCH   3  19
TORSDOF 9
ENDMDL