MODEL 3
REMARK VINA RESULT: -8.854969734      2.063      6.010
REMARK  8 active torsions:
REMARK  status: ('A' for Active; 'I' for Inactive)
REMARK    1  A    between atoms: C1_2  and  C2_3
REMARK    2  A    between atoms: C1_2  and  C10_14
REMARK    3  A    between atoms: C2_3  and  C3_4
REMARK    4  A    between atoms: C3_4  and  N1_5
REMARK       I    between atoms: N1_5  and  C4_7
REMARK    5  A    between atoms: C4_7  and  C5_9
REMARK    6  A    between atoms: C10_14  and  N2_15
REMARK       I    between atoms: N2_15  and  C11_16
REMARK    7  A    between atoms: N2_15  and  C18_26
REMARK       I    between atoms: C11_16  and  N3_18
REMARK    8  A    between atoms: N3_18  and  C12_20
ROOT
HETATM    1  N2  UNL     1      40.485  -5.194  21.489  1.00  0.00    -0.302 N
HETATM    2  C11 UNL     1      40.351  -6.226  22.418  1.00  0.00     0.323 C
HETATM    3  O3  UNL     1      41.411  -6.701  22.954  1.00  0.00    -0.247 OA
HETATM    4  N3  UNL     1      39.086  -6.751  22.780  1.00  0.00    -0.338 N
ATOM      5  H3  UNL     1      38.239  -6.372  22.355  1.00  0.00     0.164 HD
ENDROOT
BRANCH   1   6
HETATM    6  C10 UNL     1      41.808  -4.709  21.207  1.00  0.00     0.146 C
BRANCH   6   7
HETATM    7  C1  UNL     1      42.598  -5.392  20.207  1.00  0.00     0.166 C
HETATM    8  O1  UNL     1      42.386  -5.072  19.025  1.00  0.00    -0.292 OA
BRANCH   7   9
HETATM    9  C2  UNL     1      43.616  -6.423  20.433  1.00  0.00     0.104 C
BRANCH   9  10
HETATM   10  C3  UNL     1      43.046  -7.833  20.213  1.00  0.00     0.130 C
BRANCH  10  11
HETATM   11  N1  UNL     1      42.369  -7.864  18.921  1.00  0.00    -0.360 N
HETATM   12  C4  UNL     1      41.028  -8.275  18.830  1.00  0.00     0.221 C
HETATM   13  O2  UNL     1      40.407  -8.623  19.889  1.00  0.00    -0.273 OA
ATOM     14  H1  UNL     1      42.872  -7.585  18.078  1.00  0.00     0.162 HD
BRANCH  12  15
HETATM   15  C5  UNL     1      40.341  -8.304  17.514  1.00  0.00     0.078 C
HETATM   16  C6  UNL     1      40.718  -9.508  16.695  1.00  0.00     0.014 C
HETATM   17  C7  UNL     1      40.482  -9.045  15.280  1.00  0.00     0.001 C
HETATM   18  C8  UNL     1      41.078  -7.633  15.319  1.00  0.00     0.001 C
HETATM   19  C9  UNL     1      40.609  -7.103  16.670  1.00  0.00     0.014 C
ENDBRANCH  12  15
ENDBRANCH  10  11
ENDBRANCH   9  10
ENDBRANCH   7   9
ENDBRANCH   6   7
ENDBRANCH   1   6
BRANCH   1  20
HETATM   20  C18 UNL     1      39.352  -4.681  20.805  1.00  0.00     0.094 C
HETATM   21  C19 UNL     1      39.217  -5.245  19.387  1.00  0.00     0.026 C
HETATM   22  C20 UNL     1      38.009  -4.418  18.912  1.00  0.00     0.002 C
HETATM   23  C21 UNL     1      38.132  -3.092  19.589  1.00  0.00     0.002 C
HETATM   24  C22 UNL     1      39.370  -3.210  20.479  1.00  0.00     0.026 C
ENDBRANCH   1  20
BRANCH   4  25
HETATM   25  C12 UNL     1      38.985  -7.843  23.767  1.00  0.00     0.086 C
HETATM   26  C13 UNL     1      39.324  -9.150  23.089  1.00  0.00     0.025 C
HETATM   27  C14 UNL     1      39.682 -10.141  24.201  1.00  0.00     0.002 C
HETATM   28  C15 UNL     1      38.755  -9.885  25.349  1.00  0.00     0.000 C
HETATM   29  C16 UNL     1      37.434  -9.299  24.936  1.00  0.00     0.002 C
HETATM   30  C17 UNL     1      37.570  -7.954  24.286  1.00  0.00     0.025 C
ENDBRANCH   4  25
TORSDOF 8
ENDMDL