MODEL 1
REMARK VINA RESULT: -7.860966392      0.000      0.000
REMARK  13 active torsions:
REMARK  status: ('A' for Active; 'I' for Inactive)
REMARK    1  A    between atoms: C1_2  and  C2_3
REMARK    2  A    between atoms: C4_5  and  O2_6
REMARK    3  A    between atoms: O2_6  and  C5_7
REMARK    4  A    between atoms: C6_9  and  C7_10
REMARK    5  A    between atoms: C7_10  and  O4_11
REMARK    6  A    between atoms: C8_13  and  O5_14
REMARK    7  A    between atoms: C9_16  and  O6_17
REMARK    8  A    between atoms: C10_19  and  O7_20
REMARK    9  A    between atoms: C11_22  and  C12_23
REMARK   10  A    between atoms: C12_23  and  O8_24
REMARK   11  A    between atoms: C13_26  and  O9_27
REMARK   12  A    between atoms: O9_27  and  C14_28
REMARK   13  A    between atoms: C22_36  and  O10_37
ROOT
HETATM    1  C2  UNL     1       0.554  24.275  10.915  1.00  0.00     0.081 C
HETATM    2  C3  UNL     1       1.230  23.468   9.877  1.00  0.00     0.046 C
HETATM    3  C4  UNL     1       2.460  22.728  10.341  1.00  0.00     0.134 C
HETATM    4  C11 UNL     1       2.800  22.784  11.762  1.00  0.00     0.070 C
HETATM    5  C13 UNL     1       2.433  24.014  12.528  1.00  0.00     0.160 C
HETATM    6  C22 UNL     1       1.648  25.009  11.662  1.00  0.00     0.158 C
ENDROOT
BRANCH   3   7
HETATM    7  O2  UNL     1       3.476  23.181   9.479  1.00  0.00    -0.353 OA
BRANCH   7   8
HETATM    8  C5  UNL     1       3.893  22.209   8.566  1.00  0.00     0.292 C
HETATM    9  O3  UNL     1       3.389  22.662   7.338  1.00  0.00    -0.348 OA
HETATM   10  C6  UNL     1       3.950  22.047   6.241  1.00  0.00     0.179 C
HETATM   11  C8  UNL     1       5.406  22.544   6.223  1.00  0.00     0.180 C
HETATM   12  C9  UNL     1       6.084  21.830   7.339  1.00  0.00     0.183 C
HETATM   13  C10 UNL     1       5.339  21.964   8.624  1.00  0.00     0.204 C
BRANCH  10  14
HETATM   14  C7  UNL     1       3.257  22.565   5.011  1.00  0.00     0.198 C
BRANCH  14  15
HETATM   15  O4  UNL     1       1.902  22.749   5.358  1.00  0.00    -0.398 OA
ATOM     16  H4  UNL     1       1.606  23.523   4.894  1.00  0.00     0.209 HD
ENDBRANCH  14  15
ENDBRANCH  10  14
BRANCH  11  17
HETATM   17  O5  UNL     1       5.974  22.288   4.988  1.00  0.00    -0.390 OA
ATOM     18  H5  UNL     1       6.455  23.051   4.690  1.00  0.00     0.210 HD
ENDBRANCH  11  17
BRANCH  12  19
HETATM   19  O6  UNL     1       7.356  22.371   7.524  1.00  0.00    -0.390 OA
ATOM     20  H6  UNL     1       7.812  21.876   8.195  1.00  0.00     0.210 HD
ENDBRANCH  12  19
BRANCH  13  21
HETATM   21  O7  UNL     1       5.550  20.729   9.301  1.00  0.00    -0.388 OA
ATOM     22  H7  UNL     1       6.485  20.554   9.310  1.00  0.00     0.210 HD
ENDBRANCH  13  21
ENDBRANCH   7   8
ENDBRANCH   3   7
BRANCH   4  23
HETATM   23  C12 UNL     1       4.288  22.545  11.938  1.00  0.00     0.174 C
BRANCH  23  24
HETATM   24  O8  UNL     1       5.022  23.740  11.726  1.00  0.00    -0.400 OA
ATOM     25  H8  UNL     1       4.642  24.463  12.210  1.00  0.00     0.209 HD
ENDBRANCH  23  24
ENDBRANCH   4  23
BRANCH   1  26
HETATM   26  C1  UNL     1      -0.324  23.503  11.814  1.00  0.00     0.238 C
HETATM   27  O1  UNL     1      -1.315  22.971  11.342  1.00  0.00    -0.306 OA
ENDBRANCH   1  26
BRANCH   5  28
HETATM   28  O9  UNL     1       1.561  23.700  13.530  1.00  0.00    -0.377 OA
BRANCH  28  29
HETATM   29  C14 UNL     1       1.938  23.700  14.807  1.00  0.00     0.122 C
HETATM   30  C15 UNL     1       1.389  24.912  15.519  1.00  0.00     0.032 C
HETATM   31  C16 UNL     1       1.536  24.673  16.998  1.00  0.00     0.007 C
HETATM   32  C17 UNL     1       2.320  23.460  17.350  1.00  0.00    -0.010 C
HETATM   33  C18 UNL     1       3.262  23.785  18.513  1.00  0.00     0.005 C
HETATM   34  C20 UNL     1       3.578  23.268  16.536  1.00  0.00    -0.008 C
HETATM   35  C19 UNL     1       4.241  24.259  17.433  1.00  0.00     0.005 C
HETATM   36  C21 UNL     1       3.412  23.664  15.095  1.00  0.00     0.037 C
ENDBRANCH  28  29
ENDBRANCH   5  28
BRANCH   6  37
HETATM   37  O10 UNL     1       2.445  25.649  10.736  1.00  0.00    -0.392 OA
ATOM     38  H10 UNL     1       3.334  25.329  10.840  1.00  0.00     0.210 HD
ENDBRANCH   6  37
TORSDOF 13
ENDMDL