MODEL 3
REMARK VINA RESULT: -5.803556115      3.871      6.488
REMARK  14 active torsions:
REMARK  status: ('A' for Active; 'I' for Inactive)
REMARK    1  A    between atoms: C3_3  and  C4_4
REMARK    2  A    between atoms: C4_4  and  O1_5
REMARK    3  A    between atoms: O1_5  and  C5_6
REMARK       I    between atoms: C5_6  and  N1_8
REMARK    4  A    between atoms: N1_8  and  C6_10
REMARK    5  A    between atoms: C6_10  and  C7_11
REMARK    6  A    between atoms: C9_14  and  C10_15
REMARK    7  A    between atoms: C10_15  and  O4_16
REMARK    8  A    between atoms: C11_18  and  O5_19
REMARK    9  A    between atoms: C12_21  and  O6_22
REMARK   10  A    between atoms: C13_24  and  O7_25
REMARK   11  A    between atoms: O7_25  and  C14_26
REMARK   12  A    between atoms: C15_27  and  N2_28
REMARK   13  A    between atoms: C17_33  and  N3_34
REMARK   14  A    between atoms: C18_38  and  O8_39
ROOT
HETATM    1  C1  UNL     1       0.114  28.114  15.696  1.00  0.00     0.097 C
HETATM    2  C2  UNL     1       0.532  27.374  14.814  1.00  0.00    -0.182 C
HETATM    3  C3  UNL     1       1.072  26.561  13.810  1.00  0.00     0.151 C
ENDROOT
BRANCH   3   4
HETATM    4  C4  UNL     1       0.520  25.206  13.573  1.00  0.00     0.213 C
HETATM    5  O3  UNL     1       0.519  24.886  12.208  1.00  0.00    -0.341 OA
HETATM    6  C9  UNL     1      -0.353  25.437  11.374  1.00  0.00     0.180 C
HETATM    7  C11 UNL     1      -1.759  25.625  11.873  1.00  0.00     0.180 C
HETATM    8  C12 UNL     1      -1.943  24.808  13.130  1.00  0.00     0.183 C
HETATM    9  C13 UNL     1      -0.897  25.088  14.151  1.00  0.00     0.217 C
BRANCH   4  10
HETATM   10  O1  UNL     1       1.225  24.203  14.160  1.00  0.00    -0.262 OA
BRANCH  10  11
HETATM   11  C5  UNL     1       2.469  23.763  14.252  1.00  0.00     0.363 C
HETATM   12  O2  UNL     1       2.950  23.484  15.360  1.00  0.00    -0.238 OA
HETATM   13  N1  UNL     1       3.303  23.590  13.116  1.00  0.00    -0.337 N
ATOM     14  H1  UNL     1       2.910  23.825  12.205  1.00  0.00     0.164 HD
BRANCH  13  15
HETATM   15  C6  UNL     1       4.645  23.116  13.150  1.00  0.00     0.124 C
BRANCH  15  16
HETATM   16  C7  UNL     1       4.826  21.810  12.465  1.00  0.00     0.015 C
HETATM   17  C8  UNL     1       4.022  21.720  11.181  1.00  0.00     0.006 C
ENDBRANCH  15  16
ENDBRANCH  13  15
ENDBRANCH  10  11
ENDBRANCH   4  10
BRANCH   6  18
HETATM   18  C10 UNL     1       0.060  26.703  10.657  1.00  0.00     0.198 C
BRANCH  18  19
HETATM   19  O4  UNL     1       1.449  26.724  10.446  1.00  0.00    -0.398 OA
ATOM     20  H4  UNL     1       1.908  26.363  11.196  1.00  0.00     0.209 HD
ENDBRANCH  18  19
ENDBRANCH   6  18
BRANCH   7  21
HETATM   21  O5  UNL     1      -2.111  26.958  12.078  1.00  0.00    -0.390 OA
ATOM     22  H5  UNL     1      -3.045  27.098  12.182  1.00  0.00     0.210 HD
ENDBRANCH   7  21
BRANCH   8  23
HETATM   23  O6  UNL     1      -1.949  23.453  12.751  1.00  0.00    -0.390 OA
ATOM     24  H6  UNL     1      -2.856  23.192  12.649  1.00  0.00     0.210 HD
ENDBRANCH   8  23
BRANCH   9  25
HETATM   25  O7  UNL     1      -1.002  24.100  15.115  1.00  0.00    -0.370 OA
BRANCH  25  26
HETATM   26  C14 UNL     1      -1.128  24.548  16.410  1.00  0.00     0.159 C
HETATM   27  C15 UNL     1      -0.030  23.935  17.236  1.00  0.00     0.214 C
HETATM   28  C16 UNL     1      -0.477  23.398  18.568  1.00  0.00     0.070 C
HETATM   29  C17 UNL     1      -1.479  24.243  19.278  1.00  0.00     0.214 C
HETATM   30  C18 UNL     1      -2.611  24.653  18.396  1.00  0.00     0.157 C
HETATM   31  C20 UNL     1      -2.484  24.188  16.985  1.00  0.00     0.044 C
HETATM   32  C21 UNL     1      -2.815  22.736  16.891  1.00  0.00     0.015 C
BRANCH  27  33
HETATM   33  N2  UNL     1       1.054  24.901  17.419  1.00  0.00    -0.072 N
ATOM     34  H23 UNL     1       0.784  25.840  17.128  1.00  0.00     0.274 HD
ATOM     35  H22 UNL     1       1.231  25.096  18.403  1.00  0.00     0.274 HD
ATOM     36  H21 UNL     1       1.893  24.577  16.936  1.00  0.00     0.274 HD
ENDBRANCH  27  33
BRANCH  29  37
HETATM   37  N3  UNL     1      -1.963  23.469  20.423  1.00  0.00    -0.072 N
ATOM     38  H33 UNL     1      -2.980  23.478  20.509  1.00  0.00     0.274 HD
ATOM     39  H32 UNL     1      -1.850  22.463  20.301  1.00  0.00     0.274 HD
ATOM     40  H31 UNL     1      -1.488  23.828  21.251  1.00  0.00     0.274 HD
ENDBRANCH  29  37
BRANCH  30  41
HETATM   41  O8  UNL     1      -3.805  24.176  18.950  1.00  0.00    -0.388 OA
HETATM   42  C19 UNL     1      -4.794  25.163  18.922  1.00  0.00     0.202 C
ENDBRANCH  30  41
ENDBRANCH  25  26
ENDBRANCH   9  25
ENDBRANCH   3   4
TORSDOF 14
ENDMDL