MODEL 4
REMARK VINA RESULT: -7.231363859      3.043      7.124
REMARK  12 active torsions:
REMARK  status: ('A' for Active; 'I' for Inactive)
REMARK    1  A    between atoms: O1_2  and  C2_3
REMARK    2  A    between atoms: C3_5  and  S1_6
REMARK    3  A    between atoms: S1_6  and  C4_7
REMARK    4  A    between atoms: C4_7  and  C5_8
REMARK    5  A    between atoms: C5_8  and  C6_9
REMARK    6  A    between atoms: C6_9  and  N1_10
REMARK    7  A    between atoms: C8_15  and  C9_16
REMARK    8  A    between atoms: C11_19  and  O4_20
REMARK    9  A    between atoms: O4_20  and  C12_21
REMARK       I    between atoms: C12_21  and  N4_23
REMARK   10  A    between atoms: C15_26  and  O6_27
REMARK   11  A    between atoms: C16_29  and  O7_30
REMARK   12  A    between atoms: C17_32  and  O8_33
ROOT
HETATM    1  C2  UNL     1       3.951  22.941  15.039  1.00  0.00     0.291 C
HETATM    2  O2  UNL     1       3.033  23.989  14.974  1.00  0.00    -0.343 OA
HETATM    3  C3  UNL     1       2.316  23.796  13.795  1.00  0.00     0.195 C
HETATM    4  C8  UNL     1       3.152  23.849  12.552  1.00  0.00     0.088 C
HETATM    5  C16 UNL     1       4.600  23.625  12.720  1.00  0.00     0.161 C
HETATM    6  C17 UNL     1       5.071  23.310  14.093  1.00  0.00     0.202 C
ENDROOT
BRANCH   4   7
HETATM    7  C9  UNL     1       2.499  22.892  11.560  1.00  0.00     0.162 C
HETATM    8  O3  UNL     1       1.821  23.739  10.654  1.00  0.00    -0.380 OA
HETATM    9  C10 UNL     1       1.516  22.934   9.561  1.00  0.00     0.203 C
HETATM   10  C11 UNL     1       2.741  22.065   9.372  1.00  0.00     0.188 C
HETATM   11  C15 UNL     1       3.477  22.197  10.686  1.00  0.00     0.179 C
BRANCH  10  12
HETATM   12  O4  UNL     1       3.525  22.515   8.283  1.00  0.00    -0.294 OA
BRANCH  12  13
HETATM   13  C12 UNL     1       4.535  21.772   7.696  1.00  0.00     0.362 C
HETATM   14  O5  UNL     1       5.307  21.152   8.497  1.00  0.00    -0.238 OA
HETATM   15  N4  UNL     1       4.724  21.688   6.296  1.00  0.00    -0.337 N
HETATM   16  C13 UNL     1       3.831  22.405   5.421  1.00  0.00     0.154 C
HETATM   17  C14 UNL     1       5.798  20.892   5.766  1.00  0.00     0.154 C
ENDBRANCH  12  13
ENDBRANCH  10  12
BRANCH  11  18
HETATM   18  O6  UNL     1       3.791  20.909  11.117  1.00  0.00    -0.390 OA
ATOM     19  H6  UNL     1       3.218  20.589  11.803  1.00  0.00     0.210 HD
ENDBRANCH  11  18
ENDBRANCH   4   7
BRANCH   3  20
HETATM   20  S1  UNL     1       0.901  24.914  13.655  1.00  0.00    -0.137 SA
BRANCH  20  21
HETATM   21  C4  UNL     1       1.445  26.458  12.883  1.00  0.00     0.078 C
BRANCH  21  22
HETATM   22  C5  UNL     1       0.256  27.311  12.488  1.00  0.00     0.030 C
BRANCH  22  23
HETATM   23  C6  UNL     1       0.215  27.481  10.974  1.00  0.00     0.122 C
BRANCH  23  24
HETATM   24  N1  UNL     1      -0.128  26.204  10.353  1.00  0.00    -0.367 N
HETATM   25  C7  UNL     1      -1.331  25.964   9.946  1.00  0.00     0.196 C
HETATM   26  N2  UNL     1      -1.640  24.722   9.348  1.00  0.00    -0.067 NA
HETATM   27  N3  UNL     1      -2.352  26.940  10.092  1.00  0.00    -0.067 NA
ATOM     28  H1  UNL     1       0.593  25.492  10.239  1.00  0.00     0.161 HD
ENDBRANCH  23  24
ENDBRANCH  22  23
ENDBRANCH  21  22
ENDBRANCH  20  21
ENDBRANCH   3  20
BRANCH   5  29
HETATM   29  O7  UNL     1       5.319  24.760  12.279  1.00  0.00    -0.392 OA
ATOM     30  H7  UNL     1       5.893  25.070  12.969  1.00  0.00     0.210 HD
ENDBRANCH   5  29
BRANCH   6  31
HETATM   31  O8  UNL     1       6.010  22.276  14.138  1.00  0.00    -0.388 OA
ATOM     32  H8  UNL     1       6.475  22.280  13.309  1.00  0.00     0.210 HD
ENDBRANCH   6  31
BRANCH   1  33
HETATM   33  O1  UNL     1       4.409  22.678  16.298  1.00  0.00    -0.363 OA
HETATM   34  C1  UNL     1       4.252  23.712  17.194  1.00  0.00     0.204 C
ENDBRANCH   1  33
TORSDOF 12
ENDMDL