MODEL 3
REMARK VINA RESULT: -7.232096984      2.779      5.293
REMARK  11 active torsions:
REMARK  status: ('A' for Active; 'I' for Inactive)
REMARK    1  A    between atoms: C4_4  and  N1_5
REMARK    2  A    between atoms: C6_10  and  S1_11
REMARK    3  A    between atoms: S1_11  and  C7_12
REMARK    4  A    between atoms: C8_13  and  N2_14
REMARK       I    between atoms: N2_14  and  C9_16
REMARK       I    between atoms: C9_16  and  N5_21
REMARK    5  A    between atoms: N5_21  and  C11_23
REMARK    6  A    between atoms: C11_23  and  O1_24
REMARK    7  A    between atoms: C13_27  and  C14_28
REMARK    8  A    between atoms: C14_28  and  O2_29
REMARK    9  A    between atoms: O2_29  and  S2_30
REMARK   10  A    between atoms: S2_30  and  N6_31
REMARK   11  A    between atoms: C15_36  and  O5_37
ROOT
HETATM    1  N2  UNL     1       2.587  23.397  14.635  1.00  0.00    -0.220 N
ATOM      2  H2  UNL     1       1.793  22.757  14.660  1.00  0.00     0.178 HD
HETATM    3  C9  UNL     1       3.252  23.669  15.855  1.00  0.00     0.684 C
HETATM    4  N3  UNL     1       2.640  24.295  16.787  1.00  0.00    -0.126 N
ATOM      5  H3  UNL     1       3.116  24.493  17.667  1.00  0.00     0.197 HD
HETATM    6  C10 UNL     1       1.330  24.705  16.600  1.00  0.00     0.196 C
HETATM    7  N4  UNL     1       0.216  25.053  16.461  1.00  0.00    -0.171 NA
HETATM    8  N5  UNL     1       4.590  23.251  16.058  1.00  0.00    -0.205 N
ATOM      9  H5  UNL     1       5.241  23.888  16.518  1.00  0.00     0.179 HD
ENDROOT
BRANCH   1  10
HETATM   10  C8  UNL     1       2.950  23.954  13.372  1.00  0.00     0.116 C
HETATM   11  C7  UNL     1       1.788  24.651  12.666  1.00  0.00     0.102 C
HETATM   12  C15 UNL     1       2.336  24.669  11.253  1.00  0.00     0.140 C
HETATM   13  C13 UNL     1       2.709  23.180  11.095  1.00  0.00     0.043 C
HETATM   14  C12 UNL     1       3.338  22.861  12.415  1.00  0.00     0.036 C
BRANCH  11  15
HETATM   15  S1  UNL     1       1.572  26.326  13.241  1.00  0.00    -0.128 SA
BRANCH  15  16
HETATM   16  C6  UNL     1       0.275  27.196  12.343  1.00  0.00     0.185 C
HETATM   17  C5  UNL     1      -0.812  27.596  13.257  1.00  0.00     0.075 C
HETATM   18  C4  UNL     1      -2.202  27.611  12.678  1.00  0.00     0.189 C
HETATM   19  C3  UNL     1      -2.337  27.095  11.296  1.00  0.00     0.064 C
HETATM   20  C2  UNL     1      -1.090  26.941  10.505  1.00  0.00     0.121 C
HETATM   21  C1  UNL     1      -0.611  28.221   9.859  1.00  0.00     0.039 C
HETATM   22  O6  UNL     1      -0.124  26.349  11.311  1.00  0.00    -0.371 OA
BRANCH  18  23
HETATM   23  N1  UNL     1      -2.852  28.925  12.843  1.00  0.00    -0.075 N
ATOM     24  H13 UNL     1      -3.830  28.823  13.114  1.00  0.00     0.274 HD
ATOM     25  H12 UNL     1      -2.505  29.409  13.671  1.00  0.00     0.274 HD
ATOM     26  H11 UNL     1      -2.758  29.505  12.009  1.00  0.00     0.274 HD
ENDBRANCH  18  23
ENDBRANCH  15  16
ENDBRANCH  11  15
BRANCH  12  27
HETATM   27  O5  UNL     1       3.495  25.401  11.115  1.00  0.00    -0.394 OA
ATOM     28  H5  UNL     1       3.535  26.167  11.677  1.00  0.00     0.210 HD
ENDBRANCH  12  27
BRANCH  13  29
HETATM   29  C14 UNL     1       3.706  23.143   9.959  1.00  0.00     0.199 C
BRANCH  29  30
HETATM   30  O2  UNL     1       3.636  21.997   9.202  1.00  0.00    -0.259 OA
BRANCH  30  31
HETATM   31  S2  UNL     1       5.152  21.263   9.289  1.00  0.00     0.355 S
HETATM   32  O3  UNL     1       5.646  21.117   7.860  1.00  0.00    -0.176 OA
HETATM   33  O4  UNL     1       5.094  19.945   9.975  1.00  0.00    -0.176 OA
BRANCH  31  34
HETATM   34  N6  UNL     1       6.190  22.378  10.105  1.00  0.00    -0.306 N
ATOM     35  H62 UNL     1       5.901  23.246  10.557  1.00  0.00     0.171 HD
ATOM     36  H61 UNL     1       7.133  21.995  10.041  1.00  0.00     0.171 HD
ENDBRANCH  31  34
ENDBRANCH  30  31
ENDBRANCH  29  30
ENDBRANCH  13  29
ENDBRANCH   1  10
BRANCH   8  37
HETATM   37  C11 UNL     1       5.067  21.944  15.634  1.00  0.00     0.305 C
BRANCH  37  38
HETATM   38  O1  UNL     1       6.222  22.071  14.851  1.00  0.00    -0.382 OA
ATOM     39  H1  UNL     1       6.733  21.270  14.878  1.00  0.00     0.211 HD
ENDBRANCH  37  38
ENDBRANCH   8  37
TORSDOF 11
ENDMDL