MODEL 5
REMARK VINA RESULT: -7.051258479      2.334      7.629
REMARK  13 active torsions:
REMARK  status: ('A' for Active; 'I' for Inactive)
REMARK    1  A    between atoms: N1_1  and  C1_5
REMARK    2  A    between atoms: C1_5  and  O1_6
REMARK    3  A    between atoms: C1_5  and  C2_8
REMARK    4  A    between atoms: C2_8  and  C3_9
REMARK    5  A    between atoms: C2_8  and  C11_20
REMARK       I    between atoms: C3_9  and  N2_11
REMARK    6  A    between atoms: N2_11  and  C4_13
REMARK    7  A    between atoms: C11_20  and  O4_22
REMARK    8  A    between atoms: O4_22  and  C12_23
REMARK    9  A    between atoms: C13_24  and  N3_25
REMARK   10  A    between atoms: C15_30  and  N4_31
REMARK   11  A    between atoms: C16_35  and  O5_36
REMARK   12  A    between atoms: C17_38  and  O6_39
REMARK   13  A    between atoms: O6_39  and  C18_40
ROOT
HETATM    1  C12 UNL     1       3.438  22.228   9.928  1.00  0.00     0.193 C
HETATM    2  C13 UNL     1       3.760  22.033   8.460  1.00  0.00     0.217 C
HETATM    3  C14 UNL     1       5.170  22.502   8.235  1.00  0.00     0.071 C
HETATM    4  C15 UNL     1       6.090  21.515   8.913  1.00  0.00     0.216 C
HETATM    5  C16 UNL     1       5.594  21.180  10.295  1.00  0.00     0.180 C
HETATM    6  C17 UNL     1       4.670  22.286  10.781  1.00  0.00     0.184 C
ENDROOT
BRANCH   1   7
HETATM    7  O4  UNL     1       2.594  23.354  10.090  1.00  0.00    -0.310 OA
BRANCH   7   8
HETATM    8  C11 UNL     1       1.214  23.255   9.988  1.00  0.00     0.277 C
HETATM    9  O3  UNL     1       0.748  22.876   8.876  1.00  0.00    -0.264 OA
BRANCH   8  10
HETATM   10  C2  UNL     1       0.342  23.578  11.123  1.00  0.00     0.233 C
BRANCH  10  11
HETATM   11  C1  UNL     1      -1.111  23.421  10.674  1.00  0.00     0.339 C
BRANCH  11  12
HETATM   12  N1  UNL     1      -1.428  24.579   9.857  1.00  0.00    -0.052 N
ATOM     13  H13 UNL     1      -2.390  24.888  10.000  1.00  0.00     0.277 HD
ATOM     14  H12 UNL     1      -0.945  25.415  10.186  1.00  0.00     0.277 HD
ATOM     15  H11 UNL     1      -1.236  24.397   8.872  1.00  0.00     0.277 HD
ENDBRANCH  11  12
BRANCH  11  16
HETATM   16  O1  UNL     1      -1.966  23.332  11.770  1.00  0.00    -0.369 OA
ATOM     17  H1  UNL     1      -2.281  22.443  11.887  1.00  0.00     0.212 HD
ENDBRANCH  11  16
ENDBRANCH  10  11
BRANCH  10  18
HETATM   18  C3  UNL     1       0.563  24.934  11.657  1.00  0.00     0.236 C
HETATM   19  O2  UNL     1       1.192  25.795  11.002  1.00  0.00    -0.272 OA
HETATM   20  N2  UNL     1       0.074  25.320  12.933  1.00  0.00    -0.356 N
ATOM     21  H2  UNL     1      -0.442  24.634  13.486  1.00  0.00     0.162 HD
BRANCH  20  22
HETATM   22  C4  UNL     1       0.274  26.642  13.484  1.00  0.00     0.084 C
HETATM   23  C5  UNL     1      -0.871  27.539  13.085  1.00  0.00     0.025 C
HETATM   24  C6  UNL     1      -2.047  27.412  14.029  1.00  0.00     0.002 C
HETATM   25  C7  UNL     1      -2.067  28.535  15.043  1.00  0.00     0.000 C
HETATM   26  C8  UNL     1      -1.033  28.212  16.109  1.00  0.00     0.000 C
HETATM   27  C9  UNL     1       0.342  28.001  15.507  1.00  0.00     0.002 C
HETATM   28  C10 UNL     1       0.462  26.598  14.988  1.00  0.00     0.025 C
ENDBRANCH  20  22
ENDBRANCH  10  18
ENDBRANCH   8  10
ENDBRANCH   7   8
ENDBRANCH   1   7
BRANCH   2  29
HETATM   29  N3  UNL     1       3.701  20.615   8.177  1.00  0.00    -0.072 N
ATOM     30  H33 UNL     1       4.441  20.088   8.639  1.00  0.00     0.274 HD
ATOM     31  H32 UNL     1       2.907  20.156   8.624  1.00  0.00     0.274 HD
ATOM     32  H31 UNL     1       3.706  20.497   7.164  1.00  0.00     0.274 HD
ENDBRANCH   2  29
BRANCH   6  33
HETATM   33  O6  UNL     1       4.266  22.074  12.091  1.00  0.00    -0.375 OA
BRANCH  33  34
HETATM   34  C18 UNL     1       4.722  22.970  13.000  1.00  0.00     0.125 C
HETATM   35  C19 UNL     1       4.991  22.194  14.301  1.00  0.00     0.059 C
HETATM   36  C20 UNL     1       4.687  23.030  15.522  1.00  0.00     0.235 C
HETATM   37  N5  UNL     1       3.275  23.242  15.619  1.00  0.00    -0.075 N
HETATM   38  C21 UNL     1       2.671  23.556  14.329  1.00  0.00     0.235 C
ATOM     39  H52 UNL     1       2.812  22.446  16.059  1.00  0.00     0.277 HD
ATOM     40  H51 UNL     1       3.057  23.959  16.311  1.00  0.00     0.277 HD
HETATM   41  C22 UNL     1       3.739  24.047  13.375  1.00  0.00     0.059 C
ENDBRANCH  33  34
ENDBRANCH   6  33
BRANCH   5  42
HETATM   42  O5  UNL     1       6.757  21.131  11.104  1.00  0.00    -0.391 OA
ATOM     43  H5  UNL     1       7.372  20.593  10.621  1.00  0.00     0.210 HD
ENDBRANCH   5  42
BRANCH   4  44
HETATM   44  N4  UNL     1       7.399  22.192   8.980  1.00  0.00    -0.072 N
ATOM     45  H43 UNL     1       7.500  22.959   8.317  1.00  0.00     0.274 HD
ATOM     46  H42 UNL     1       7.532  22.748   9.825  1.00  0.00     0.274 HD
ATOM     47  H41 UNL     1       8.089  21.450   8.862  1.00  0.00     0.274 HD
ENDBRANCH   4  44
TORSDOF 13
ENDMDL