MODEL 5
REMARK VINA RESULT: -7.408496135      5.033      7.642
REMARK  15 active torsions:
REMARK  status: ('A' for Active; 'I' for Inactive)
REMARK    1  A    between atoms: N1_1  and  C1_5
REMARK    2  A    between atoms: C1_5  and  C2_6
REMARK    3  A    between atoms: N2_11  and  C6_13
REMARK    4  A    between atoms: C6_13  and  C7_14
REMARK    5  A    between atoms: C7_14  and  C8_15
REMARK    6  A    between atoms: C8_15  and  C9_16
REMARK    7  A    between atoms: C10_17  and  C11_18
REMARK    8  A    between atoms: C11_18  and  C12_19
REMARK    9  A    between atoms: C12_19  and  O2_20
REMARK   10  A    between atoms: O2_20  and  C13_21
REMARK   11  A    between atoms: C14_22  and  N3_23
REMARK   12  A    between atoms: C15_27  and  N4_28
REMARK   13  A    between atoms: C17_33  and  N5_34
REMARK   14  A    between atoms: C18_38  and  O3_39
REMARK   15  A    between atoms: C19_41  and  O4_42
ROOT
HETATM    1  C13 UNL     1      -0.959  24.031  18.455  1.00  0.00     0.185 C
HETATM    2  C14 UNL     1      -0.946  22.549  18.640  1.00  0.00     0.245 C
HETATM    3  C15 UNL     1      -0.923  22.113  20.079  1.00  0.00     0.218 C
HETATM    4  C16 UNL     1       0.489  22.182  20.555  1.00  0.00     0.070 C
HETATM    5  C17 UNL     1       1.109  23.533  20.530  1.00  0.00     0.216 C
HETATM    6  C18 UNL     1       0.179  24.683  20.629  1.00  0.00     0.179 C
HETATM    7  C19 UNL     1      -0.933  24.817  19.726  1.00  0.00     0.180 C
ENDROOT
BRANCH   1   8
HETATM    8  O2  UNL     1      -0.029  24.469  17.512  1.00  0.00    -0.380 OA
BRANCH   8   9
HETATM    9  C12 UNL     1      -0.354  24.157  16.219  1.00  0.00     0.180 C
BRANCH   9  10
HETATM   10  C11 UNL     1       0.736  24.697  15.320  1.00  0.00     0.120 C
BRANCH  10  11
HETATM   11  C10 UNL     1       2.011  24.110  15.798  1.00  0.00    -0.104 C
HETATM   12  C9  UNL     1       3.048  23.620  16.170  1.00  0.00    -0.106 C
BRANCH  12  13
HETATM   13  C8  UNL     1       4.302  23.014  16.600  1.00  0.00     0.095 C
BRANCH  13  14
HETATM   14  C7  UNL     1       4.893  22.177  15.458  1.00  0.00     0.032 C
BRANCH  14  15
HETATM   15  C6  UNL     1       4.521  22.777  14.121  1.00  0.00     0.122 C
BRANCH  15  16
HETATM   16  N2  UNL     1       5.141  22.041  13.042  1.00  0.00    -0.374 N
HETATM   17  C5  UNL     1       5.263  22.443  11.845  1.00  0.00     0.123 C
HETATM   18  O1  UNL     1       5.898  21.550  10.994  1.00  0.00    -0.334 OA
HETATM   19  C20 UNL     1       4.745  23.775  11.445  1.00  0.00     0.158 C
HETATM   20  C4  UNL     1       5.910  21.544   9.561  1.00  0.00     0.212 C
HETATM   21  C3  UNL     1       4.543  21.698   9.020  1.00  0.00    -0.049 C
HETATM   22  C2  UNL     1       4.439  21.683   7.715  1.00  0.00     0.006 C
HETATM   23  C21 UNL     1       3.276  21.867   9.773  1.00  0.00     0.110 C
HETATM   24  S1  UNL     1       3.165  23.493  10.567  1.00  0.00    -0.157 SA
ATOM     25  H2  UNL     1       5.514  21.118  13.262  1.00  0.00     0.161 HD
BRANCH  22  26
HETATM   26  C1  UNL     1       5.593  21.524   6.797  1.00  0.00     0.257 C
BRANCH  26  27
HETATM   27  N1  UNL     1       5.272  20.684   5.659  1.00  0.00    -0.076 N
ATOM     28  H13 UNL     1       4.479  21.056   5.136  1.00  0.00     0.274 HD
ATOM     29  H12 UNL     1       5.988  20.751   4.935  1.00  0.00     0.274 HD
ATOM     30  H11 UNL     1       5.113  19.714   5.932  1.00  0.00     0.274 HD
ENDBRANCH  26  27
ENDBRANCH  22  26
ENDBRANCH  15  16
ENDBRANCH  14  15
ENDBRANCH  13  14
ENDBRANCH  12  13
ENDBRANCH  10  11
ENDBRANCH   9  10
ENDBRANCH   8   9
ENDBRANCH   1   8
BRANCH   2  31
HETATM   31  N3  UNL     1      -2.105  21.889  18.026  1.00  0.00    -0.070 N
ATOM     32  H33 UNL     1      -2.888  21.843  18.679  1.00  0.00     0.274 HD
ATOM     33  H32 UNL     1      -2.524  22.479  17.307  1.00  0.00     0.274 HD
ATOM     34  H31 UNL     1      -1.883  20.965  17.655  1.00  0.00     0.274 HD
ENDBRANCH   2  31
BRANCH   7  35
HETATM   35  O4  UNL     1      -1.088  26.173  19.334  1.00  0.00    -0.390 OA
ATOM     36  H4  UNL     1      -1.997  26.385  19.513  1.00  0.00     0.210 HD
ENDBRANCH   7  35
BRANCH   3  37
HETATM   37  N4  UNL     1      -1.302  20.692  20.083  1.00  0.00    -0.073 N
ATOM     38  H43 UNL     1      -1.634  20.363  20.990  1.00  0.00     0.274 HD
ATOM     39  H42 UNL     1      -2.156  20.498  19.559  1.00  0.00     0.274 HD
ATOM     40  H41 UNL     1      -0.490  20.179  19.738  1.00  0.00     0.274 HD
ENDBRANCH   3  37
BRANCH   6  41
HETATM   41  O3  UNL     1      -0.301  24.683  21.966  1.00  0.00    -0.391 OA
ATOM     42  H3  UNL     1      -0.464  25.592  22.185  1.00  0.00     0.210 HD
ENDBRANCH   6  41
BRANCH   5  43
HETATM   43  N5  UNL     1       2.098  23.651  19.481  1.00  0.00    -0.072 N
ATOM     44  H53 UNL     1       1.841  24.374  18.809  1.00  0.00     0.274 HD
ATOM     45  H52 UNL     1       2.965  24.059  19.832  1.00  0.00     0.274 HD
ATOM     46  H51 UNL     1       2.268  22.758  19.020  1.00  0.00     0.274 HD
ENDBRANCH   5  43
TORSDOF 15
ENDMDL