MODEL 1
REMARK VINA RESULT: -7.890665364      0.000      0.000
REMARK  13 active torsions:
REMARK  status: ('A' for Active; 'I' for Inactive)
REMARK    1  A    between atoms: C2_2  and  N1_3
REMARK       I    between atoms: N1_3  and  C3_5
REMARK    2  A    between atoms: C3_5  and  C4_7
REMARK    3  A    between atoms: C4_7  and  C5_8
REMARK    4  A    between atoms: C10_13  and  O2_14
REMARK    5  A    between atoms: O2_14  and  C11_15
REMARK    6  A    between atoms: C12_17  and  C13_18
REMARK    7  A    between atoms: C13_18  and  O4_19
REMARK    8  A    between atoms: O4_19  and  C14_20
REMARK    9  A    between atoms: C15_22  and  N2_23
REMARK   10  A    between atoms: C17_28  and  N3_29
REMARK   11  A    between atoms: C18_33  and  O6_34
REMARK   12  A    between atoms: C20_37  and  O7_38
REMARK   13  A    between atoms: C21_40  and  O8_41
ROOT
HETATM    1  C11 UNL     1       3.467  23.794  11.239  1.00  0.00     0.291 C
HETATM    2  O3  UNL     1       3.754  22.953  10.202  1.00  0.00    -0.351 OA
HETATM    3  C12 UNL     1       3.856  21.631  10.516  1.00  0.00     0.151 C
HETATM    4  C19 UNL     1       4.144  21.291  11.933  1.00  0.00     0.068 C
HETATM    5  C20 UNL     1       5.022  22.331  12.546  1.00  0.00     0.154 C
HETATM    6  C21 UNL     1       4.565  23.722  12.239  1.00  0.00     0.202 C
ENDROOT
BRANCH   3   7
HETATM    7  C13 UNL     1       4.868  20.899   9.634  1.00  0.00     0.203 C
BRANCH   7   8
HETATM    8  O4  UNL     1       5.767  21.795   9.123  1.00  0.00    -0.356 OA
BRANCH   8   9
HETATM    9  C14 UNL     1       5.850  21.828   7.760  1.00  0.00     0.293 C
HETATM   10  O5  UNL     1       4.636  22.083   7.130  1.00  0.00    -0.326 OA
HETATM   11  C15 UNL     1       4.787  21.922   5.777  1.00  0.00     0.323 C
HETATM   12  C16 UNL     1       5.752  22.906   5.159  1.00  0.00     0.096 C
HETATM   13  C17 UNL     1       7.029  23.031   5.934  1.00  0.00     0.221 C
HETATM   14  C18 UNL     1       6.769  23.004   7.402  1.00  0.00     0.203 C
BRANCH  11  15
HETATM   15  N2  UNL     1       5.144  20.554   5.407  1.00  0.00    -0.053 N
ATOM     16  H23 UNL     1       6.101  20.507   5.058  1.00  0.00     0.277 HD
ATOM     17  H22 UNL     1       5.241  19.965   6.234  1.00  0.00     0.277 HD
ATOM     18  H21 UNL     1       4.491  20.143   4.740  1.00  0.00     0.277 HD
ENDBRANCH  11  15
BRANCH  13  19
HETATM   19  N3  UNL     1       8.039  22.071   5.537  1.00  0.00    -0.072 N
ATOM     20  H33 UNL     1       7.955  21.212   6.080  1.00  0.00     0.274 HD
ATOM     21  H32 UNL     1       7.842  21.703   4.607  1.00  0.00     0.274 HD
ATOM     22  H31 UNL     1       8.989  22.439   5.588  1.00  0.00     0.274 HD
ENDBRANCH  13  19
BRANCH  14  23
HETATM   23  O6  UNL     1       7.942  22.962   8.144  1.00  0.00    -0.389 OA
ATOM     24  H6  UNL     1       8.631  23.461   7.720  1.00  0.00     0.210 HD
ENDBRANCH  14  23
ENDBRANCH   8   9
ENDBRANCH   7   8
ENDBRANCH   3   7
BRANCH   1  25
HETATM   25  O2  UNL     1       2.200  23.603  11.753  1.00  0.00    -0.353 OA
BRANCH  25  26
HETATM   26  C10 UNL     1       1.500  24.773  11.915  1.00  0.00     0.129 C
HETATM   27  C5  UNL     1       1.584  25.231  13.369  1.00  0.00     0.023 C
HETATM   28  C6  UNL     1       1.120  26.637  13.429  1.00  0.00     0.007 C
HETATM   29  C7  UNL     1      -0.211  26.885  12.767  1.00  0.00     0.001 C
HETATM   30  C8  UNL     1      -0.432  26.164  11.492  1.00  0.00     0.002 C
HETATM   31  C9  UNL     1       0.065  24.713  11.546  1.00  0.00     0.032 C
BRANCH  27  32
HETATM   32  C4  UNL     1       0.949  24.275  14.309  1.00  0.00     0.110 C
BRANCH  32  33
HETATM   33  C3  UNL     1       1.843  23.967  15.440  1.00  0.00     0.217 C
HETATM   34  N1  UNL     1       1.410  24.043  16.796  1.00  0.00    -0.361 N
ATOM     35  H1  UNL     1       0.448  24.321  16.988  1.00  0.00     0.162 HD
HETATM   36  O1  UNL     1       3.026  23.623  15.256  1.00  0.00    -0.274 OA
BRANCH  34  37
HETATM   37  C2  UNL     1       2.282  23.742  17.910  1.00  0.00     0.118 C
HETATM   38  C1  UNL     1       1.492  23.618  19.194  1.00  0.00     0.026 C
ENDBRANCH  34  37
ENDBRANCH  32  33
ENDBRANCH  27  32
ENDBRANCH  25  26
ENDBRANCH   1  25
BRANCH   5  39
HETATM   39  O7  UNL     1       5.195  22.129  13.929  1.00  0.00    -0.393 OA
ATOM     40  H7  UNL     1       6.014  22.494  14.243  1.00  0.00     0.210 HD
ENDBRANCH   5  39
BRANCH   6  41
HETATM   41  O8  UNL     1       5.650  24.463  11.710  1.00  0.00    -0.388 OA
ATOM     42  H8  UNL     1       6.309  23.833  11.443  1.00  0.00     0.210 HD
ENDBRANCH   6  41
TORSDOF 13
ENDMDL