MODEL 3
REMARK VINA RESULT: -7.067503861      0.779      1.086
REMARK  11 active torsions:
REMARK  status: ('A' for Active; 'I' for Inactive)
REMARK    1  A    between atoms: C1_2  and  C2_4
REMARK    2  A    between atoms: C2_4  and  N1_5
REMARK    3  A    between atoms: N1_5  and  C3_7
REMARK    4  A    between atoms: C6_11  and  O4_12
REMARK    5  A    between atoms: C7_14  and  O5_15
REMARK    6  A    between atoms: C8_17  and  O6_18
REMARK    7  A    between atoms: O6_18  and  C9_19
REMARK    8  A    between atoms: C12_22  and  O7_23
REMARK    9  A    between atoms: O7_23  and  C13_24
REMARK   10  A    between atoms: C19_31  and  O9_32
REMARK   11  A    between atoms: C21_35  and  O10_36
ROOT
HETATM    1  C9  UNL     1       0.108  24.762  14.089  1.00  0.00     0.151 C
HETATM    2  C10 UNL     1       0.878  23.926  13.114  1.00  0.00     0.047 C
HETATM    3  C11 UNL     1       1.371  24.613  11.899  1.00  0.00     0.080 C
HETATM    4  C12 UNL     1       2.865  24.976  12.039  1.00  0.00     0.267 C
HETATM    5  O8  UNL     1       2.935  26.354  11.802  1.00  0.00    -0.358 OA
HETATM    6  C18 UNL     1       1.910  26.637  10.899  1.00  0.00     0.209 C
HETATM    7  C19 UNL     1       0.717  25.855  11.448  1.00  0.00     0.090 C
HETATM    8  C20 UNL     1       0.135  26.638  12.561  1.00  0.00     0.075 C
HETATM    9  C21 UNL     1      -0.782  25.746  13.372  1.00  0.00     0.150 C
ENDROOT
BRANCH   1  10
HETATM   10  O6  UNL     1       0.936  25.296  15.032  1.00  0.00    -0.373 OA
BRANCH  10  11
HETATM   11  C8  UNL     1       0.790  24.867  16.310  1.00  0.00     0.177 C
HETATM   12  C3  UNL     1       2.096  24.460  16.929  1.00  0.00     0.132 C
HETATM   13  C4  UNL     1       1.792  23.751  18.248  1.00  0.00     0.195 C
HETATM   14  O3  UNL     1       0.418  23.558  18.312  1.00  0.00    -0.386 OA
HETATM   15  C5  UNL     1      -0.223  24.540  19.059  1.00  0.00     0.201 C
HETATM   16  C6  UNL     1      -0.819  25.569  18.104  1.00  0.00     0.173 C
HETATM   17  C7  UNL     1       0.304  26.037  17.205  1.00  0.00     0.180 C
BRANCH  12  18
HETATM   18  N1  UNL     1       2.882  23.650  16.057  1.00  0.00    -0.403 N
ATOM     19  H1  UNL     1       2.525  23.345  15.151  1.00  0.00     0.154 HD
BRANCH  18  20
HETATM   20  C2  UNL     1       4.182  23.283  16.497  1.00  0.00     0.228 C
BRANCH  20  21
HETATM   21  C1  UNL     1       4.895  22.492  15.508  1.00  0.00     0.190 C
HETATM   22  O1  UNL     1       5.315  21.345  15.694  1.00  0.00    -0.647 OA
HETATM   23  O2  UNL     1       5.101  23.123  14.254  1.00  0.00    -0.647 OA
ENDBRANCH  20  21
ENDBRANCH  18  20
ENDBRANCH  12  18
BRANCH  16  24
HETATM   24  O4  UNL     1      -1.771  24.882  17.333  1.00  0.00    -0.391 OA
ATOM     25  H4  UNL     1      -1.509  24.995  16.426  1.00  0.00     0.210 HD
ENDBRANCH  16  24
BRANCH  17  26
HETATM   26  O5  UNL     1       0.028  27.169  16.486  1.00  0.00    -0.390 OA
ATOM     27  H5  UNL     1       0.790  27.607  16.126  1.00  0.00     0.210 HD
ENDBRANCH  17  26
ENDBRANCH  10  11
ENDBRANCH   1  10
BRANCH   9  28
HETATM   28  O10 UNL     1      -1.586  25.064  12.425  1.00  0.00    -0.393 OA
ATOM     29  H10 UNL     1      -1.632  24.141  12.648  1.00  0.00     0.210 HD
ENDBRANCH   9  28
BRANCH   4  30
HETATM   30  O7  UNL     1       3.535  24.234  11.127  1.00  0.00    -0.356 OA
BRANCH  30  31
HETATM   31  C13 UNL     1       3.054  23.052  10.701  1.00  0.00     0.124 C
HETATM   32  C14 UNL     1       2.997  22.915   9.191  1.00  0.00     0.032 C
HETATM   33  C15 UNL     1       3.838  21.716   8.829  1.00  0.00     0.002 C
HETATM   34  C16 UNL     1       4.732  21.515  10.011  1.00  0.00     0.002 C
HETATM   35  C17 UNL     1       3.796  21.830  11.174  1.00  0.00     0.032 C
ENDBRANCH  30  31
ENDBRANCH   4  30
BRANCH   7  36
HETATM   36  O9  UNL     1      -0.151  25.679  10.372  1.00  0.00    -0.387 OA
ATOM     37  H9  UNL     1      -1.057  25.878  10.571  1.00  0.00     0.210 HD
ENDBRANCH   7  36
TORSDOF 11
ENDMDL