MODEL 3
REMARK VINA RESULT: -7.522802078      4.098      7.098
REMARK  10 active torsions:
REMARK  status: ('A' for Active; 'I' for Inactive)
REMARK    1  A    between atoms: O1_1  and  C1_3
REMARK    2  A    between atoms: C1_3  and  N1_4
REMARK    3  A    between atoms: C1_3  and  N7_33
REMARK    4  A    between atoms: C2_6  and  C3_7
REMARK    5  A    between atoms: C3_7  and  O2_8
REMARK    6  A    between atoms: O2_8  and  N2_9
REMARK    7  A    between atoms: N2_9  and  C4_10
REMARK    8  A    between atoms: C4_10  and  C5_11
REMARK    9  A    between atoms: N7_33  and  C16_34
REMARK   10  A    between atoms: C16_34  and  C17_35
ROOT
HETATM    1  C5  UNL     1       0.469  24.194   9.972  1.00  0.00     0.229 C
HETATM    2  N3  UNL     1       0.998  25.122  10.958  1.00  0.00    -0.395 N
ATOM      3  H3  UNL     1       1.427  24.762  11.811  1.00  0.00     0.155 HD
HETATM    4  C6  UNL     1       0.924  26.506  10.746  1.00  0.00     0.135 C
HETATM    5  C7  UNL     1       1.047  27.163  12.123  1.00  0.00     0.133 C
HETATM    6  N4  UNL     1       1.403  26.293  13.181  1.00  0.00    -0.418 N
ATOM      7  H4  UNL     1       2.207  25.668  13.117  1.00  0.00     0.153 HD
HETATM    8  C8  UNL     1       0.561  26.338  14.364  1.00  0.00     0.141 C
HETATM    9  C9  UNL     1       0.169  27.705  14.831  1.00  0.00     0.251 C
HETATM   10  N5  UNL     1      -1.171  27.734  15.387  1.00  0.00    -0.072 N
ATOM     11  H51 UNL     1      -1.195  28.233  16.276  1.00  0.00     0.277 HD
ATOM     12  H52 UNL     1      -1.459  26.812  15.714  1.00  0.00     0.277 HD
HETATM   13  C10 UNL     1      -2.126  28.286  14.440  1.00  0.00     0.258 C
HETATM   14  C11 UNL     1      -3.079  27.179  14.014  1.00  0.00     0.195 C
HETATM   15  O3  UNL     1      -3.366  27.273  12.669  1.00  0.00    -0.387 OA
HETATM   16  C12 UNL     1      -2.803  26.259  11.887  1.00  0.00     0.193 C
HETATM   17  C13 UNL     1      -3.644  25.034  11.804  1.00  0.00     0.193 C
HETATM   18  O4  UNL     1      -3.055  23.997  12.557  1.00  0.00    -0.387 OA
HETATM   19  C14 UNL     1      -2.559  22.977  11.773  1.00  0.00     0.187 C
HETATM   20  C15 UNL     1      -1.041  23.100  11.519  1.00  0.00     0.142 C
HETATM   21  N6  UNL     1      -0.871  23.796  10.286  1.00  0.00    -0.395 N
ATOM     22  H6  UNL     1      -1.656  23.999   9.666  1.00  0.00     0.155 HD
ENDROOT
BRANCH   1  23
HETATM   23  C4  UNL     1       1.427  23.038  10.219  1.00  0.00     0.236 C
BRANCH  23  24
HETATM   24  N2  UNL     1       2.340  22.932   9.511  1.00  0.00    -0.294 NA
BRANCH  24  25
HETATM   25  O2  UNL     1       3.312  22.838   8.716  1.00  0.00    -0.205 OA
BRANCH  25  26
HETATM   26  C3  UNL     1       3.579  21.373   8.308  1.00  0.00     0.262 C
BRANCH  26  27
HETATM   27  C2  UNL     1       5.077  21.472   8.377  1.00  0.00     0.095 C
HETATM   28  N1  UNL     1       5.631  22.152   9.411  1.00  0.00    -0.322 N
ATOM     29  H1  UNL     1       6.054  23.040   9.140  1.00  0.00     0.169 HD
BRANCH  28  30
HETATM   30  C1  UNL     1       5.737  21.863  10.822  1.00  0.00     0.292 C
BRANCH  30  31
HETATM   31  O1  UNL     1       6.536  20.858  11.107  1.00  0.00    -0.322 OA
ATOM     32  H1  UNL     1       6.270  20.353  11.866  1.00  0.00     0.222 HD
ENDBRANCH  30  31
BRANCH  30  33
HETATM   33  N7  UNL     1       5.102  22.587  11.645  1.00  0.00    -0.405 NA
BRANCH  33  34
HETATM   34  C16 UNL     1       4.514  23.728  12.236  1.00  0.00     0.262 C
BRANCH  34  35
HETATM   35  C17 UNL     1       4.299  23.206  13.665  1.00  0.00    -0.013 A
HETATM   36  C18 UNL     1       3.187  23.600  14.312  1.00  0.00     0.012 A
HETATM   37  C19 UNL     1       3.169  23.410  15.692  1.00  0.00     0.018 A
HETATM   38  C20 UNL     1       4.270  22.826  16.326  1.00  0.00     0.087 A
HETATM   39  N8  UNL     1       5.334  22.447  15.620  1.00  0.00    -0.375 N
HETATM   40  C21 UNL     1       5.368  22.631  14.266  1.00  0.00     0.097 A
ATOM     41  H8  UNL     1       6.128  22.018  16.093  1.00  0.00     0.164 HD
ENDBRANCH  34  35
ENDBRANCH  33  34
ENDBRANCH  30  33
ENDBRANCH  28  30
ENDBRANCH  26  27
ENDBRANCH  25  26
ENDBRANCH  24  25
ENDBRANCH  23  24
ENDBRANCH   1  23
TORSDOF 10
ENDMDL