MODEL 3
REMARK VINA RESULT: -6.296556126      2.731      4.335
REMARK  14 active torsions:
REMARK  status: ('A' for Active; 'I' for Inactive)
REMARK       I    between atoms: C2_2  and  N1_4
REMARK    1  A    between atoms: N1_4  and  C3_6
REMARK    2  A    between atoms: C4_7  and  O2_8
REMARK    3  A    between atoms: O2_8  and  C5_9
REMARK    4  A    between atoms: C6_10  and  N2_11
REMARK    5  A    between atoms: N2_11  and  N3_13
REMARK    6  A    between atoms: N3_13  and  N4_14
REMARK    7  A    between atoms: C7_18  and  O4_19
REMARK    8  A    between atoms: O4_19  and  C8_20
REMARK       I    between atoms: C8_20  and  N5_22
REMARK    9  A    between atoms: N5_22  and  C9_24
REMARK   10  A    between atoms: C13_28  and  O6_29
REMARK   11  A    between atoms: C14_32  and  C15_33
REMARK   12  A    between atoms: C15_33  and  N6_34
REMARK   13  A    between atoms: C16_38  and  O8_39
REMARK   14  A    between atoms: C17_41  and  O9_42
ROOT
HETATM    1  C5  UNL     1       1.741  23.972  13.919  1.00  0.00     0.209 C
HETATM    2  C6  UNL     1       3.242  23.855  13.782  1.00  0.00     0.284 C
HETATM    3  O3  UNL     1       3.405  23.576  12.431  1.00  0.00    -0.329 OA
HETATM    4  C7  UNL     1       2.634  24.546  11.828  1.00  0.00     0.305 C
HETATM    5  C13 UNL     1       1.301  24.341  12.496  1.00  0.00     0.207 C
ENDROOT
BRANCH   1   6
HETATM    6  O2  UNL     1       1.503  25.030  14.792  1.00  0.00    -0.347 OA
BRANCH   6   7
HETATM    7  C4  UNL     1       0.418  24.834  15.607  1.00  0.00     0.286 C
HETATM    8  C3  UNL     1       0.878  24.568  17.000  1.00  0.00     0.170 C
HETATM    9  C17 UNL     1      -0.076  25.273  17.972  1.00  0.00     0.177 C
HETATM   10  C16 UNL     1      -1.472  25.044  17.438  1.00  0.00     0.179 C
HETATM   11  C14 UNL     1      -1.610  25.790  16.156  1.00  0.00     0.181 C
HETATM   12  O7  UNL     1      -0.392  25.975  15.502  1.00  0.00    -0.349 OA
BRANCH   8  13
HETATM   13  N1  UNL     1       2.218  24.982  17.264  1.00  0.00    -0.349 N
HETATM   14  C2  UNL     1       3.202  24.034  17.648  1.00  0.00     0.214 C
HETATM   15  C1  UNL     1       4.616  24.446  17.929  1.00  0.00     0.117 C
HETATM   16  O1  UNL     1       2.957  22.807  17.776  1.00  0.00    -0.274 OA
ATOM     17  H1  UNL     1       2.471  25.966  17.176  1.00  0.00     0.163 HD
ENDBRANCH   8  13
BRANCH   9  18
HETATM   18  O9  UNL     1       0.189  26.624  18.075  1.00  0.00    -0.391 OA
ATOM     19  H9  UNL     1       0.198  26.920  18.978  1.00  0.00     0.210 HD
ENDBRANCH   9  18
BRANCH  10  20
HETATM   20  O8  UNL     1      -1.623  23.661  17.262  1.00  0.00    -0.390 OA
ATOM     21  H8  UNL     1      -1.929  23.232  18.053  1.00  0.00     0.210 HD
ENDBRANCH  10  20
BRANCH  11  22
HETATM   22  C15 UNL     1      -2.237  27.156  16.334  1.00  0.00     0.264 C
BRANCH  22  23
HETATM   23  N6  UNL     1      -1.310  28.220  15.998  1.00  0.00    -0.077 N
ATOM     24  H63 UNL     1      -0.371  28.016  16.340  1.00  0.00     0.274 HD
ATOM     25  H62 UNL     1      -1.116  28.241  14.998  1.00  0.00     0.274 HD
ATOM     26  H61 UNL     1      -1.639  29.126  16.332  1.00  0.00     0.274 HD
ENDBRANCH  22  23
ENDBRANCH  11  22
ENDBRANCH   6   7
ENDBRANCH   1   6
BRANCH   2  27
HETATM   27  N2  UNL     1       3.785  22.819  14.628  1.00  0.00    -0.220 N
ATOM     28  H2  UNL     1       3.126  22.247  15.156  1.00  0.00     0.200 HD
BRANCH  27  29
HETATM   29  N3  UNL     1       4.963  22.580  14.757  1.00  0.00    -0.246 NA
BRANCH  29  30
HETATM   30  N4  UNL     1       6.086  22.138  14.985  1.00  0.00    -0.261 N
ATOM     31  H42 UNL     1       6.269  22.108  13.983  1.00  0.00     0.193 HD
ATOM     32  H41 UNL     1       6.966  21.783  15.361  1.00  0.00     0.193 HD
ENDBRANCH  29  30
ENDBRANCH  27  29
ENDBRANCH   2  27
BRANCH   5  33
HETATM   33  O6  UNL     1       0.576  23.290  11.985  1.00  0.00    -0.388 OA
ATOM     34  H6  UNL     1      -0.201  23.641  11.566  1.00  0.00     0.210 HD
ENDBRANCH   5  33
BRANCH   4  35
HETATM   35  O4  UNL     1       2.576  24.413  10.425  1.00  0.00    -0.270 OA
BRANCH  35  36
HETATM   36  C8  UNL     1       2.939  23.259   9.744  1.00  0.00     0.363 C
HETATM   37  O5  UNL     1       1.990  22.486   9.425  1.00  0.00    -0.238 OA
HETATM   38  N5  UNL     1       4.286  22.945   9.415  1.00  0.00    -0.329 N
ATOM     39  H5  UNL     1       5.037  23.582   9.681  1.00  0.00     0.165 HD
BRANCH  38  40
HETATM   40  C9  UNL     1       4.591  21.732   8.708  1.00  0.00     0.024 C
HETATM   41  C10 UNL     1       5.866  21.839   7.899  1.00  0.00     0.037 C
HETATM   42  C11 UNL     1       3.486  21.366   7.714  1.00  0.00     0.037 C
HETATM   43  C12 UNL     1       4.745  20.609   9.684  1.00  0.00     0.037 C
ENDBRANCH  38  40
ENDBRANCH  35  36
ENDBRANCH   4  35
TORSDOF 14
ENDMDL