MODEL 1
REMARK VINA RESULT: -8.948699599      0.000      0.000
REMARK  5 active torsions:
REMARK  status: ('A' for Active; 'I' for Inactive)
REMARK    1  A    between atoms: O1_2  and  C2_3
REMARK    2  A    between atoms: C3_4  and  N1_5
REMARK       I    between atoms: N1_5  and  C4_7
REMARK    3  A    between atoms: C4_7  and  C5_9
REMARK    4  A    between atoms: C11_15  and  C12_16
REMARK    5  A    between atoms: C12_16  and  C13_17
ROOT
HETATM    1  C2  UNL     1      23.540 -21.483 -26.662  1.00  0.00     0.117 A
HETATM    2  C3  UNL     1      23.987 -22.116 -25.496  1.00  0.00     0.070 A
HETATM    3  C10 UNL     1      23.560 -21.620 -24.279  1.00  0.00     0.040 A
HETATM    4  C11 UNL     1      22.704 -20.515 -24.154  1.00  0.00    -0.041 A
HETATM    5  C15 UNL     1      22.286 -19.919 -25.319  1.00  0.00    -0.031 A
HETATM    6  C16 UNL     1      21.378 -18.742 -25.271  1.00  0.00     0.050 C
HETATM    7  C17 UNL     1      22.702 -20.401 -26.541  1.00  0.00     0.076 A
HETATM    8 CL1  UNL     1      22.169 -19.641 -28.047  1.00  0.00    -0.081 Cl
ENDROOT
BRANCH   2   9
HETATM    9  N1  UNL     1      24.847 -23.229 -25.659  1.00  0.00    -0.324 N
HETATM   10  C4  UNL     1      26.247 -23.214 -25.508  1.00  0.00     0.226 C
HETATM   11  O2  UNL     1      26.963 -22.233 -25.208  1.00  0.00    -0.273 OA
ATOM     12  H1  UNL     1      24.415 -24.118 -25.908  1.00  0.00     0.169 HD
BRANCH  10  13
HETATM   13  C5  UNL     1      26.953 -24.537 -25.737  1.00  0.00     0.078 C
HETATM   14  C6  UNL     1      28.362 -24.381 -25.264  1.00  0.00     0.014 C
HETATM   15  C7  UNL     1      29.235 -24.665 -26.444  1.00  0.00     0.001 C
HETATM   16  C8  UNL     1      28.400 -25.522 -27.359  1.00  0.00     0.001 C
HETATM   17  C9  UNL     1      27.009 -24.870 -27.221  1.00  0.00     0.014 C
ENDBRANCH  10  13
ENDBRANCH   2   9
BRANCH   1  18
HETATM   18  O1  UNL     1      23.954 -21.963 -27.898  1.00  0.00    -0.352 OA
HETATM   19  C1  UNL     1      25.091 -21.423 -28.548  1.00  0.00     0.210 C
ENDBRANCH   1  18
BRANCH   4  20
HETATM   20  C12 UNL     1      22.291 -20.044 -22.810  1.00  0.00     0.117 C
BRANCH  20  21
HETATM   21  C13 UNL     1      21.574 -21.092 -22.049  1.00  0.00     0.127 C
HETATM   22  C14 UNL     1      20.225 -21.591 -22.407  1.00  0.00     0.091 C
HETATM   23  O3  UNL     1      22.124 -21.569 -21.076  1.00  0.00    -0.298 OA
ENDBRANCH  20  21
ENDBRANCH   4  20
TORSDOF 5
ENDMDL