MODEL 5
REMARK VINA RESULT: -7.987150964      1.905      3.535
REMARK  5 active torsions:
REMARK  status: ('A' for Active; 'I' for Inactive)
REMARK    1  A    between atoms: O1_2  and  C2_3
REMARK    2  A    between atoms: C4_5  and  C5_6
REMARK    3  A    between atoms: C6_10  and  C7_11
REMARK    4  A    between atoms: C7_11  and  N1_12
REMARK    5  A    between atoms: N1_12  and  C9_14
ROOT
HETATM    1  C7  UNL     1      23.761 -20.499 -25.324  1.00  0.00     0.081 C
ENDROOT
BRANCH   1   2
HETATM    2  C6  UNL     1      24.990 -21.270 -25.732  1.00  0.00     0.049 A
HETATM    3  C2  UNL     1      26.216 -20.652 -26.061  1.00  0.00     0.087 A
HETATM    4  C3  UNL     1      27.265 -21.444 -26.135  1.00  0.00     0.064 A
HETATM    5  C4  UNL     1      27.097 -22.787 -25.897  1.00  0.00     0.085 A
HETATM    6  S1  UNL     1      25.409 -22.881 -25.581  1.00  0.00    -0.080 SA
BRANCH   3   7
HETATM    7  O1  UNL     1      26.176 -19.231 -26.280  1.00  0.00    -0.355 OA
HETATM    8  C1  UNL     1      27.006 -18.578 -27.131  1.00  0.00     0.210 C
ENDBRANCH   3   7
BRANCH   5   9
HETATM    9  C5  UNL     1      28.097 -23.852 -25.975  1.00  0.00     0.216 C
HETATM   10  O2  UNL     1      27.813 -25.061 -26.024  1.00  0.00    -0.643 OA
HETATM   11  O3  UNL     1      29.449 -23.552 -25.981  1.00  0.00    -0.643 OA
ENDBRANCH   5   9
ENDBRANCH   1   2
BRANCH   1  12
HETATM   12  N1  UNL     1      23.121 -20.906 -24.174  1.00  0.00    -0.289 NA
HETATM   13  C8  UNL     1      23.604 -20.395 -22.965  1.00  0.00     0.116 C
BRANCH  12  14
HETATM   14  C9  UNL     1      21.657 -20.806 -24.334  1.00  0.00     0.085 C
HETATM   15  C10 UNL     1      21.082 -19.463 -24.117  1.00  0.00     0.022 C
HETATM   16  C11 UNL     1      20.206 -19.418 -22.882  1.00  0.00     0.002 C
HETATM   17  C12 UNL     1      19.321 -20.618 -22.710  1.00  0.00     0.002 C
HETATM   18  C13 UNL     1      20.207 -21.807 -22.581  1.00  0.00     0.027 C
HETATM   19  C14 UNL     1      20.901 -21.996 -23.897  1.00  0.00     0.050 C
HETATM   20  C15 UNL     1      21.723 -23.248 -23.828  1.00  0.00     0.034 C
HETATM   21 CL1  UNL     1      19.573 -22.372 -25.072  1.00  0.00    -0.118 Cl
ENDBRANCH  12  14
ENDBRANCH   1  12
TORSDOF 5
ENDMDL