MODEL 3
REMARK VINA RESULT: -8.396254029      3.646      3.943
REMARK  6 active torsions:
REMARK  status: ('A' for Active; 'I' for Inactive)
REMARK    1  A    between atoms: C2_2  and  C3_3
REMARK    2  A    between atoms: C3_3  and  C4_4
REMARK    3  A    between atoms: C3_3  and  C11_11
REMARK    4  A    between atoms: C4_4  and  C5_5
REMARK       I    between atoms: C11_11  and  N1_13
REMARK    5  A    between atoms: N1_13  and  C12_15
REMARK    6  A    between atoms: C13_20  and  S1_21
ROOT
HETATM    1  C11 UNL     1      22.774 -22.443 -24.389  1.00  0.00     0.227 C
HETATM    2  O1  UNL     1      22.753 -23.670 -24.022  1.00  0.00    -0.273 OA
HETATM    3  N1  UNL     1      23.523 -22.204 -25.570  1.00  0.00    -0.306 N
ATOM      4  H1  UNL     1      23.065 -21.941 -26.443  1.00  0.00     0.171 HD
ENDROOT
BRANCH   1   5
HETATM    5  C3  UNL     1      22.080 -21.401 -23.632  1.00  0.00     0.078 C
BRANCH   5   6
HETATM    6  C2  UNL     1      22.979 -20.573 -22.736  1.00  0.00     0.009 C
HETATM    7  C1  UNL     1      22.994 -19.128 -23.188  1.00  0.00     0.006 C
ENDBRANCH   5   6
BRANCH   5   8
HETATM    8  C4  UNL     1      20.823 -21.814 -22.972  1.00  0.00     0.018 C
BRANCH   8   9
HETATM    9  C5  UNL     1      19.540 -21.325 -23.524  1.00  0.00    -0.014 C
HETATM   10  C6  UNL     1      19.142 -22.219 -24.696  1.00  0.00     0.005 C
HETATM   11  C7  UNL     1      18.032 -23.153 -24.329  1.00  0.00     0.000 C
HETATM   12  C8  UNL     1      16.768 -22.369 -24.108  1.00  0.00     0.000 C
HETATM   13  C9  UNL     1      17.115 -21.146 -23.293  1.00  0.00     0.000 C
HETATM   14  C10 UNL     1      18.423 -21.429 -22.522  1.00  0.00     0.005 C
ENDBRANCH   8   9
ENDBRANCH   5   8
ENDBRANCH   1   5
BRANCH   3  15
HETATM   15  C12 UNL     1      24.829 -22.334 -25.498  1.00  0.00     0.168 A
HETATM   16  N2  UNL     1      25.713 -21.521 -24.915  1.00  0.00    -0.278 N
HETATM   17  N3  UNL     1      26.945 -21.833 -24.957  1.00  0.00    -0.286 N
ATOM     18  H2  UNL     1      25.408 -20.669 -24.446  1.00  0.00     0.189 HD
HETATM   19  C13 UNL     1      27.332 -22.940 -25.569  1.00  0.00     0.129 A
ATOM     20  H3  UNL     1      27.638 -21.227 -24.518  1.00  0.00     0.188 HD
HETATM   21  S2  UNL     1      25.840 -23.568 -26.113  1.00  0.00    -0.026 SA
BRANCH  19  22
HETATM   22  S1  UNL     1      29.011 -23.590 -25.760  1.00  0.00    -0.108 SA
HETATM   23  C14 UNL     1      28.871 -25.299 -26.294  1.00  0.00     0.097 C
ENDBRANCH  19  22
ENDBRANCH   3  15
TORSDOF 6
ENDMDL