MODEL 4
REMARK VINA RESULT: -8.526838231      3.790      7.253
REMARK  5 active torsions:
REMARK  status: ('A' for Active; 'I' for Inactive)
REMARK    1  A    between atoms: O1_2  and  C2_3
REMARK    2  A    between atoms: C4_5  and  O2_6
REMARK    3  A    between atoms: C6_8  and  C7_9
REMARK    4  A    between atoms: C7_9  and  N1_10
REMARK    5  A    between atoms: N1_10  and  C8_13
ROOT
HETATM    1  C7  UNL     1      23.169 -18.335 -26.213  1.00  0.00     0.277 C
ENDROOT
BRANCH   1   2
HETATM    2  C6  UNL     1      22.783 -19.045 -24.969  1.00  0.00     0.040 A
HETATM    3  C4  UNL     1      23.677 -19.985 -24.452  1.00  0.00     0.081 A
HETATM    4  C3  UNL     1      23.315 -20.721 -23.349  1.00  0.00     0.074 A
HETATM    5  C2  UNL     1      22.083 -20.544 -22.745  1.00  0.00     0.079 A
HETATM    6  C18 UNL     1      21.179 -19.618 -23.240  1.00  0.00     0.011 A
HETATM    7  C17 UNL     1      21.571 -18.894 -24.346  1.00  0.00     0.135 A
HETATM    8  C19 UNL     1      19.833 -19.396 -22.622  1.00  0.00     0.054 C
HETATM    9  F1  UNL     1      20.681 -17.981 -24.829  1.00  0.00    -0.205 F
BRANCH   3  10
HETATM   10  O2  UNL     1      24.902 -20.121 -25.096  1.00  0.00    -0.355 OA
HETATM   11  C5  UNL     1      25.480 -21.350 -25.461  1.00  0.00     0.210 C
ENDBRANCH   3  10
BRANCH   5  12
HETATM   12  O1  UNL     1      21.735 -21.289 -21.634  1.00  0.00    -0.355 OA
HETATM   13  C1  UNL     1      22.046 -22.631 -21.418  1.00  0.00     0.210 C
ENDBRANCH   5  12
ENDBRANCH   1   2
BRANCH   1  14
HETATM   14  N1  UNL     1      22.753 -19.134 -27.339  1.00  0.00    -0.067 N
ATOM     15  H12 UNL     1      22.372 -20.028 -27.030  1.00  0.00     0.277 HD
ATOM     16  H11 UNL     1      21.921 -18.740 -27.776  1.00  0.00     0.277 HD
BRANCH  14  17
HETATM   17  C8  UNL     1      23.798 -19.329 -28.308  1.00  0.00     0.187 C
HETATM   18  C9  UNL     1      23.166 -19.206 -29.690  1.00  0.00     0.037 C
HETATM   19  C10 UNL     1      23.639 -17.864 -30.268  1.00  0.00    -0.016 C
HETATM   20  C11 UNL     1      22.840 -17.521 -31.474  1.00  0.00     0.010 C
HETATM   21  C12 UNL     1      25.110 -18.100 -30.568  1.00  0.00     0.013 C
HETATM   22  C13 UNL     1      25.851 -18.261 -29.270  1.00  0.00    -0.045 C
HETATM   23  C14 UNL     1      26.837 -19.393 -29.462  1.00  0.00     0.015 C
HETATM   24  C15 UNL     1      26.640 -16.990 -29.045  1.00  0.00     0.015 C
HETATM   25  C16 UNL     1      24.958 -18.453 -28.071  1.00  0.00     0.041 C
ENDBRANCH  14  17
ENDBRANCH   1  14
TORSDOF 5
ENDMDL