MODEL 5
REMARK VINA RESULT: -8.647209822      3.750      8.080
REMARK  5 active torsions:
REMARK  status: ('A' for Active; 'I' for Inactive)
REMARK    1  A    between atoms: O1_2  and  C2_3
REMARK    2  A    between atoms: C6_7  and  C7_8
REMARK       I    between atoms: C7_8  and  N1_10
REMARK    3  A    between atoms: N1_10  and  C8_12
REMARK    4  A    between atoms: C10_14  and  O3_15
REMARK    5  A    between atoms: C12_17  and  O4_18
ROOT
HETATM    1  C7  UNL     1      20.884 -21.583 -24.743  1.00  0.00     0.259 C
HETATM    2  O2  UNL     1      20.861 -21.349 -26.018  1.00  0.00    -0.267 OA
HETATM    3  N1  UNL     1      22.131 -21.888 -24.202  1.00  0.00    -0.322 N
ATOM      4  H1  UNL     1      22.135 -22.086 -23.202  1.00  0.00     0.169 HD
ENDROOT
BRANCH   3   5
HETATM    5  C8  UNL     1      23.383 -21.963 -24.833  1.00  0.00     0.043 A
HETATM    6  C9  UNL     1      24.111 -20.914 -25.342  1.00  0.00     0.069 A
HETATM    7  C10 UNL     1      25.357 -21.114 -25.956  1.00  0.00     0.103 A
HETATM    8  C12 UNL     1      25.906 -22.362 -26.076  1.00  0.00     0.102 A
HETATM    9  C14 UNL     1      25.198 -23.426 -25.575  1.00  0.00     0.048 A
HETATM   10  C15 UNL     1      23.973 -23.233 -24.972  1.00  0.00    -0.032 A
HETATM   11  C16 UNL     1      23.243 -24.390 -24.446  1.00  0.00     0.050 C
BRANCH   7  12
HETATM   12  O3  UNL     1      26.058 -20.030 -26.456  1.00  0.00    -0.353 OA
HETATM   13  C11 UNL     1      25.356 -18.822 -26.664  1.00  0.00     0.210 C
ENDBRANCH   7  12
BRANCH   8  14
HETATM   14  O4  UNL     1      27.131 -22.477 -26.690  1.00  0.00    -0.353 OA
HETATM   15  C13 UNL     1      28.206 -23.234 -26.173  1.00  0.00     0.210 C
ENDBRANCH   8  14
ENDBRANCH   3   5
BRANCH   1  16
HETATM   16  C6  UNL     1      19.611 -21.496 -24.084  1.00  0.00     0.076 A
HETATM   17  C4  UNL     1      19.227 -20.596 -23.159  1.00  0.00    -0.041 A
HETATM   18  C3  UNL     1      17.965 -20.672 -22.525  1.00  0.00     0.044 A
HETATM   19  C5  UNL     1      20.116 -19.450 -22.823  1.00  0.00     0.049 C
HETATM   20  C2  UNL     1      17.091 -21.665 -22.834  1.00  0.00     0.071 A
HETATM   21  C18 UNL     1      17.451 -22.601 -23.777  1.00  0.00     0.080 A
HETATM   22  C17 UNL     1      18.681 -22.515 -24.386  1.00  0.00     0.135 A
HETATM   23  F1  UNL     1      19.015 -23.457 -25.318  1.00  0.00    -0.205 F
BRANCH  20  24
HETATM   24  O1  UNL     1      15.869 -21.699 -22.188  1.00  0.00    -0.356 OA
HETATM   25  C1  UNL     1      14.980 -22.786 -22.265  1.00  0.00     0.210 C
ENDBRANCH  20  24
ENDBRANCH   1  16
TORSDOF 5
ENDMDL