MODEL 1
REMARK VINA RESULT: -9.564544126      0.000      0.000
REMARK  5 active torsions:
REMARK  status: ('A' for Active; 'I' for Inactive)
REMARK    1  A    between atoms: C2_2  and  C3_3
REMARK    2  A    between atoms: C3_3  and  C4_4
REMARK    3  A    between atoms: C4_4  and  C5_5
REMARK    4  A    between atoms: N1_7  and  C7_8
REMARK    5  A    between atoms: C12_19  and  C13_20
ROOT
HETATM    1  C13 UNL     1      24.438 -19.863 -25.537  1.00  0.00     0.049 C
HETATM    2  C14 UNL     1      23.747 -19.009 -26.190  1.00  0.00     0.021 C
HETATM    3  C15 UNL     1      23.653 -17.579 -25.700  1.00  0.00     0.060 C
HETATM    4  C16 UNL     1      22.990 -19.289 -27.357  1.00  0.00     0.094 C
HETATM    5  N4  UNL     1      22.335 -19.505 -28.318  1.00  0.00    -0.192 NA
ENDROOT
BRANCH   1   6
HETATM    6  C12 UNL     1      24.668 -21.277 -25.825  1.00  0.00     0.064 A
HETATM    7  N1  UNL     1      23.889 -22.273 -25.286  1.00  0.00    -0.157 N
HETATM    8  C6  UNL     1      24.400 -23.432 -25.721  1.00  0.00     0.123 A
HETATM    9  C5  UNL     1      25.481 -23.206 -26.522  1.00  0.00    -0.033 A
HETATM   10  C17 UNL     1      25.664 -21.822 -26.597  1.00  0.00    -0.026 A
HETATM   11  C18 UNL     1      26.759 -21.209 -27.354  1.00  0.00     0.051 C
BRANCH   7  12
HETATM   12  C7  UNL     1      22.760 -22.111 -24.426  1.00  0.00     0.692 A
HETATM   13  N2  UNL     1      21.498 -22.054 -24.924  1.00  0.00    -0.192 N
HETATM   14  C8  UNL     1      20.423 -21.902 -24.128  1.00  0.00     0.067 A
ATOM     15  H2  UNL     1      21.361 -22.128 -25.932  1.00  0.00     0.184 HD
HETATM   16  C9  UNL     1      19.034 -21.839 -24.660  1.00  0.00     0.072 C
HETATM   17  C10 UNL     1      20.592 -21.798 -22.756  1.00  0.00     0.207 A
HETATM   18  F1  UNL     1      19.529 -21.644 -21.923  1.00  0.00    -0.198 F
HETATM   19  C11 UNL     1      21.880 -21.858 -22.254  1.00  0.00     0.300 A
HETATM   20  O1  UNL     1      22.109 -21.768 -21.005  1.00  0.00    -0.264 OA
HETATM   21  N3  UNL     1      22.919 -22.010 -23.091  1.00  0.00    -0.153 N
ATOM     22  H3  UNL     1      23.861 -22.051 -22.703  1.00  0.00     0.187 HD
ENDBRANCH   7  12
BRANCH   9  23
HETATM   23  C4  UNL     1      26.307 -24.251 -27.179  1.00  0.00     0.040 C
BRANCH  23  24
HETATM   24  C3  UNL     1      27.208 -24.872 -26.133  1.00  0.00     0.004 C
BRANCH  24  25
HETATM   25  C2  UNL     1      28.668 -24.689 -26.553  1.00  0.00    -0.004 C
HETATM   26  C1  UNL     1      29.269 -23.601 -25.720  1.00  0.00     0.005 C
ENDBRANCH  24  25
ENDBRANCH  23  24
ENDBRANCH   9  23
ENDBRANCH   1   6
TORSDOF 5
ENDMDL