MODEL 5
REMARK VINA RESULT: -7.037349475      2.788      5.854
REMARK  6 active torsions:
REMARK  status: ('A' for Active; 'I' for Inactive)
REMARK    1  A    between atoms: C2_2  and  C3_3
REMARK    2  A    between atoms: C5_5  and  O1_6
REMARK    3  A    between atoms: O1_6  and  C6_7
REMARK    4  A    between atoms: C10_12  and  C11_13
REMARK    5  A    between atoms: C11_13  and  O3_15
REMARK    6  A    between atoms: O3_15  and  C12_16
ROOT
HETATM    1  C3  UNL     1      26.567 -21.603 -25.701  1.00  0.00    -0.009 A
HETATM    2  C4  UNL     1      25.328 -21.530 -25.016  1.00  0.00     0.051 A
HETATM    3  C5  UNL     1      24.485 -20.466 -25.140  1.00  0.00     0.088 A
HETATM    4  C9  UNL     1      24.897 -19.450 -25.972  1.00  0.00     0.062 A
HETATM    5 BR1  UNL     1      23.782 -17.897 -26.220  1.00  0.00    -0.047 Br
HETATM    6  C10 UNL     1      26.085 -19.479 -26.649  1.00  0.00     0.084 A
HETATM    7  C14 UNL     1      26.955 -20.572 -26.525  1.00  0.00     0.074 A
HETATM    8  N1  UNL     1      28.194 -20.542 -27.232  1.00  0.00    -0.100 NA
ENDROOT
BRANCH   6   9
HETATM    9  C11 UNL     1      26.473 -18.377 -27.512  1.00  0.00     0.296 C
HETATM   10  O2  UNL     1      27.184 -17.449 -27.049  1.00  0.00    -0.259 OA
BRANCH   9  11
HETATM   11  O3  UNL     1      26.100 -18.289 -28.844  1.00  0.00    -0.318 OA
BRANCH  11  12
HETATM   12  C12 UNL     1      26.076 -17.044 -29.474  1.00  0.00     0.174 C
HETATM   13  C13 UNL     1      24.692 -16.478 -29.626  1.00  0.00     0.034 C
ENDBRANCH  11  12
ENDBRANCH   9  11
ENDBRANCH   6   9
BRANCH   3  14
HETATM   14  O1  UNL     1      23.283 -20.349 -24.503  1.00  0.00    -0.345 OA
BRANCH  14  15
HETATM   15  C6  UNL     1      23.052 -19.917 -23.199  1.00  0.00     0.120 C
HETATM   16  C7  UNL     1      22.815 -21.094 -22.247  1.00  0.00     0.040 C
HETATM   17  C8  UNL     1      21.713 -19.162 -23.222  1.00  0.00     0.040 C
ENDBRANCH  14  15
ENDBRANCH   3  14
BRANCH   1  18
HETATM   18  C2  UNL     1      27.403 -22.757 -25.479  1.00  0.00     0.003 C
HETATM   19  C1  UNL     1      26.997 -23.915 -25.100  1.00  0.00     0.012 C
ENDBRANCH   1  18
TORSDOF 6
ENDMDL