MODEL 5
REMARK VINA RESULT: -8.468350502      1.596      1.916
REMARK  5 active torsions:
REMARK  status: ('A' for Active; 'I' for Inactive)
REMARK    1  A    between atoms: C3_4  and  C4_5
REMARK    2  A    between atoms: C6_8  and  C7_9
REMARK    3  A    between atoms: C7_9  and  C8_10
REMARK    4  A    between atoms: C8_10  and  N1_11
REMARK       I    between atoms: N1_11  and  C9_13
REMARK    5  A    between atoms: C9_13  and  C10_15
ROOT
HETATM    1  C4  UNL     1      24.289 -21.655 -25.687  1.00  0.00     0.059 A
HETATM    2  C5  UNL     1      23.484 -21.135 -26.673  1.00  0.00     0.082 A
HETATM    3  S2  UNL     1      22.426 -20.146 -25.771  1.00  0.00    -0.086 SA
HETATM    4  C6  UNL     1      23.063 -20.450 -24.217  1.00  0.00     0.052 A
HETATM    5  N2  UNL     1      24.048 -21.290 -24.468  1.00  0.00    -0.352 N
ATOM      6  H2  UNL     1      24.619 -21.651 -23.704  1.00  0.00     0.166 HD
ENDROOT
BRANCH   4   7
HETATM    7  C7  UNL     1      22.612 -19.897 -22.884  1.00  0.00     0.084 C
BRANCH   7   8
HETATM    8  C8  UNL     1      21.696 -20.946 -22.284  1.00  0.00     0.129 C
BRANCH   8   9
HETATM    9  N1  UNL     1      20.316 -20.769 -22.606  1.00  0.00    -0.360 N
HETATM   10  C9  UNL     1      19.591 -21.645 -23.470  1.00  0.00     0.221 C
HETATM   11  O1  UNL     1      20.153 -22.630 -23.994  1.00  0.00    -0.273 OA
ATOM     12  H1  UNL     1      19.822 -19.977 -22.197  1.00  0.00     0.162 HD
BRANCH  10  13
HETATM   13  C10 UNL     1      18.156 -21.370 -23.739  1.00  0.00     0.078 A
HETATM   14  C11 UNL     1      17.204 -22.263 -23.010  1.00  0.00     0.015 A
HETATM   15  C12 UNL     1      17.308 -20.806 -22.645  1.00  0.00     0.015 A
ENDBRANCH  10  13
ENDBRANCH   8   9
ENDBRANCH   7   8
ENDBRANCH   4   7
BRANCH   1  16
HETATM   16  C3  UNL     1      25.393 -22.604 -26.020  1.00  0.00     0.071 A
HETATM   17  S1  UNL     1      25.313 -23.946 -27.062  1.00  0.00    -0.089 SA
HETATM   18  C2  UNL     1      26.922 -24.498 -26.918  1.00  0.00    -0.011 A
HETATM   19  C1  UNL     1      27.593 -25.679 -27.577  1.00  0.00     0.057 C
HETATM   20  C14 UNL     1      27.477 -23.598 -26.045  1.00  0.00    -0.009 A
HETATM   21  C13 UNL     1      26.680 -22.622 -25.585  1.00  0.00     0.142 A
HETATM   22  C15 UNL     1      28.937 -23.738 -25.642  1.00  0.00     0.052 C
HETATM   23  F1  UNL     1      27.117 -21.646 -24.695  1.00  0.00    -0.204 F
ENDBRANCH   1  16
TORSDOF 5
ENDMDL