MODEL 1
REMARK VINA RESULT: -8.393047703      0.000      0.000
REMARK  6 active torsions:
REMARK  status: ('A' for Active; 'I' for Inactive)
REMARK    1  A    between atoms: C2_2  and  O1_3
REMARK    2  A    between atoms: O1_3  and  C3_4
REMARK    3  A    between atoms: C3_4  and  C4_6
REMARK    4  A    between atoms: C5_7  and  N1_8
REMARK       I    between atoms: N1_8  and  C6_10
REMARK    5  A    between atoms: C6_10  and  C7_12
REMARK    6  A    between atoms: C7_12  and  C8_13
ROOT
HETATM    1  C4  UNL     1      20.861 -21.390 -23.571  1.00  0.00     0.080 A
HETATM    2  C5  UNL     1      21.447 -21.751 -24.727  1.00  0.00     0.094 A
HETATM    3  S1  UNL     1      20.068 -22.009 -25.786  1.00  0.00    -0.075 SA
HETATM    4  C9  UNL     1      18.834 -21.657 -24.688  1.00  0.00    -0.008 A
HETATM    5  C10 UNL     1      19.485 -21.346 -23.537  1.00  0.00    -0.026 A
HETATM    6  C11 UNL     1      18.649 -21.026 -22.307  1.00  0.00     0.041 C
HETATM    7  C12 UNL     1      17.305 -21.605 -22.329  1.00  0.00     0.009 C
HETATM    8  C13 UNL     1      16.852 -22.329 -23.539  1.00  0.00    -0.014 C
HETATM    9  C14 UNL     1      15.328 -22.285 -23.583  1.00  0.00     0.010 C
HETATM   10  C15 UNL     1      17.318 -21.631 -24.810  1.00  0.00     0.051 C
ENDROOT
BRANCH   2  11
HETATM   11  N1  UNL     1      22.759 -22.176 -25.142  1.00  0.00    -0.320 N
HETATM   12  C6  UNL     1      23.457 -23.338 -24.835  1.00  0.00     0.223 C
HETATM   13  O3  UNL     1      23.065 -24.305 -24.145  1.00  0.00    -0.273 OA
ATOM     14  H1  UNL     1      23.251 -21.525 -25.754  1.00  0.00     0.169 HD
BRANCH  12  15
HETATM   15  C7  UNL     1      24.870 -23.422 -25.423  1.00  0.00     0.118 C
BRANCH  15  16
HETATM   16  C8  UNL     1      24.798 -23.487 -26.914  1.00  0.00     0.124 C
HETATM   17 CL1  UNL     1      26.091 -24.545 -27.488  1.00  0.00    -0.130 Cl
ENDBRANCH  15  16
ENDBRANCH  12  15
ENDBRANCH   2  11
BRANCH   1  18
HETATM   18  C3  UNL     1      21.697 -20.754 -22.478  1.00  0.00     0.296 C
HETATM   19  O2  UNL     1      22.009 -21.386 -21.450  1.00  0.00    -0.259 OA
BRANCH  18  20
HETATM   20  O1  UNL     1      22.142 -19.455 -22.543  1.00  0.00    -0.318 OA
BRANCH  20  21
HETATM   21  C2  UNL     1      23.236 -19.024 -23.295  1.00  0.00     0.174 C
HETATM   22  C1  UNL     1      22.696 -18.214 -24.480  1.00  0.00     0.034 C
ENDBRANCH  20  21
ENDBRANCH  18  20
ENDBRANCH   1  18
TORSDOF 6
ENDMDL