MODEL 4
REMARK VINA RESULT: -6.619369102      1.405      1.577
REMARK  6 active torsions:
REMARK  status: ('A' for Active; 'I' for Inactive)
REMARK    1  A    between atoms: C2_2  and  C3_3
REMARK    2  A    between atoms: C3_3  and  C4_4
REMARK    3  A    between atoms: C4_4  and  C5_5
REMARK       I    between atoms: C5_5  and  N1_7
REMARK    4  A    between atoms: N1_7  and  C6_9
REMARK    5  A    between atoms: C9_14  and  C10_15
REMARK    6  A    between atoms: C10_15  and  O3_17
ROOT
HETATM    1  C6  UNL     1      20.936 -19.843 -23.496  1.00  0.00     0.094 A
HETATM    2  S1  UNL     1      21.265 -18.737 -24.796  1.00  0.00    -0.082 SA
HETATM    3  C7  UNL     1      22.842 -19.217 -25.160  1.00  0.00     0.072 A
HETATM    4  C8  UNL     1      23.093 -20.220 -24.277  1.00  0.00     0.036 A
HETATM    5 BR1  UNL     1      24.843 -21.094 -24.333  1.00  0.00    -0.049 Br
HETATM    6  C9  UNL     1      22.104 -20.551 -23.407  1.00  0.00     0.091 A
ENDROOT
BRANCH   1   7
HETATM    7  N1  UNL     1      19.708 -19.914 -22.763  1.00  0.00    -0.320 N
HETATM    8  C5  UNL     1      18.716 -20.847 -23.181  1.00  0.00     0.222 C
HETATM    9  O1  UNL     1      18.931 -21.586 -24.175  1.00  0.00    -0.273 OA
ATOM     10  H1  UNL     1      19.548 -19.308 -21.958  1.00  0.00     0.169 HD
BRANCH   8  11
HETATM   11  C4  UNL     1      17.427 -20.976 -22.473  1.00  0.00     0.103 C
BRANCH  11  12
HETATM   12  C3  UNL     1      16.387 -21.498 -23.414  1.00  0.00     0.009 C
BRANCH  12  13
HETATM   13  C2  UNL     1      15.378 -22.381 -22.723  1.00  0.00    -0.004 C
HETATM   14  C1  UNL     1      16.021 -23.501 -21.973  1.00  0.00     0.005 C
ENDBRANCH  12  13
ENDBRANCH  11  12
ENDBRANCH   8  11
ENDBRANCH   1   7
BRANCH   6  15
HETATM   15  C10 UNL     1      22.276 -21.639 -22.396  1.00  0.00     0.297 C
HETATM   16  O2  UNL     1      22.553 -21.357 -21.210  1.00  0.00    -0.259 OA
BRANCH  15  17
HETATM   17  O3  UNL     1      22.146 -22.968 -22.700  1.00  0.00    -0.322 OA
HETATM   18  C11 UNL     1      22.012 -23.482 -23.994  1.00  0.00     0.213 C
ENDBRANCH  15  17
ENDBRANCH   6  15
TORSDOF 6
ENDMDL