MODEL 4
REMARK VINA RESULT: -9.722324295      1.741      2.626
REMARK  3 active torsions:
REMARK  status: ('A' for Active; 'I' for Inactive)
REMARK    1  A    between atoms: C3_4  and  C4_5
REMARK    2  A    between atoms: C4_5  and  C5_6
REMARK    3  A    between atoms: C12_13  and  O2_14
ROOT
HETATM    1  C5  UNL     1     -14.646  16.736 -18.377  1.00  0.00    -0.003 C
HETATM    2  C6  UNL     1     -15.711  16.622 -19.283  1.00  0.00     0.011 C
HETATM    3  C7  UNL     1     -16.690  15.638 -19.319  1.00  0.00     0.002 C
HETATM    4  C8  UNL     1     -16.681  14.422 -18.622  1.00  0.00     0.013 C
HETATM    5  C9  UNL     1     -15.557  13.729 -18.228  1.00  0.00    -0.011 A
HETATM    6  C10 UNL     1     -14.352  14.306 -17.817  1.00  0.00     0.028 A
HETATM    7  C11 UNL     1     -13.340  13.477 -17.404  1.00  0.00     0.053 A
HETATM    8  C12 UNL     1     -13.548  12.108 -17.413  1.00  0.00     0.077 A
HETATM    9  C13 UNL     1     -14.745  11.566 -17.825  1.00  0.00     0.008 A
HETATM   10  C14 UNL     1     -14.912  10.188 -17.827  1.00  0.00     0.015 A
HETATM   11  C15 UNL     1     -16.105   9.642 -18.247  1.00  0.00     0.001 A
HETATM   12  C16 UNL     1     -17.144  10.458 -18.671  1.00  0.00     0.001 A
HETATM   13  C17 UNL     1     -16.987  11.837 -18.672  1.00  0.00     0.013 A
HETATM   14  C18 UNL     1     -15.795  12.373 -18.250  1.00  0.00    -0.012 A
HETATM   15  C19 UNL     1     -14.012  15.671 -17.781  1.00  0.00     0.189 C
HETATM   16  O3  UNL     1     -12.992  15.917 -17.113  1.00  0.00    -0.287 OA
ENDROOT
BRANCH   1  17
HETATM   17  C4  UNL     1     -14.209  18.096 -18.058  1.00  0.00     0.081 C
BRANCH  17  18
HETATM   18  C3  UNL     1     -13.120  18.642 -18.851  1.00  0.00    -0.046 A
HETATM   19  C2  UNL     1     -12.918  18.332 -20.173  1.00  0.00     0.090 A
HETATM   20  C1  UNL     1     -11.835  18.893 -20.871  1.00  0.00     0.287 A
HETATM   21  O1  UNL     1     -11.683  18.586 -22.077  1.00  0.00    -0.260 OA
HETATM   22  O4  UNL     1     -11.013  19.714 -20.268  1.00  0.00    -0.288 OA
HETATM   23  C21 UNL     1     -11.161  20.043 -19.007  1.00  0.00     0.146 A
HETATM   24  C20 UNL     1     -12.217  19.513 -18.277  1.00  0.00     0.032 A
ENDBRANCH  17  18
ENDBRANCH   1  17
BRANCH   8  25
HETATM   25  O2  UNL     1     -12.549  11.251 -17.003  1.00  0.00    -0.360 OA
ATOM     26  H2  UNL     1     -11.963  10.859 -17.640  1.00  0.00     0.217 HD
ENDBRANCH   8  25
TORSDOF 3
ENDMDL