MODEL 2
REMARK VINA RESULT: -9.342814002      2.625      6.045
REMARK  2 active torsions:
REMARK  status: ('A' for Active; 'I' for Inactive)
REMARK    1  A    between atoms: C1_2  and  C2_4
REMARK    2  A    between atoms: C13_16  and  C14_17
ROOT
HETATM    1  C2  UNL     1     -16.045  16.779 -19.605  1.00  0.00     0.245 C
HETATM    2  O3  UNL     1     -14.992  17.428 -18.971  1.00  0.00    -0.332 OA
HETATM    3  C3  UNL     1     -13.889  16.810 -18.411  1.00  0.00     0.088 A
HETATM    4  C4  UNL     1     -13.990  15.466 -18.098  1.00  0.00    -0.014 A
HETATM    5  C5  UNL     1     -12.939  14.793 -17.542  1.00  0.00     0.011 A
HETATM    6  C6  UNL     1     -11.766  15.486 -17.299  1.00  0.00     0.013 A
HETATM    7  C7  UNL     1     -11.664  16.817 -17.609  1.00  0.00    -0.023 A
HETATM    8  C8  UNL     1     -10.470  17.504 -17.356  1.00  0.00     0.012 A
HETATM    9  C9  UNL     1     -10.331  18.824 -17.651  1.00  0.00     0.001 A
HETATM   10  C10 UNL     1     -11.395  19.508 -18.213  1.00  0.00     0.001 A
HETATM   11  C11 UNL     1     -12.579  18.839 -18.467  1.00  0.00     0.015 A
HETATM   12  C12 UNL     1     -12.716  17.506 -18.169  1.00  0.00     0.008 A
HETATM   13  C13 UNL     1     -15.278  14.806 -18.395  1.00  0.00     0.072 C
HETATM   14  C20 UNL     1     -15.852  15.276 -19.716  1.00  0.00     0.111 C
HETATM   15  S1  UNL     1     -14.793  14.986 -21.127  1.00  0.00    -0.088 SA
ENDROOT
BRANCH  13  16
HETATM   16  C14 UNL     1     -15.333  13.374 -18.151  1.00  0.00    -0.048 A
HETATM   17  C15 UNL     1     -14.353  12.512 -18.649  1.00  0.00     0.008 A
HETATM   18  C16 UNL     1     -14.333  11.157 -18.470  1.00  0.00     0.001 A
HETATM   19  C17 UNL     1     -15.351  10.575 -17.745  1.00  0.00     0.000 A
HETATM   20  C18 UNL     1     -16.352  11.368 -17.224  1.00  0.00     0.001 A
HETATM   21  C19 UNL     1     -16.327  12.745 -17.433  1.00  0.00     0.008 A
ENDBRANCH  13  16
BRANCH   1  22
HETATM   22  C1  UNL     1     -17.322  17.046 -18.875  1.00  0.00     0.204 C
HETATM   23  O1  UNL     1     -17.371  18.019 -18.077  1.00  0.00    -0.646 OA
HETATM   24  O2  UNL     1     -18.456  16.283 -19.024  1.00  0.00    -0.646 OA
ENDBRANCH   1  22
TORSDOF 2
ENDMDL