MODEL 4
REMARK VINA RESULT: -7.453113366      1.765      2.271
REMARK  5 active torsions:
REMARK  status: ('A' for Active; 'I' for Inactive)
REMARK    1  A    between atoms: O1_2  and  C2_3
REMARK    2  A    between atoms: C2_3  and  C3_5
REMARK    3  A    between atoms: C8_10  and  N1_11
REMARK       I    between atoms: N1_11  and  C9_13
REMARK       I    between atoms: C9_13  and  N3_20
REMARK    4  A    between atoms: N2_14  and  C10_16
REMARK       I    between atoms: N3_20  and  C14_22
REMARK    5  A    between atoms: C14_22  and  C15_24
ROOT
HETATM    1  N1  UNL     1     -13.955  15.919 -19.616  1.00  0.00    -0.191 N
ATOM      2  H1  UNL     1     -13.663  15.527 -20.512  1.00  0.00     0.184 HD
HETATM    3  C9  UNL     1     -13.155  15.760 -18.436  1.00  0.00     0.681 C
HETATM    4  N2  UNL     1     -12.288  16.604 -18.140  1.00  0.00    -0.218 N
ATOM      5  H2  UNL     1     -11.842  16.302 -17.274  1.00  0.00     0.178 HD
HETATM    6  N3  UNL     1     -13.359  14.608 -17.591  1.00  0.00    -0.159 N
ATOM      7  H3  UNL     1     -12.799  14.522 -16.743  1.00  0.00     0.187 HD
HETATM    8  C14 UNL     1     -14.282  13.611 -17.878  1.00  0.00     0.243 C
HETATM    9  O3  UNL     1     -14.987  13.670 -18.913  1.00  0.00    -0.272 OA
ENDROOT
BRANCH   1  10
HETATM   10  C8  UNL     1     -15.168  16.643 -19.489  1.00  0.00     0.065 A
HETATM   11  C3  UNL     1     -16.026  16.822 -20.553  1.00  0.00     0.066 A
HETATM   12  C4  UNL     1     -17.196  17.539 -20.316  1.00  0.00     0.020 A
HETATM   13  C5  UNL     1     -17.556  18.080 -19.103  1.00  0.00     0.001 A
HETATM   14  C6  UNL     1     -16.674  17.888 -18.042  1.00  0.00     0.002 A
HETATM   15  C7  UNL     1     -15.517  17.189 -18.239  1.00  0.00     0.031 A
BRANCH  11  16
HETATM   16  C2  UNL     1     -15.809  16.335 -21.883  1.00  0.00     0.295 C
HETATM   17  O2  UNL     1     -14.900  16.902 -22.591  1.00  0.00    -0.259 OA
BRANCH  16  18
HETATM   18  O1  UNL     1     -16.468  15.325 -22.486  1.00  0.00    -0.322 OA
HETATM   19  C1  UNL     1     -17.086  14.230 -21.841  1.00  0.00     0.213 C
ENDBRANCH  16  18
ENDBRANCH  11  16
ENDBRANCH   1  10
BRANCH   4  20
HETATM   20  C10 UNL     1     -11.699  17.778 -18.524  1.00  0.00     0.036 C
HETATM   21  C11 UNL     1     -12.523  19.017 -18.119  1.00  0.00     0.038 C
HETATM   22  C12 UNL     1     -11.530  17.904 -20.031  1.00  0.00     0.038 C
HETATM   23  C13 UNL     1     -10.319  18.013 -17.860  1.00  0.00     0.038 C
ENDBRANCH   4  20
BRANCH   8  24
HETATM   24  C15 UNL     1     -14.504  12.426 -17.004  1.00  0.00     0.031 C
HETATM   25  C16 UNL     1     -15.169  11.291 -17.703  1.00  0.00     0.025 C
HETATM   26  C17 UNL     1     -13.111  11.968 -16.569  1.00  0.00     0.025 C
HETATM   27  C18 UNL     1     -15.232  12.836 -15.766  1.00  0.00     0.025 C
ENDBRANCH   8  24
TORSDOF 5
ENDMDL