MODEL 3
REMARK VINA RESULT: -8.647989268      2.392      4.034
REMARK  4 active torsions:
REMARK  status: ('A' for Active; 'I' for Inactive)
REMARK    1  A    between atoms: C2_2  and  C4_4
REMARK    2  A    between atoms: C6_6  and  O1_7
REMARK    3  A    between atoms: C12_14  and  C13_15
REMARK    4  A    between atoms: N1_20  and  O3_22
ROOT
HETATM    1  C4  UNL     1     -13.845  13.780 -18.035  1.00  0.00    -0.004 C
HETATM    2  C5  UNL     1     -13.452  14.532 -16.748  1.00  0.00     0.037 C
HETATM    3  C6  UNL     1     -12.634  15.706 -17.153  1.00  0.00     0.118 C
HETATM    4  C7  UNL     1     -13.067  16.428 -18.374  1.00  0.00     0.032 C
HETATM    5  C8  UNL     1     -14.567  16.525 -18.560  1.00  0.00     0.008 C
HETATM    6  C9  UNL     1     -15.128  15.359 -19.353  1.00  0.00    -0.001 C
HETATM    7  C10 UNL     1     -15.213  14.181 -18.364  1.00  0.00    -0.004 C
HETATM    8  C11 UNL     1     -16.186  13.174 -18.830  1.00  0.00     0.017 C
HETATM    9  C12 UNL     1     -17.572  13.823 -18.821  1.00  0.00     0.052 C
HETATM   10  C14 UNL     1     -17.611  15.185 -19.387  1.00  0.00     0.010 C
HETATM   11  C15 UNL     1     -18.822  15.269 -20.318  1.00  0.00     0.060 C
HETATM   12  C16 UNL     1     -18.974  16.683 -20.693  1.00  0.00     0.010 C
HETATM   13  N1  UNL     1     -20.150  17.227 -20.616  1.00  0.00    -0.277 N
ATOM     14  H1  UNL     1     -20.961  16.693 -20.302  1.00  0.00     0.193 HD
HETATM   15  C17 UNL     1     -17.784  17.426 -21.143  1.00  0.00     0.055 C
HETATM   16  C18 UNL     1     -16.564  17.167 -20.271  1.00  0.00     0.015 C
HETATM   17  C19 UNL     1     -16.374  15.649 -20.080  1.00  0.00    -0.035 C
HETATM   18  C20 UNL     1     -16.257  15.164 -21.524  1.00  0.00     0.016 C
ENDROOT
BRANCH  13  19
HETATM   19  O3  UNL     1     -20.260  18.542 -20.971  1.00  0.00    -0.290 OA
ATOM     20  H3  UNL     1     -19.711  19.167 -20.511  1.00  0.00     0.244 HD
ENDBRANCH  13  19
BRANCH   9  21
HETATM   21  C13 UNL     1     -18.567  12.898 -19.441  1.00  0.00     0.236 C
HETATM   22  O2  UNL     1     -18.504  11.686 -19.322  1.00  0.00    -0.306 OA
ENDBRANCH   9  21
BRANCH   1  23
HETATM   23  C2  UNL     1     -13.511  12.353 -17.783  1.00  0.00    -0.018 C
HETATM   24  C1  UNL     1     -13.505  11.909 -16.358  1.00  0.00     0.010 C
HETATM   25  C3  UNL     1     -12.290  11.884 -18.550  1.00  0.00     0.010 C
ENDBRANCH   1  23
BRANCH   3  26
HETATM   26  O1  UNL     1     -11.324  15.226 -17.398  1.00  0.00    -0.396 OA
ATOM     27  H1  UNL     1     -10.854  15.925 -17.837  1.00  0.00     0.210 HD
ENDBRANCH   3  26
TORSDOF 4
ENDMDL