MODEL 3
REMARK VINA RESULT: -6.292076785      1.524      2.267
REMARK  8 active torsions:
REMARK  status: ('A' for Active; 'I' for Inactive)
REMARK    1  A    between atoms: C2_2  and  C3_3
REMARK    2  A    between atoms: C6_6  and  N1_7
REMARK    3  A    between atoms: N1_7  and  C7_9
REMARK    4  A    between atoms: C7_9  and  S2_11
REMARK    5  A    between atoms: S2_11  and  S3_12
REMARK    6  A    between atoms: S3_12  and  C8_13
REMARK    7  A    between atoms: C8_13  and  N2_15
REMARK    8  A    between atoms: N2_15  and  C9_17
ROOT
HETATM    1  C7  UNL     1     -12.703  15.077 -17.148  1.00  0.00     0.145 C
HETATM    2  S1  UNL     1     -11.103  14.839 -17.074  1.00  0.00    -0.052 SA
ENDROOT
BRANCH   1   3
HETATM    3  N1  UNL     1     -13.593  14.092 -16.695  1.00  0.00    -0.370 N
ATOM      4  H1  UNL     1     -13.965  14.232 -15.756  1.00  0.00     0.161 HD
BRANCH   3   5
HETATM    5  C6  UNL     1     -14.045  12.926 -17.366  1.00  0.00     0.083 C
HETATM    6  C5  UNL     1     -13.373  11.643 -17.021  1.00  0.00     0.026 C
HETATM    7  C4  UNL     1     -14.254  10.630 -17.763  1.00  0.00     0.010 C
HETATM    8  C3  UNL     1     -15.565  11.327 -18.046  1.00  0.00     0.009 C
HETATM    9  C13 UNL     1     -15.504  12.578 -17.151  1.00  0.00     0.033 C
BRANCH   8  10
HETATM   10  C2  UNL     1     -16.701  10.469 -17.687  1.00  0.00    -0.032 C
HETATM   11  C1  UNL     1     -16.949   9.391 -18.422  1.00  0.00     0.007 C
ENDBRANCH   8  10
ENDBRANCH   3   5
ENDBRANCH   1   3
BRANCH   1  12
HETATM   12  S2  UNL     1     -13.302  16.617 -17.818  1.00  0.00    -0.021 SA
BRANCH  12  13
HETATM   13  S3  UNL     1     -15.339  16.499 -18.371  1.00  0.00    -0.021 SA
BRANCH  13  14
HETATM   14  C8  UNL     1     -15.573  15.590 -19.886  1.00  0.00     0.146 C
HETATM   15  S4  UNL     1     -14.835  16.176 -21.222  1.00  0.00    -0.052 SA
BRANCH  14  16
HETATM   16  N2  UNL     1     -16.343  14.423 -19.983  1.00  0.00    -0.367 N
ATOM     17  H2  UNL     1     -15.867  13.526 -19.894  1.00  0.00     0.161 HD
BRANCH  16  18
HETATM   18  C9  UNL     1     -17.777  14.417 -20.203  1.00  0.00     0.020 C
HETATM   19  C10 UNL     1     -18.387  15.774 -19.898  1.00  0.00     0.037 C
HETATM   20  C11 UNL     1     -18.034  14.124 -21.661  1.00  0.00     0.037 C
HETATM   21  C12 UNL     1     -18.444  13.338 -19.375  1.00  0.00     0.037 C
ENDBRANCH  16  18
ENDBRANCH  14  16
ENDBRANCH  13  14
ENDBRANCH  12  13
ENDBRANCH   1  12
TORSDOF 8
ENDMDL