MODEL 1
REMARK VINA RESULT: -9.659022765      0.000      0.000
REMARK  3 active torsions:
REMARK  status: ('A' for Active; 'I' for Inactive)
REMARK       I    between atoms: C1_2  and  N1_3
REMARK       I    between atoms: C1_2  and  N3_21
REMARK    1  A    between atoms: N1_3  and  N2_5
REMARK    2  A    between atoms: N2_5  and  C2_7
REMARK    3  A    between atoms: N3_21  and  C14_23
ROOT
HETATM    1  C2  UNL     1     -17.115  13.170 -18.970  1.00  0.00     0.138 A
HETATM    2  C3  UNL     1     -18.344  12.449 -19.370  1.00  0.00     0.317 A
HETATM    3  O2  UNL     1     -19.366  13.041 -19.779  1.00  0.00    -0.257 OA
HETATM    4  O3  UNL     1     -18.063  11.119 -19.182  1.00  0.00    -0.273 OA
HETATM    5  C4  UNL     1     -16.768  10.929 -18.700  1.00  0.00     0.093 A
HETATM    6  C5  UNL     1     -16.076   9.763 -18.375  1.00  0.00     0.039 A
HETATM    7  C6  UNL     1     -14.786   9.871 -17.913  1.00  0.00     0.015 A
HETATM    8  C7  UNL     1     -14.169  11.095 -17.767  1.00  0.00    -0.025 A
HETATM    9  C8  UNL     1     -12.869  11.205 -17.303  1.00  0.00     0.012 A
HETATM   10  C9  UNL     1     -12.222  12.406 -17.145  1.00  0.00     0.001 A
HETATM   11  C10 UNL     1     -12.936  13.542 -17.477  1.00  0.00     0.001 A
HETATM   12  C11 UNL     1     -14.233  13.491 -17.944  1.00  0.00     0.013 A
HETATM   13  C12 UNL     1     -14.846  12.263 -18.088  1.00  0.00    -0.010 A
HETATM   14  C13 UNL     1     -16.157  12.168 -18.559  1.00  0.00     0.043 A
ENDROOT
BRANCH   1  15
HETATM   15  N2  UNL     1     -16.951  14.437 -18.991  1.00  0.00    -0.290 N
ATOM     16  H2  UNL     1     -17.160  14.986 -18.158  1.00  0.00     0.187 HD
BRANCH  15  17
HETATM   17  N1  UNL     1     -16.488  15.076 -20.142  1.00  0.00    -0.251 N
HETATM   18  C1  UNL     1     -15.492  16.122 -20.058  1.00  0.00     0.339 C
HETATM   19  O1  UNL     1     -15.091  16.402 -18.924  1.00  0.00    -0.245 OA
HETATM   20  N3  UNL     1     -15.029  16.763 -21.230  1.00  0.00    -0.308 N
ATOM     21  H3  UNL     1     -15.425  16.448 -22.115  1.00  0.00     0.170 HD
ATOM     22  H1  UNL     1     -16.856  14.802 -21.053  1.00  0.00     0.191 HD
BRANCH  20  23
HETATM   23  C14 UNL     1     -14.081  17.787 -21.291  1.00  0.00     0.036 A
HETATM   24  C15 UNL     1     -12.728  17.433 -21.355  1.00  0.00     0.029 A
HETATM   25  C16 UNL     1     -11.740  18.376 -21.436  1.00  0.00     0.002 A
HETATM   26  C17 UNL     1     -12.068  19.720 -21.458  1.00  0.00     0.000 A
HETATM   27  C18 UNL     1     -13.381  20.118 -21.399  1.00  0.00     0.002 A
HETATM   28  C19 UNL     1     -14.367  19.129 -21.316  1.00  0.00     0.029 A
ENDBRANCH  20  23
ENDBRANCH  15  17
ENDBRANCH   1  15
TORSDOF 3
ENDMDL