MODEL 1
REMARK VINA RESULT: -8.933929724      0.000      0.000
REMARK  4 active torsions:
REMARK  status: ('A' for Active; 'I' for Inactive)
REMARK    1  A    between atoms: C2_2  and  C4_4
REMARK    2  A    between atoms: C4_4  and  C6_6
REMARK    3  A    between atoms: C6_6  and  O1_7
REMARK    4  A    between atoms: N1_24  and  O3_25
ROOT
HETATM    1  C6  UNL     1     -16.088  15.935 -19.466  1.00  0.00     0.098 C
HETATM    2  C7  UNL     1     -15.754  14.793 -20.473  1.00  0.00     0.070 C
HETATM    3  C8  UNL     1     -16.340  13.500 -19.991  1.00  0.00     0.004 C
HETATM    4  C9  UNL     1     -15.673  12.576 -19.336  1.00  0.00     0.036 C
HETATM    5  C10 UNL     1     -14.269  12.748 -19.023  1.00  0.00     0.046 C
HETATM    6  C11 UNL     1     -13.941  13.509 -17.769  1.00  0.00    -0.004 C
HETATM    7  C12 UNL     1     -13.305  14.852 -18.060  1.00  0.00     0.008 C
HETATM    8  C13 UNL     1     -14.222  16.014 -17.815  1.00  0.00     0.044 C
HETATM    9  C14 UNL     1     -14.762  16.531 -19.148  1.00  0.00     0.114 A
HETATM   10  C15 UNL     1     -13.832  16.651 -20.293  1.00  0.00     0.210 A
HETATM   11  O2  UNL     1     -14.428  17.792 -19.581  1.00  0.00    -0.372 OA
HETATM   12  C16 UNL     1     -12.792  12.497 -17.574  1.00  0.00     0.011 C
HETATM   13  C17 UNL     1     -13.604  11.548 -18.425  1.00  0.00    -0.002 C
HETATM   14  C18 UNL     1     -14.432  10.677 -17.560  1.00  0.00     0.033 C
HETATM   15  C19 UNL     1     -15.809  10.407 -18.031  1.00  0.00     0.111 C
HETATM   16  C20 UNL     1     -15.917   9.004 -18.644  1.00  0.00     0.035 C
HETATM   17  N1  UNL     1     -16.347  11.375 -18.930  1.00  0.00    -0.261 N
ENDROOT
BRANCH   1  18
HETATM   18  C4  UNL     1     -17.110  16.838 -20.006  1.00  0.00     0.023 C
HETATM   19  C5  UNL     1     -17.135  16.833 -21.549  1.00  0.00     0.013 C
BRANCH  18  20
HETATM   20  C2  UNL     1     -18.503  16.769 -19.581  1.00  0.00    -0.016 C
HETATM   21  C1  UNL     1     -18.825  17.804 -18.473  1.00  0.00     0.010 C
HETATM   22  C3  UNL     1     -19.634  16.771 -20.509  1.00  0.00     0.010 C
ENDBRANCH  18  20
ENDBRANCH   1  18
BRANCH   1  23
HETATM   23  O1  UNL     1     -16.518  15.199 -18.351  1.00  0.00    -0.386 OA
ATOM     24  H1  UNL     1     -15.856  15.107 -17.675  1.00  0.00     0.210 HD
ENDBRANCH   1  23
BRANCH  17  25
HETATM   25  O3  UNL     1     -17.584  11.138 -19.430  1.00  0.00    -0.287 OA
ATOM     26  H3  UNL     1     -17.818  10.240 -19.635  1.00  0.00     0.244 HD
ENDBRANCH  17  25
TORSDOF 4
ENDMDL