MODEL 4
REMARK VINA RESULT: -9.036798644      3.978      7.396
REMARK  3 active torsions:
REMARK  status: ('A' for Active; 'I' for Inactive)
REMARK    1  A    between atoms: C5_6  and  C6_7
REMARK    2  A    between atoms: C7_9  and  N2_10
REMARK    3  A    between atoms: C18_24  and  O2_25
ROOT
HETATM    1  N1  UNL     1     -11.436  19.133 -21.919  1.00  0.00    -0.191 NA
HETATM    2  C1  UNL     1     -12.322  18.621 -21.379  1.00  0.00     0.099 C
HETATM    3  C2  UNL     1     -13.440  17.958 -20.717  1.00  0.00     0.044 A
HETATM    4  C3  UNL     1     -13.970  16.805 -21.249  1.00  0.00     0.023 A
HETATM    5  C4  UNL     1     -15.042  16.188 -20.596  1.00  0.00     0.011 A
HETATM    6  C5  UNL     1     -15.595  16.658 -19.462  1.00  0.00    -0.025 A
HETATM    7  C21 UNL     1     -15.025  17.841 -18.949  1.00  0.00     0.011 A
HETATM    8  C22 UNL     1     -13.978  18.470 -19.560  1.00  0.00     0.023 A
ENDROOT
BRANCH   6   9
HETATM    9  C6  UNL     1     -16.653  16.119 -18.716  1.00  0.00     0.192 C
HETATM   10  O1  UNL     1     -17.638  17.188 -18.703  1.00  0.00    -0.341 OA
HETATM   11  C7  UNL     1     -17.999  17.431 -20.027  1.00  0.00     0.354 C
HETATM   12  C8  UNL     1     -18.771  16.267 -20.516  1.00  0.00     0.008 A
HETATM   13  C9  UNL     1     -19.735  16.400 -21.501  1.00  0.00     0.012 A
HETATM   14  C13 UNL     1     -18.504  15.033 -19.942  1.00  0.00    -0.016 A
HETATM   15  C10 UNL     1     -20.445  15.315 -21.931  1.00  0.00     0.001 A
HETATM   16  C11 UNL     1     -20.189  14.088 -21.371  1.00  0.00     0.001 A
HETATM   17  C12 UNL     1     -19.217  13.955 -20.377  1.00  0.00     0.013 A
HETATM   18  C14 UNL     1     -17.453  14.946 -18.872  1.00  0.00    -0.004 C
HETATM   19  C15 UNL     1     -17.007  13.591 -18.676  1.00  0.00    -0.026 A
HETATM   20  C16 UNL     1     -17.073  12.968 -17.415  1.00  0.00     0.015 A
HETATM   21  C20 UNL     1     -16.491  12.763 -19.659  1.00  0.00     0.015 A
HETATM   22  C17 UNL     1     -16.663  11.670 -17.200  1.00  0.00     0.037 A
HETATM   23  C18 UNL     1     -16.161  10.915 -18.233  1.00  0.00     0.065 A
HETATM   24  C19 UNL     1     -16.077  11.482 -19.486  1.00  0.00     0.037 A
BRANCH  11  25
HETATM   25  N2  UNL     1     -18.822  18.626 -20.123  1.00  0.00    -0.049 N
ATOM     26  H23 UNL     1     -19.062  18.843 -21.091  1.00  0.00     0.277 HD
ATOM     27  H22 UNL     1     -19.763  18.466 -19.764  1.00  0.00     0.277 HD
ATOM     28  H21 UNL     1     -18.369  19.414 -19.660  1.00  0.00     0.277 HD
ENDBRANCH  11  25
BRANCH  23  29
HETATM   29  O2  UNL     1     -15.732   9.607 -18.080  1.00  0.00    -0.361 OA
ATOM     30  H2  UNL     1     -16.096   8.879 -18.570  1.00  0.00     0.217 HD
ENDBRANCH  23  29
ENDBRANCH   6   9
TORSDOF 3
ENDMDL