MODEL 3
REMARK VINA RESULT: -6.768375084      3.276      5.406
REMARK  7 active torsions:
REMARK  status: ('A' for Active; 'I' for Inactive)
REMARK    1  A    between atoms: N1_1  and  C1_5
REMARK    2  A    between atoms: C1_5  and  C2_6
REMARK    3  A    between atoms: C2_6  and  N2_7
REMARK    4  A    between atoms: N2_7  and  C3_9
REMARK    5  A    between atoms: C4_12  and  N4_13
REMARK    6  A    between atoms: C9_23  and  N7_24
REMARK    7  A    between atoms: N7_24  and  C10_26
ROOT
HETATM    1  C3  UNL     1      12.746 -15.014   6.118  1.00  0.00     0.707 A
HETATM    2  N3  UNL     1      13.388 -15.066   7.302  1.00  0.00    -0.021 N
ATOM      3  H3  UNL     1      13.300 -15.910   7.867  1.00  0.00     0.203 HD
HETATM    4  C4  UNL     1      14.133 -14.060   7.770  1.00  0.00     0.709 A
HETATM    5  N6  UNL     1      14.250 -12.944   7.028  1.00  0.00    -0.021 N
ATOM      6  H6  UNL     1      14.814 -12.165   7.369  1.00  0.00     0.203 HD
HETATM    7  C9  UNL     1      13.634 -12.850   5.853  1.00  0.00     0.707 A
HETATM    8  N8  UNL     1      12.879 -13.890   5.398  1.00  0.00    -0.022 N
ATOM      9  H8  UNL     1      12.408 -13.813   4.496  1.00  0.00     0.203 HD
ENDROOT
BRANCH   1  10
HETATM   10  N2  UNL     1      12.059 -16.000   5.736  1.00  0.00    -0.223 N
ATOM     11  H2  UNL     1      11.097 -16.014   6.075  1.00  0.00     0.177 HD
BRANCH  10  12
HETATM   12  C2  UNL     1      12.423 -17.093   4.904  1.00  0.00     0.165 C
BRANCH  12  13
HETATM   13  C1  UNL     1      12.607 -18.307   5.826  1.00  0.00     0.249 C
BRANCH  13  14
HETATM   14  N1  UNL     1      11.718 -19.377   5.496  1.00  0.00    -0.078 N
ATOM     15  H13 UNL     1      10.882 -19.030   5.028  1.00  0.00     0.274 HD
ATOM     16  H12 UNL     1      12.098 -19.953   4.745  1.00  0.00     0.274 HD
ATOM     17  H11 UNL     1      11.477 -19.945   6.309  1.00  0.00     0.274 HD
ENDBRANCH  13  14
ENDBRANCH  12  13
ENDBRANCH  10  12
ENDBRANCH   1  10
BRANCH   4  18
HETATM   18  N4  UNL     1      14.828 -14.055   9.009  1.00  0.00    -0.213 N
HETATM   19  C5  UNL     1      16.246 -14.084   9.115  1.00  0.00     0.168 C
HETATM   20  C6  UNL     1      16.657 -15.204  10.070  1.00  0.00     0.252 C
HETATM   21  N5  UNL     1      16.002 -15.095  11.336  1.00  0.00    -0.072 N
HETATM   22  C7  UNL     1      14.558 -15.075  11.225  1.00  0.00     0.252 C
ATOM     23  H52 UNL     1      16.309 -15.834  11.969  1.00  0.00     0.277 HD
ATOM     24  H51 UNL     1      16.340 -14.283  11.852  1.00  0.00     0.277 HD
HETATM   25  C8  UNL     1      14.081 -14.011  10.270  1.00  0.00     0.168 C
ENDBRANCH   4  18
BRANCH   7  26
HETATM   26  N7  UNL     1      13.786 -11.755   5.192  1.00  0.00    -0.220 N
ATOM     27  H7  UNL     1      13.284 -10.915   5.483  1.00  0.00     0.178 HD
BRANCH  26  28
HETATM   28  C10 UNL     1      14.647 -11.707   4.060  1.00  0.00     0.099 C
HETATM   29  C11 UNL     1      15.741 -10.690   4.291  1.00  0.00     0.026 C
HETATM   30  C12 UNL     1      16.155 -10.378   2.851  1.00  0.00     0.002 C
HETATM   31  C13 UNL     1      14.803 -10.121   2.223  1.00  0.00     0.002 C
HETATM   32  C14 UNL     1      13.870 -11.053   2.924  1.00  0.00     0.026 C
ENDBRANCH  26  28
ENDBRANCH   7  26
TORSDOF 7
ENDMDL