MODEL 3
REMARK VINA RESULT: -7.386238429      2.055      6.914
REMARK  6 active torsions:
REMARK  status: ('A' for Active; 'I' for Inactive)
REMARK       I    between atoms: C2_2  and  N1_4
REMARK    1  A    between atoms: N1_4  and  C3_6
REMARK    2  A    between atoms: C4_7  and  C5_8
REMARK    3  A    between atoms: N2_9  and  N3_11
REMARK       I    between atoms: N3_11  and  C6_13
REMARK    4  A    between atoms: C6_13  and  C7_15
REMARK       I    between atoms: C7_15  and  N4_17
REMARK    5  A    between atoms: N4_17  and  N5_19
REMARK    6  A    between atoms: C9_23  and  N6_24
ROOT
HETATM    1  C3  UNL     1      15.367 -16.742   7.656  1.00  0.00     0.062 A
HETATM    2  C4  UNL     1      15.199 -15.464   8.051  1.00  0.00     0.013 A
HETATM    3  C8  UNL     1      15.277 -15.095   9.481  1.00  0.00     0.070 A
HETATM    4  C9  UNL     1      15.514 -15.998  10.398  1.00  0.00     0.174 A
HETATM    5  N7  UNL     1      15.688 -17.331   9.967  1.00  0.00    -0.345 N
ATOM      6  H7  UNL     1      15.872 -18.046  10.672  1.00  0.00     0.167 HD
HETATM    7  C10 UNL     1      15.626 -17.697   8.721  1.00  0.00     0.120 A
ENDROOT
BRANCH   2   8
HETATM    8  C5  UNL     1      14.936 -14.441   7.058  1.00  0.00     0.121 C
HETATM    9  N2  UNL     1      13.666 -14.178   6.813  1.00  0.00    -0.308 N
ATOM     10  H2  UNL     1      12.942 -14.691   7.318  1.00  0.00     0.186 HD
BRANCH   9  11
HETATM   11  N3  UNL     1      13.294 -13.217   5.881  1.00  0.00    -0.262 N
HETATM   12  C6  UNL     1      12.696 -13.611   4.669  1.00  0.00     0.329 C
HETATM   13  O2  UNL     1      12.504 -14.826   4.440  1.00  0.00    -0.261 OA
ATOM     14  H3  UNL     1      13.453 -12.229   6.074  1.00  0.00     0.190 HD
BRANCH  12  15
HETATM   15  C7  UNL     1      12.307 -12.614   3.695  1.00  0.00     0.329 C
HETATM   16  O3  UNL     1      11.156 -12.122   3.678  1.00  0.00    -0.261 OA
HETATM   17  N4  UNL     1      13.235 -12.149   2.705  1.00  0.00    -0.268 N
ATOM     18  H4  UNL     1      14.179 -12.535   2.698  1.00  0.00     0.190 HD
BRANCH  17  19
HETATM   19  N5  UNL     1      12.896 -11.198   1.758  1.00  0.00    -0.342 N
ATOM     20  H52 UNL     1      13.162 -10.231   1.942  1.00  0.00     0.176 HD
ATOM     21  H51 UNL     1      12.398 -11.432   0.900  1.00  0.00     0.176 HD
ENDBRANCH  17  19
ENDBRANCH  12  15
ENDBRANCH   9  11
ENDBRANCH   2   8
BRANCH   1  22
HETATM   22  N1  UNL     1      15.290 -17.083   6.291  1.00  0.00    -0.326 N
HETATM   23  C2  UNL     1      14.205 -17.624   5.595  1.00  0.00     0.218 C
HETATM   24  C1  UNL     1      14.334 -17.919   4.117  1.00  0.00     0.117 C
HETATM   25  O1  UNL     1      13.117 -17.878   6.146  1.00  0.00    -0.274 OA
ATOM     26  H1  UNL     1      16.132 -16.914   5.741  1.00  0.00     0.169 HD
ENDBRANCH   1  22
BRANCH   4  27
HETATM   27  N6  UNL     1      15.594 -15.658  11.787  1.00  0.00    -0.098 N
HETATM   28  O4  UNL     1      16.387 -16.165  12.576  1.00  0.00    -0.531 OA
HETATM   29  O5  UNL     1      14.722 -14.704  12.251  1.00  0.00    -0.531 OA
ENDBRANCH   4  27
TORSDOF 6
ENDMDL