MODEL 4
REMARK VINA RESULT: -7.113113879      2.404      4.239
REMARK  5 active torsions:
REMARK  status: ('A' for Active; 'I' for Inactive)
REMARK       I    between atoms: C3_3  and  N1_5
REMARK    1  A    between atoms: N1_5  and  C4_7
REMARK    2  A    between atoms: C4_7  and  C6_9
REMARK       I    between atoms: C6_9  and  N2_11
REMARK    3  A    between atoms: N3_14  and  C9_15
REMARK    4  A    between atoms: C9_15  and  N4_16
REMARK    5  A    between atoms: C10_23  and  N8_24
ROOT
HETATM    1  C1  UNL     1      11.706 -19.776   5.076  1.00  0.00     0.108 C
HETATM    2  C2  UNL     1      12.380 -18.760   5.029  1.00  0.00    -0.088 C
HETATM    3  C3  UNL     1      13.160 -17.556   4.991  1.00  0.00     0.284 C
HETATM    4  O1  UNL     1      14.407 -17.674   5.106  1.00  0.00    -0.259 OA
HETATM    5  N1  UNL     1      12.545 -16.287   4.830  1.00  0.00    -0.338 N
ATOM      6  H1  UNL     1      11.531 -16.230   4.739  1.00  0.00     0.164 HD
ENDROOT
BRANCH   5   7
HETATM    7  C4  UNL     1      13.346 -15.053   4.792  1.00  0.00     0.173 C
HETATM    8  C5  UNL     1      13.062 -14.392   3.457  1.00  0.00     0.042 C
BRANCH   7   9
HETATM    9  C6  UNL     1      12.976 -14.162   5.914  1.00  0.00     0.242 C
HETATM   10  O2  UNL     1      12.104 -13.262   5.658  1.00  0.00    -0.271 OA
HETATM   11  N2  UNL     1      13.491 -14.216   7.224  1.00  0.00    -0.348 N
HETATM   12  C7  UNL     1      13.046 -13.255   8.232  1.00  0.00     0.140 C
HETATM   13  C12 UNL     1      14.449 -15.186   7.679  1.00  0.00     0.140 C
HETATM   14  C8  UNL     1      13.393 -13.747   9.597  1.00  0.00     0.116 C
HETATM   15  N3  UNL     1      14.843 -13.960   9.765  1.00  0.00    -0.274 NA
HETATM   16  C11 UNL     1      15.437 -14.454   8.567  1.00  0.00     0.116 C
BRANCH  15  17
HETATM   17  C9  UNL     1      14.986 -14.753  10.932  1.00  0.00     0.198 C
BRANCH  17  18
HETATM   18  N4  UNL     1      16.159 -15.545  11.057  1.00  0.00    -0.070 N
HETATM   19  N5  UNL     1      17.381 -15.087  10.834  1.00  0.00    -0.206 N
HETATM   20  N6  UNL     1      18.247 -16.045  11.020  1.00  0.00    -0.213 N
ATOM     21  H5  UNL     1      17.611 -14.131  10.559  1.00  0.00     0.211 HD
HETATM   22  N7  UNL     1      17.587 -17.140  11.368  1.00  0.00    -0.115 N
ATOM     23  H6  UNL     1      19.259 -15.966  10.915  1.00  0.00     0.210 HD
HETATM   24  C10 UNL     1      16.296 -16.848  11.395  1.00  0.00     0.714 A
ATOM     25  H7  UNL     1      18.000 -18.049  11.578  1.00  0.00     0.207 HD
BRANCH  24  26
HETATM   26  N8  UNL     1      15.323 -17.619  11.681  1.00  0.00    -0.231 N
ATOM     27  H82 UNL     1      14.616 -17.497  12.406  1.00  0.00     0.174 HD
ATOM     28  H81 UNL     1      15.123 -18.493  11.195  1.00  0.00     0.174 HD
ENDBRANCH  24  26
ENDBRANCH  17  18
ENDBRANCH  15  17
ENDBRANCH   7   9
ENDBRANCH   5   7
TORSDOF 5
ENDMDL