MODEL 5
REMARK VINA RESULT: -5.923723269      1.918      2.453
REMARK  7 active torsions:
REMARK  status: ('A' for Active; 'I' for Inactive)
REMARK    1  A    between atoms: C2_2  and  C3_3
REMARK    2  A    between atoms: C3_3  and  N1_4
REMARK    3  A    between atoms: N5_22  and  C12_23
REMARK    4  A    between atoms: C12_23  and  C13_24
REMARK    5  A    between atoms: C13_24  and  O1_26
REMARK    6  A    between atoms: C13_24  and  C15_28
REMARK    7  A    between atoms: C15_28  and  O2_29
ROOT
HETATM    1  N1  UNL     1      13.755 -14.886   4.715  1.00  0.00    -0.320 N
HETATM    2  C4  UNL     1      13.596 -15.688   5.865  1.00  0.00     0.170 C
HETATM    3  C5  UNL     1      14.296 -17.028   5.632  1.00  0.00     0.253 C
HETATM    4  N2  UNL     1      14.625 -17.555   6.942  1.00  0.00    -0.072 N
ATOM      5  H21 UNL     1      14.414 -18.550   7.002  1.00  0.00     0.277 HD
ATOM      6  H22 UNL     1      13.977 -17.209   7.651  1.00  0.00     0.277 HD
HETATM    7  C6  UNL     1      15.994 -17.289   7.313  1.00  0.00     0.259 C
HETATM    8  C7  UNL     1      16.180 -17.260   8.815  1.00  0.00     0.259 C
HETATM    9  N3  UNL     1      15.507 -16.129   9.417  1.00  0.00    -0.072 N
ATOM     10  H31 UNL     1      15.212 -16.343  10.370  1.00  0.00     0.277 HD
ATOM     11  H32 UNL     1      14.592 -15.978   8.992  1.00  0.00     0.277 HD
HETATM   12  C8  UNL     1      16.297 -14.930   9.379  1.00  0.00     0.259 C
HETATM   13  C9  UNL     1      15.441 -13.683   9.144  1.00  0.00     0.259 C
HETATM   14  N4  UNL     1      15.887 -12.953   7.983  1.00  0.00    -0.072 N
ATOM     15  H41 UNL     1      16.666 -13.430   7.530  1.00  0.00     0.277 HD
ATOM     16  H42 UNL     1      16.356 -12.089   8.254  1.00  0.00     0.277 HD
HETATM   17  C10 UNL     1      14.815 -12.688   7.032  1.00  0.00     0.248 C
HETATM   18  C11 UNL     1      15.131 -13.310   5.679  1.00  0.00     0.141 C
HETATM   19  N5  UNL     1      13.955 -13.546   4.880  1.00  0.00    -0.225 NA
ENDROOT
BRANCH  19  20
HETATM   20  C12 UNL     1      13.893 -12.861   3.657  1.00  0.00     0.153 C
BRANCH  20  21
HETATM   21  C13 UNL     1      13.068 -11.613   3.592  1.00  0.00     0.088 C
HETATM   22  C14 UNL     1      13.669 -10.793   2.428  1.00  0.00     0.049 C
BRANCH  21  23
HETATM   23  O1  UNL     1      13.212 -10.768   4.688  1.00  0.00    -0.387 OA
ATOM     24  H1  UNL     1      12.444 -10.243   4.885  1.00  0.00     0.210 HD
ENDBRANCH  21  23
BRANCH  21  25
HETATM   25  C15 UNL     1      11.639 -11.859   3.210  1.00  0.00     0.202 C
BRANCH  25  26
HETATM   26  O2  UNL     1      10.887 -10.672   3.221  1.00  0.00    -0.398 OA
ATOM     27  H2  UNL     1      10.597 -10.448   4.098  1.00  0.00     0.209 HD
ENDBRANCH  25  26
ENDBRANCH  21  25
ENDBRANCH  20  21
ENDBRANCH  19  20
BRANCH   1  28
HETATM   28  C3  UNL     1      13.102 -15.397   3.584  1.00  0.00     0.104 C
BRANCH  28  29
HETATM   29  C2  UNL     1      11.699 -15.807   3.792  1.00  0.00     0.008 C
HETATM   30  C1  UNL     1      10.760 -15.403   2.960  1.00  0.00     0.013 C
ENDBRANCH  28  29
ENDBRANCH   1  28
TORSDOF 7
ENDMDL