MODEL 4
REMARK VINA RESULT: -7.668920655      1.015      2.353
REMARK  5 active torsions:
REMARK  status: ('A' for Active; 'I' for Inactive)
REMARK    1  A    between atoms: O1_2  and  C2_3
REMARK    2  A    between atoms: C2_3  and  C3_4
REMARK    3  A    between atoms: C3_4  and  N1_5
REMARK    4  A    between atoms: N1_5  and  C4_7
REMARK    5  A    between atoms: C5_12  and  C6_13
ROOT
HETATM    1  C4  UNL     1      14.743 -15.837   7.388  1.00  0.00     0.147 A
HETATM    2  N2  UNL     1      14.130 -14.846   8.078  1.00  0.00    -0.283 N
ATOM      3  H2  UNL     1      13.471 -14.231   7.602  1.00  0.00     0.188 HD
HETATM    4  N3  UNL     1      14.383 -14.671   9.372  1.00  0.00    -0.292 N
ATOM      5  H3  UNL     1      13.899 -13.912   9.851  1.00  0.00     0.187 HD
HETATM    6  C5  UNL     1      15.229 -15.421  10.090  1.00  0.00     0.143 A
HETATM    7  C7  UNL     1      15.866 -16.436   9.420  1.00  0.00     0.111 A
HETATM    8  N5  UNL     1      16.756 -17.348   9.843  1.00  0.00    -0.279 N
ATOM      9  H5  UNL     1      17.128 -17.444  10.788  1.00  0.00     0.184 HD
HETATM   10  N6  UNL     1      17.061 -18.108   8.778  1.00  0.00    -0.021 NA
HETATM   11  N7  UNL     1      16.383 -17.688   7.713  1.00  0.00    -0.278 N
ATOM     12  H7  UNL     1      16.428 -18.090   6.776  1.00  0.00     0.184 HD
HETATM   13  C8  UNL     1      15.635 -16.652   8.084  1.00  0.00     0.121 A
ENDROOT
BRANCH   1  14
HETATM   14  N1  UNL     1      14.544 -16.055   6.156  1.00  0.00    -0.362 N
ATOM     15  H1  UNL     1      15.256 -15.645   5.552  1.00  0.00     0.162 HD
BRANCH  14  16
HETATM   16  C3  UNL     1      13.535 -16.750   5.446  1.00  0.00     0.056 C
HETATM   17  C9  UNL     1      12.356 -15.839   5.207  1.00  0.00     0.060 C
HETATM   18  C10 UNL     1      11.996 -15.733   3.748  1.00  0.00     0.235 C
HETATM   19  N8  UNL     1      13.081 -15.332   2.905  1.00  0.00    -0.075 N
HETATM   20  C11 UNL     1      14.353 -15.875   3.270  1.00  0.00     0.235 C
ATOM     21  H82 UNL     1      12.870 -15.547   1.931  1.00  0.00     0.277 HD
ATOM     22  H81 UNL     1      13.133 -14.314   2.854  1.00  0.00     0.277 HD
HETATM   23  C12 UNL     1      14.094 -17.147   4.069  1.00  0.00     0.060 C
BRANCH  16  24
HETATM   24  C2  UNL     1      13.195 -18.033   6.135  1.00  0.00     0.198 C
BRANCH  24  25
HETATM   25  O1  UNL     1      11.855 -18.399   5.943  1.00  0.00    -0.393 OA
HETATM   26  C1  UNL     1      11.777 -19.595   5.235  1.00  0.00     0.201 C
ENDBRANCH  24  25
ENDBRANCH  16  24
ENDBRANCH  14  16
ENDBRANCH   1  14
BRANCH   6  27
HETATM   27  C6  UNL     1      15.395 -15.103  11.488  1.00  0.00     0.285 C
HETATM   28  N4  UNL     1      16.625 -15.291  12.167  1.00  0.00    -0.056 NA
HETATM   29  O2  UNL     1      14.437 -14.647  12.144  1.00  0.00    -0.269 OA
ENDBRANCH   6  27
TORSDOF 5
ENDMDL