MODEL 2
REMARK VINA RESULT: -6.529950164      2.473      3.613
REMARK  6 active torsions:
REMARK  status: ('A' for Active; 'I' for Inactive)
REMARK    1  A    between atoms: O1_1  and  C1_3
REMARK    2  A    between atoms: C1_3  and  C2_4
REMARK    3  A    between atoms: C2_4  and  N1_5
REMARK    4  A    between atoms: N4_18  and  C10_19
REMARK    5  A    between atoms: C10_19  and  C11_20
REMARK    6  A    between atoms: C11_20  and  O2_21
ROOT
HETATM    1  N1  UNL     1      14.631 -14.349   8.575  1.00  0.00     0.092 N
HETATM    2  C3  UNL     1      15.310 -13.086   8.347  1.00  0.00     0.300 C
HETATM    3  C4  UNL     1      16.790 -13.192   8.615  1.00  0.00     0.262 C
HETATM    4  N2  UNL     1      17.506 -12.013   8.107  1.00  0.00    -0.073 N
ATOM      5  H21 UNL     1      18.517 -12.139   8.126  1.00  0.00     0.277 HD
ATOM      6  H22 UNL     1      17.447 -11.221   8.747  1.00  0.00     0.277 HD
HETATM    7  C5  UNL     1      17.028 -11.693   6.809  1.00  0.00     0.234 C
HETATM    8  C6  UNL     1      17.952 -10.962   5.896  1.00  0.00     0.046 C
HETATM    9  C7  UNL     1      17.094 -10.111   4.968  1.00  0.00     0.115 C
HETATM   10  N3  UNL     1      16.789 -10.701   3.721  1.00  0.00    -0.420 N
ATOM     11  H3  UNL     1      17.325 -10.454   2.888  1.00  0.00     0.153 HD
HETATM   12  C8  UNL     1      15.734 -11.635   3.642  1.00  0.00     0.129 C
HETATM   13  C9  UNL     1      14.386 -11.196   4.098  1.00  0.00     0.122 C
HETATM   14  N4  UNL     1      13.496 -12.335   4.073  1.00  0.00    -0.255 NA
HETATM   15  S1  UNL     1      13.009 -12.917   5.635  1.00  0.00    -0.081 SA
HETATM   16  C12 UNL     1      13.978 -14.347   6.185  1.00  0.00     0.121 C
HETATM   17  C13 UNL     1      13.628 -14.647   7.624  1.00  0.00     0.284 C
ENDROOT
BRANCH   1  18
HETATM   18  C2  UNL     1      14.064 -14.267   9.893  1.00  0.00     0.298 C
BRANCH  18  19
HETATM   19  C1  UNL     1      14.698 -15.062  10.966  1.00  0.00     0.194 C
BRANCH  19  20
HETATM   20  O1  UNL     1      14.335 -14.671  12.242  1.00  0.00    -0.399 OA
ATOM     21  H1  UNL     1      14.327 -15.380  12.874  1.00  0.00     0.209 HD
ENDBRANCH  19  20
ENDBRANCH  18  19
ENDBRANCH   1  18
BRANCH  14  22
HETATM   22  C10 UNL     1      12.352 -12.182   3.229  1.00  0.00     0.128 C
BRANCH  22  23
HETATM   23  C11 UNL     1      12.051 -10.734   2.879  1.00  0.00     0.179 C
BRANCH  23  24
HETATM   24  O2  UNL     1      10.775 -10.367   3.275  1.00  0.00    -0.400 OA
ATOM     25  H2  UNL     1      10.513  -9.539   2.891  1.00  0.00     0.209 HD
ENDBRANCH  23  24
ENDBRANCH  22  23
ENDBRANCH  14  22
TORSDOF 6
ENDMDL