MODEL 4
REMARK VINA RESULT: -6.547888068      2.503      5.802
REMARK  5 active torsions:
REMARK  status: ('A' for Active; 'I' for Inactive)
REMARK    1  A    between atoms: S1_2  and  N1_5
REMARK    2  A    between atoms: N1_5  and  C2_7
REMARK    3  A    between atoms: C4_11  and  S3_12
REMARK    4  A    between atoms: S3_12  and  N3_13
REMARK    5  A    between atoms: C5_18  and  C6_19
ROOT
HETATM    1  C2  UNL     1      14.541 -14.403   8.906  1.00  0.00     0.090 A
HETATM    2  C3  UNL     1      13.509 -13.524   9.085  1.00  0.00     0.116 A
HETATM    3  N2  UNL     1      13.320 -12.567  10.151  1.00  0.00    -0.092 NA
HETATM    4  S2  UNL     1      12.500 -13.838   7.763  1.00  0.00    -0.058 SA
HETATM    5  C4  UNL     1      13.417 -15.100   6.994  1.00  0.00     0.139 A
HETATM    6  C5  UNL     1      14.486 -15.218   7.823  1.00  0.00     0.089 A
ENDROOT
BRANCH   1   7
HETATM    7  N1  UNL     1      15.644 -14.354   9.863  1.00  0.00    -0.281 N
ATOM      8  H1  UNL     1      16.479 -13.810   9.647  1.00  0.00     0.178 HD
BRANCH   7   9
HETATM    9  S1  UNL     1      15.540 -15.205  11.341  1.00  0.00     0.227 S
HETATM   10  C1  UNL     1      15.295 -16.964  11.109  1.00  0.00     0.186 C
HETATM   11  O1  UNL     1      16.829 -15.063  12.135  1.00  0.00    -0.206 OA
HETATM   12  O2  UNL     1      14.446 -14.747  12.248  1.00  0.00    -0.206 OA
ENDBRANCH   7   9
ENDBRANCH   1   7
BRANCH   6  13
HETATM   13  C6  UNL     1      15.520 -16.265   7.608  1.00  0.00     0.269 C
HETATM   14  N4  UNL     1      16.871 -16.016   7.372  1.00  0.00    -0.057 NA
HETATM   15  O5  UNL     1      15.226 -17.504   7.625  1.00  0.00    -0.271 OA
ENDBRANCH   6  13
BRANCH   5  16
HETATM   16  S3  UNL     1      12.895 -15.889   5.531  1.00  0.00     0.264 S
HETATM   17  O3  UNL     1      12.338 -14.993   4.485  1.00  0.00    -0.200 OA
HETATM   18  O4  UNL     1      11.669 -16.772   5.906  1.00  0.00    -0.200 OA
BRANCH  16  19
HETATM   19  N3  UNL     1      14.005 -17.009   4.887  1.00  0.00    -0.324 N
ATOM     20  H32 UNL     1      14.676 -17.499   5.478  1.00  0.00     0.169 HD
ATOM     21  H31 UNL     1      13.941 -17.143   3.878  1.00  0.00     0.169 HD
ENDBRANCH  16  19
ENDBRANCH   5  16
TORSDOF 5
ENDMDL