MODEL 1
REMARK VINA RESULT: -6.039927965      0.000      0.000
REMARK  9 active torsions:
REMARK  status: ('A' for Active; 'I' for Inactive)
REMARK    1  A    between atoms: N1_2  and  C3_4
REMARK    2  A    between atoms: C3_4  and  N2_6
REMARK    3  A    between atoms: C6_11  and  N4_12
REMARK    4  A    between atoms: C7_17  and  N6_18
REMARK    5  A    between atoms: N6_18  and  C8_20
REMARK    6  A    between atoms: C8_20  and  C9_21
REMARK    7  A    between atoms: C9_21  and  C10_22
REMARK    8  A    between atoms: C10_22  and  C11_23
REMARK    9  A    between atoms: C11_23  and  N7_24
ROOT
HETATM    1  N2  UNL     1      15.282 -15.950  10.364  1.00  0.00    -0.268 N
HETATM    2  C4  UNL     1      14.713 -15.147  11.262  1.00  0.00     0.193 A
HETATM    3  N3  UNL     1      13.996 -14.183  10.652  1.00  0.00    -0.346 N
ATOM      4  H3  UNL     1      13.466 -13.446  11.118  1.00  0.00     0.167 HD
HETATM    5  C5  UNL     1      14.099 -14.359   9.332  1.00  0.00     0.123 A
HETATM    6  C6  UNL     1      13.616 -13.730   8.204  1.00  0.00     0.145 A
HETATM    7  N5  UNL     1      13.957 -14.229   7.004  1.00  0.00    -0.175 N
ATOM      8  H5  UNL     1      13.599 -13.762   6.170  1.00  0.00     0.186 HD
HETATM    9  C7  UNL     1      14.742 -15.308   6.840  1.00  0.00     0.681 A
HETATM   10  N8  UNL     1      15.222 -15.934   7.932  1.00  0.00    -0.174 N
ATOM     11  H8  UNL     1      15.820 -16.755   7.832  1.00  0.00     0.186 HD
HETATM   12  C12 UNL     1      14.906 -15.469   9.153  1.00  0.00     0.161 A
ENDROOT
BRANCH   9  13
HETATM   13  N6  UNL     1      15.056 -15.769   5.654  1.00  0.00    -0.226 N
ATOM     14  H6  UNL     1      15.221 -15.149   4.861  1.00  0.00     0.177 HD
BRANCH  13  15
HETATM   15  C8  UNL     1      15.154 -17.232   5.530  1.00  0.00     0.138 C
BRANCH  15  16
HETATM   16  C9  UNL     1      14.290 -17.598   4.347  1.00  0.00     0.022 C
BRANCH  16  17
HETATM   17  C10 UNL     1      12.816 -17.619   4.679  1.00  0.00     0.029 C
BRANCH  17  18
HETATM   18  C11 UNL     1      12.539 -18.475   5.896  1.00  0.00     0.229 C
BRANCH  18  19
HETATM   19  N7  UNL     1      11.687 -19.581   5.451  1.00  0.00    -0.079 N
ATOM     20  H73 UNL     1      11.569 -19.615   4.439  1.00  0.00     0.274 HD
ATOM     21  H72 UNL     1      12.125 -20.496   5.561  1.00  0.00     0.274 HD
ATOM     22  H71 UNL     1      10.804 -19.495   5.956  1.00  0.00     0.274 HD
ENDBRANCH  18  19
ENDBRANCH  17  18
ENDBRANCH  16  17
ENDBRANCH  15  16
ENDBRANCH  13  15
ENDBRANCH   9  13
BRANCH   6  23
HETATM   23  N4  UNL     1      12.859 -12.692   8.324  1.00  0.00    -0.383 N
ATOM     24  H42 UNL     1      13.224 -11.743   8.241  1.00  0.00     0.157 HD
ATOM     25  H41 UNL     1      11.862 -12.810   8.506  1.00  0.00     0.157 HD
ENDBRANCH   6  23
BRANCH   1  26
HETATM   26  C3  UNL     1      16.127 -17.101  10.578  1.00  0.00     0.182 C
HETATM   27  S1  UNL     1      17.746 -16.934  10.699  1.00  0.00    -0.040 SA
BRANCH  26  28
HETATM   28  N1  UNL     1      15.580 -18.395  10.687  1.00  0.00    -0.366 N
HETATM   29  C1  UNL     1      15.415 -19.198   9.506  1.00  0.00     0.151 C
HETATM   30  C2  UNL     1      15.187 -18.918  11.968  1.00  0.00     0.151 C
ENDBRANCH  26  28
ENDBRANCH   1  26
TORSDOF 9
ENDMDL