MODEL 4
REMARK VINA RESULT: -6.201539239      3.701      5.727
REMARK  7 active torsions:
REMARK  status: ('A' for Active; 'I' for Inactive)
REMARK    1  A    between atoms: C4_4  and  N1_5
REMARK    2  A    between atoms: N1_5  and  C5_7
REMARK    3  A    between atoms: C5_7  and  C6_8
REMARK    4  A    between atoms: C6_8  and  N2_9
REMARK    5  A    between atoms: C8_14  and  N3_15
REMARK    6  A    between atoms: N3_15  and  N4_17
REMARK       I    between atoms: N4_17  and  C9_19
REMARK    7  A    between atoms: C10_24  and  N6_25
ROOT
HETATM    1  C1  UNL     1      17.388 -11.962   7.601  1.00  0.00     0.068 C
HETATM    2  C2  UNL     1      16.911 -13.357   7.850  1.00  0.00     0.009 A
HETATM    3  C3  UNL     1      17.240 -13.975   9.046  1.00  0.00     0.054 A
HETATM    4  C4  UNL     1      16.819 -15.254   9.311  1.00  0.00     0.047 A
HETATM    5  C7  UNL     1      16.060 -15.904   8.345  1.00  0.00     0.081 A
HETATM    6  C8  UNL     1      15.613 -17.180   8.552  1.00  0.00     0.152 A
HETATM    7  N5  UNL     1      14.872 -17.816   7.612  1.00  0.00    -0.174 N
ATOM      8  H5  UNL     1      14.550 -18.767   7.789  1.00  0.00     0.186 HD
HETATM    9  C10 UNL     1      14.553 -17.218   6.451  1.00  0.00     0.682 A
HETATM   10  N7  UNL     1      15.000 -15.964   6.264  1.00  0.00    -0.175 N
ATOM     11  H7  UNL     1      14.764 -15.500   5.387  1.00  0.00     0.186 HD
HETATM   12  C13 UNL     1      15.733 -15.286   7.151  1.00  0.00     0.137 A
HETATM   13  N8  UNL     1      16.172 -14.028   6.945  1.00  0.00    -0.345 N
ATOM     14  H8  UNL     1      15.935 -13.564   6.068  1.00  0.00     0.167 HD
ENDROOT
BRANCH   4  15
HETATM   15  N1  UNL     1      17.083 -15.895  10.398  1.00  0.00    -0.387 N
ATOM     16  H1  UNL     1      17.556 -16.799  10.386  1.00  0.00     0.159 HD
BRANCH  15  17
HETATM   17  C5  UNL     1      16.667 -15.257  11.652  1.00  0.00     0.147 C
BRANCH  17  18
HETATM   18  C6  UNL     1      15.265 -14.698  11.520  1.00  0.00     0.249 C
BRANCH  18  19
HETATM   19  N2  UNL     1      14.282 -15.746  11.650  1.00  0.00    -0.078 N
ATOM     20  H23 UNL     1      14.022 -16.134  10.743  1.00  0.00     0.274 HD
ATOM     21  H22 UNL     1      14.679 -16.586  12.070  1.00  0.00     0.274 HD
ATOM     22  H21 UNL     1      13.467 -15.415  12.166  1.00  0.00     0.274 HD
ENDBRANCH  18  19
ENDBRANCH  17  18
ENDBRANCH  15  17
ENDBRANCH   4  15
BRANCH   6  23
HETATM   23  N3  UNL     1      15.922 -17.754   9.673  1.00  0.00    -0.279 N
ATOM     24  H3  UNL     1      16.565 -17.288  10.313  1.00  0.00     0.189 HD
BRANCH  23  25
HETATM   25  N4  UNL     1      15.387 -19.014  10.027  1.00  0.00    -0.242 N
HETATM   26  C9  UNL     1      15.141 -19.346  11.382  1.00  0.00     0.303 C
HETATM   27  O1  UNL     1      15.382 -18.550  12.329  1.00  0.00    -0.628 OA
HETATM   28  O2  UNL     1      14.617 -20.584  11.705  1.00  0.00    -0.628 OA
ATOM     29  H4  UNL     1      15.175 -19.693   9.297  1.00  0.00     0.193 HD
ENDBRANCH  23  25
ENDBRANCH   6  23
BRANCH   9  30
HETATM   30  N6  UNL     1      13.763 -17.908   5.461  1.00  0.00    -0.226 N
HETATM   31  C11 UNL     1      14.223 -17.913   4.102  1.00  0.00     0.168 C
HETATM   32  C12 UNL     1      12.545 -18.580   5.805  1.00  0.00     0.168 C
ENDBRANCH   9  30
TORSDOF 7
ENDMDL