MODEL 1
REMARK VINA RESULT: -5.339359916      0.000      0.000
REMARK  10 active torsions:
REMARK  status: ('A' for Active; 'I' for Inactive)
REMARK    1  A    between atoms: N1_2  and  C3_4
REMARK    2  A    between atoms: C3_4  and  O1_5
REMARK    3  A    between atoms: C6_14  and  O2_15
REMARK    4  A    between atoms: C7_17  and  O3_18
REMARK    5  A    between atoms: C7_17  and  C8_20
REMARK       I    between atoms: C8_20  and  N5_22
REMARK    6  A    between atoms: N5_22  and  N6_24
REMARK       I    between atoms: N6_24  and  C9_26
REMARK    7  A    between atoms: C9_26  and  C10_28
REMARK    8  A    between atoms: C10_28  and  N7_29
REMARK    9  A    between atoms: C10_28  and  C11_33
REMARK   10  A    between atoms: C11_33  and  N8_34
ROOT
HETATM    1  C3  UNL     1      -4.683 -29.406  14.188  1.00  0.00     0.236 A
HETATM    2  C4  UNL     1      -5.944 -28.877  15.001  1.00  0.00     0.153 A
HETATM    3  N2  UNL     1      -6.990 -28.302  15.637  1.00  0.00    -0.357 N
ATOM      4  H2  UNL     1      -7.650 -28.752  16.271  1.00  0.00     0.162 HD
HETATM    5  C5  UNL     1      -6.976 -26.891  15.223  1.00  0.00     0.268 A
HETATM    6  N3  UNL     1      -5.944 -26.781  14.403  1.00  0.00    -0.276 N
HETATM    7  N4  UNL     1      -5.688 -27.880  14.522  1.00  0.00    -0.283 N
ATOM      8  H4  UNL     1      -4.865 -28.045  13.942  1.00  0.00     0.188 HD
HETATM    9  C6  UNL     1      -4.747 -26.708  13.468  1.00  0.00     0.287 A
HETATM   10  C7  UNL     1      -4.172 -28.150  13.393  1.00  0.00     0.243 A
ENDROOT
BRANCH  10  11
HETATM   11  O3  UNL     1      -4.237 -28.534  12.057  1.00  0.00    -0.372 OA
ATOM     12  H3  UNL     1      -3.341 -28.754  11.830  1.00  0.00     0.211 HD
ENDBRANCH  10  11
BRANCH  10  13
HETATM   13  C8  UNL     1      -2.713 -27.977  13.712  1.00  0.00     0.281 C
HETATM   14  O4  UNL     1      -1.878 -28.438  12.892  1.00  0.00    -0.268 OA
HETATM   15  N5  UNL     1      -2.266 -27.322  14.888  1.00  0.00    -0.265 N
ATOM     16  H5  UNL     1      -2.972 -26.962  15.529  1.00  0.00     0.190 HD
BRANCH  15  17
HETATM   17  N6  UNL     1      -0.940 -27.137  15.225  1.00  0.00    -0.266 N
HETATM   18  C9  UNL     1      -0.181 -28.087  15.965  1.00  0.00     0.268 C
HETATM   19  O5  UNL     1      -0.755 -29.153  16.334  1.00  0.00    -0.269 OA
ATOM     20  H6  UNL     1      -0.481 -26.276  14.927  1.00  0.00     0.190 HD
BRANCH  18  21
HETATM   21  C10 UNL     1       1.226 -27.879  16.312  1.00  0.00     0.301 C
BRANCH  21  22
HETATM   22  N7  UNL     1       1.919 -27.179  15.252  1.00  0.00    -0.065 N
ATOM     23  H73 UNL     1       1.268 -26.711  14.622  1.00  0.00     0.275 HD
ATOM     24  H72 UNL     1       2.411 -26.357  15.602  1.00  0.00     0.275 HD
ATOM     25  H71 UNL     1       2.545 -27.809  14.750  1.00  0.00     0.275 HD
ENDBRANCH  21  22
BRANCH  21  26
HETATM   26  C11 UNL     1       1.975 -29.142  16.653  1.00  0.00     0.272 C
BRANCH  26  27
HETATM   27  N8  UNL     1       2.267 -29.883  15.435  1.00  0.00    -0.077 N
ATOM     28  H83 UNL     1       1.988 -30.861  15.505  1.00  0.00     0.274 HD
ATOM     29  H82 UNL     1       1.656 -29.610  14.664  1.00  0.00     0.274 HD
ATOM     30  H81 UNL     1       3.254 -29.780  15.199  1.00  0.00     0.274 HD
ENDBRANCH  26  27
ENDBRANCH  21  26
ENDBRANCH  18  21
ENDBRANCH  15  17
ENDBRANCH  10  13
BRANCH   1  31
HETATM   31  N1  UNL     1      -5.079 -30.458  13.378  1.00  0.00    -0.382 N
HETATM   32  C1  UNL     1      -4.269 -31.527  13.038  1.00  0.00     0.146 C
HETATM   33  C2  UNL     1      -6.457 -30.661  13.098  1.00  0.00     0.146 C
ENDBRANCH   1  31
BRANCH   1  34
HETATM   34  O1  UNL     1      -3.728 -29.826  15.096  1.00  0.00    -0.362 OA
ATOM     35  H1  UNL     1      -2.910 -29.363  14.958  1.00  0.00     0.213 HD
ENDBRANCH   1  34
BRANCH   9  36
HETATM   36  O2  UNL     1      -5.290 -26.374  12.257  1.00  0.00    -0.371 OA
ATOM     37  H2  UNL     1      -4.714 -26.787  11.625  1.00  0.00     0.212 HD
ENDBRANCH   9  36
TORSDOF 10
ENDMDL