MODEL 4
REMARK VINA RESULT: -6.566354429      2.435      3.008
REMARK  7 active torsions:
REMARK  status: ('A' for Active; 'I' for Inactive)
REMARK       I    between atoms: N1_2  and  C2_4
REMARK       I    between atoms: C2_4  and  N3_6
REMARK       I    between atoms: N3_6  and  C3_8
REMARK    1  A    between atoms: C3_8  and  C4_10
REMARK    2  A    between atoms: C4_10  and  O2_11
REMARK    3  A    between atoms: C4_10  and  C5_13
REMARK    4  A    between atoms: C6_17  and  N5_18
REMARK    5  A    between atoms: C7_23  and  C8_24
REMARK    6  A    between atoms: C9_29  and  O4_30
REMARK    7  A    between atoms: C10_32  and  O5_33
ROOT
HETATM    1  C5  UNL     1       0.065 -29.434  16.045  1.00  0.00     0.257 C
HETATM    2  N4  UNL     1      -0.943 -28.573  16.612  1.00  0.00    -0.038 N
ATOM      3  H41 UNL     1      -0.804 -28.332  17.594  1.00  0.00     0.280 HD
ATOM      4  H42 UNL     1      -1.856 -29.006  16.750  1.00  0.00     0.280 HD
HETATM    5  C6  UNL     1      -0.926 -27.450  15.692  1.00  0.00     0.358 C
HETATM    6  C9  UNL     1       0.511 -27.287  15.235  1.00  0.00     0.202 C
HETATM    7  C10 UNL     1       1.212 -28.599  15.612  1.00  0.00     0.184 C
ENDROOT
BRANCH   1   8
HETATM    8  C4  UNL     1       0.384 -30.635  16.867  1.00  0.00     0.243 C
BRANCH   8   9
HETATM    9  C3  UNL     1       0.204 -31.928  16.176  1.00  0.00     0.255 C
HETATM   10  N3  UNL     1       1.072 -32.992  16.505  1.00  0.00    -0.299 N
HETATM   11  C2  UNL     1       0.927 -34.242  15.863  1.00  0.00     0.190 C
ATOM     12  H3  UNL     1       1.803 -32.858  17.204  1.00  0.00     0.171 HD
HETATM   13  N1  UNL     1       1.711 -35.249  16.140  1.00  0.00    -0.369 N
HETATM   14  N2  UNL     1      -0.077 -34.441  14.894  1.00  0.00    -0.063 NA
HETATM   15  C1  UNL     1       2.767 -35.175  17.104  1.00  0.00     0.148 C
ATOM     16  H1  UNL     1       1.564 -36.130  15.647  1.00  0.00     0.161 HD
HETATM   17  O1  UNL     1      -0.681 -32.131  15.311  1.00  0.00    -0.270 OA
ENDBRANCH   8   9
BRANCH   8  18
HETATM   18  O2  UNL     1       1.711 -30.517  17.271  1.00  0.00    -0.384 OA
ATOM     19  H2  UNL     1       1.766 -29.873  17.967  1.00  0.00     0.210 HD
ENDBRANCH   8  18
ENDBRANCH   1   8
BRANCH   7  20
HETATM   20  O5  UNL     1       1.813 -29.082  14.429  1.00  0.00    -0.391 OA
ATOM     21  H5  UNL     1       2.209 -29.937  14.547  1.00  0.00     0.210 HD
ENDBRANCH   7  20
BRANCH   5  22
HETATM   22  N5  UNL     1      -1.816 -27.686  14.579  1.00  0.00    -0.183 N
HETATM   23  N6  UNL     1      -1.483 -27.963  13.338  1.00  0.00    -0.222 N
HETATM   24  N7  UNL     1      -2.589 -28.115  12.597  1.00  0.00    -0.264 N
ATOM     25  H6  UNL     1      -0.528 -28.049  12.992  1.00  0.00     0.210 HD
HETATM   26  C7  UNL     1      -3.649 -27.925  13.404  1.00  0.00     0.203 A
ATOM     27  H7  UNL     1      -2.621 -28.335  11.601  1.00  0.00     0.190 HD
HETATM   28  N9  UNL     1      -3.137 -27.663  14.619  1.00  0.00    -0.260 N
ATOM     29  H9  UNL     1      -3.690 -27.472  15.455  1.00  0.00     0.190 HD
BRANCH  26  30
HETATM   30  C8  UNL     1      -5.081 -27.990  13.037  1.00  0.00     0.301 C
HETATM   31  N8  UNL     1      -5.474 -27.509  11.771  1.00  0.00    -0.054 NA
HETATM   32  O3  UNL     1      -5.915 -28.461  13.832  1.00  0.00    -0.268 OA
ENDBRANCH  26  30
ENDBRANCH   5  22
BRANCH   6  33
HETATM   33  O4  UNL     1       1.064 -26.235  15.944  1.00  0.00    -0.389 OA
ATOM     34  H4  UNL     1       0.406 -25.914  16.549  1.00  0.00     0.210 HD
ENDBRANCH   6  33
TORSDOF 7
ENDMDL