MODEL 4
REMARK VINA RESULT: -6.252728618      1.107      1.288
REMARK  8 active torsions:
REMARK  status: ('A' for Active; 'I' for Inactive)
REMARK    1  A    between atoms: N1_1  and  C1_4
REMARK    2  A    between atoms: N3_8  and  C3_9
REMARK    3  A    between atoms: C4_11  and  C5_12
REMARK    4  A    between atoms: C5_12  and  C6_13
REMARK    5  A    between atoms: C6_13  and  C7_14
REMARK       I    between atoms: C7_14  and  N4_16
REMARK    6  A    between atoms: C9_23  and  O3_24
REMARK    7  A    between atoms: C9_23  and  O4_26
REMARK    8  A    between atoms: C10_28  and  O5_29
ROOT
HETATM    1  C3  UNL     1       0.227 -30.035  16.097  1.00  0.00     0.272 C
HETATM    2  O1  UNL     1      -0.686 -29.246  16.759  1.00  0.00    -0.339 OA
HETATM    3  C4  UNL     1      -1.112 -28.145  16.060  1.00  0.00     0.223 C
HETATM    4  N7  UNL     1      -0.082 -27.356  15.475  1.00  0.00    -0.341 N
ATOM      5  H7  UNL     1      -0.279 -26.541  14.893  1.00  0.00     0.161 HD
HETATM    6  C9  UNL     1       1.248 -27.791  15.765  1.00  0.00     0.273 C
HETATM    7  C10 UNL     1       1.334 -29.273  15.437  1.00  0.00     0.252 C
ENDROOT
BRANCH   1   8
HETATM    8  N3  UNL     1       0.726 -31.015  17.051  1.00  0.00    -0.265 N
HETATM    9  C2  UNL     1       1.204 -30.657  18.269  1.00  0.00     0.208 A
HETATM   10  N2  UNL     1       1.662 -31.562  19.145  1.00  0.00    -0.188 N
HETATM   11  C1  UNL     1       1.666 -32.853  18.849  1.00  0.00     0.680 A
ATOM     12  H2  UNL     1       2.013 -31.253  20.051  1.00  0.00     0.185 HD
HETATM   13  N8  UNL     1       1.205 -33.255  17.659  1.00  0.00    -0.141 N
HETATM   14  C11 UNL     1       0.750 -32.337  16.795  1.00  0.00     0.344 A
ATOM     15  H8  UNL     1       1.199 -34.245  17.413  1.00  0.00     0.189 HD
HETATM   16  O6  UNL     1       0.300 -32.674  15.648  1.00  0.00    -0.246 OA
BRANCH  11  17
HETATM   17  N1  UNL     1       2.122 -33.685  19.737  1.00  0.00    -0.234 N
ATOM     18  H12 UNL     1       2.240 -34.680  19.544  1.00  0.00     0.174 HD
ATOM     19  H11 UNL     1       2.367 -33.322  20.657  1.00  0.00     0.174 HD
ENDBRANCH  11  17
ENDBRANCH   1   8
BRANCH   7  20
HETATM   20  O5  UNL     1       2.603 -29.734  15.856  1.00  0.00    -0.384 OA
ATOM     21  H5  UNL     1       3.118 -30.051  15.124  1.00  0.00     0.210 HD
ENDBRANCH   7  20
BRANCH   3  22
HETATM   22  C5  UNL     1      -2.129 -28.546  15.010  1.00  0.00     0.062 C
BRANCH  22  23
HETATM   23  C6  UNL     1      -1.900 -27.776  13.733  1.00  0.00     0.107 C
BRANCH  23  24
HETATM   24  C7  UNL     1      -2.733 -28.324  12.653  1.00  0.00     0.223 C
HETATM   25  O2  UNL     1      -2.536 -29.468  12.227  1.00  0.00    -0.273 OA
HETATM   26  N4  UNL     1      -3.758 -27.529  12.109  1.00  0.00    -0.304 N
HETATM   27  C8  UNL     1      -4.900 -27.479  12.679  1.00  0.00     0.203 C
ATOM     28  H4  UNL     1      -3.590 -26.992  11.259  1.00  0.00     0.171 HD
HETATM   29  N5  UNL     1      -5.135 -28.218  13.851  1.00  0.00    -0.066 NA
HETATM   30  N6  UNL     1      -5.920 -26.657  12.093  1.00  0.00    -0.066 NA
ENDBRANCH  23  24
ENDBRANCH  22  23
ENDBRANCH   3  22
BRANCH   6  31
HETATM   31  O3  UNL     1       1.633 -27.565  17.085  1.00  0.00    -0.347 OA
ATOM     32  H3  UNL     1       2.185 -28.251  17.442  1.00  0.00     0.215 HD
ENDBRANCH   6  31
BRANCH   6  33
HETATM   33  O4  UNL     1       2.123 -27.135  14.898  1.00  0.00    -0.347 OA
ATOM     34  H4  UNL     1       3.010 -27.401  15.111  1.00  0.00     0.215 HD
ENDBRANCH   6  33
TORSDOF 8
ENDMDL