MODEL 1
REMARK VINA RESULT: -6.069543494      0.000      0.000
REMARK  11 active torsions:
REMARK  status: ('A' for Active; 'I' for Inactive)
REMARK    1  A    between atoms: N1_1  and  C1_4
REMARK    2  A    between atoms: C2_7  and  N3_8
REMARK    3  A    between atoms: N3_8  and  N4_10
REMARK    4  A    between atoms: C3_13  and  O1_14
REMARK    5  A    between atoms: O1_14  and  C4_15
REMARK    6  A    between atoms: C4_15  and  C5_16
REMARK    7  A    between atoms: C5_16  and  N5_17
REMARK    8  A    between atoms: C6_18  and  O2_19
REMARK    9  A    between atoms: C8_24  and  N7_25
REMARK   10  A    between atoms: N7_25  and  N8_27
REMARK   11  A    between atoms: N11_36  and  N12_37
ROOT
HETATM    1  C4  UNL     1      -0.925 -28.071  15.043  1.00  0.00     0.198 C
ENDROOT
BRANCH   1   2
HETATM    2  O1  UNL     1      -0.397 -29.381  15.035  1.00  0.00    -0.329 OA
BRANCH   2   3
HETATM    3  C3  UNL     1       0.165 -29.879  16.193  1.00  0.00     0.228 A
HETATM    4  C2  UNL     1       1.476 -29.697  16.522  1.00  0.00     0.190 A
HETATM    5  N2  UNL     1       1.887 -30.257  17.699  1.00  0.00    -0.170 N
HETATM    6  C1  UNL     1       1.068 -30.950  18.501  1.00  0.00     0.693 A
ATOM      7  H2  UNL     1       2.861 -30.143  17.979  1.00  0.00     0.186 HD
HETATM    8  N13 UNL     1      -0.217 -31.103  18.135  1.00  0.00    -0.109 N
HETATM    9  N11 UNL     1      -0.677 -30.586  17.008  1.00  0.00    -0.161 N
ATOM     10  H13 UNL     1      -0.850 -31.628  18.739  1.00  0.00     0.208 HD
BRANCH   4  11
HETATM   11  N3  UNL     1       2.271 -29.031  15.795  1.00  0.00    -0.288 N
ATOM     12  H3  UNL     1       2.919 -29.582  15.232  1.00  0.00     0.188 HD
BRANCH  11  13
HETATM   13  N4  UNL     1       2.380 -27.669  15.662  1.00  0.00    -0.343 N
ATOM     14  H42 UNL     1       1.847 -27.134  16.348  1.00  0.00     0.176 HD
ATOM     15  H41 UNL     1       2.914 -27.134  14.978  1.00  0.00     0.176 HD
ENDBRANCH  11  13
ENDBRANCH   4  11
BRANCH   6  16
HETATM   16  N1  UNL     1       1.494 -31.469  19.611  1.00  0.00    -0.233 N
ATOM     17  H12 UNL     1       1.468 -30.924  20.472  1.00  0.00     0.174 HD
ATOM     18  H11 UNL     1       1.860 -32.421  19.643  1.00  0.00     0.174 HD
ENDBRANCH   6  16
BRANCH   9  19
HETATM   19  N12 UNL     1      -2.012 -30.756  16.661  1.00  0.00    -0.321 N
ATOM     20 2H12 UNL     1      -2.293 -31.556  16.094  1.00  0.00     0.179 HD
ATOM     21 1H12 UNL     1      -2.716 -30.087  16.975  1.00  0.00     0.179 HD
ENDBRANCH   9  19
ENDBRANCH   2   3
ENDBRANCH   1   2
BRANCH   1  22
HETATM   22  C5  UNL     1      -1.863 -27.862  13.866  1.00  0.00     0.161 C
BRANCH  22  23
HETATM   23  N5  UNL     1      -3.207 -28.263  14.169  1.00  0.00    -0.295 N
HETATM   24  C6  UNL     1      -3.736 -29.493  14.098  1.00  0.00     0.225 A
HETATM   25  N6  UNL     1      -5.023 -29.434  14.466  1.00  0.00    -0.316 N
HETATM   26  C7  UNL     1      -5.336 -28.166  14.779  1.00  0.00     0.126 A
ATOM     27  H6  UNL     1      -5.663 -30.227  14.503  1.00  0.00     0.169 HD
HETATM   28  C8  UNL     1      -6.500 -27.549  15.213  1.00  0.00     0.151 A
HETATM   29  C10 UNL     1      -4.192 -27.417  14.593  1.00  0.00     0.142 A
HETATM   30  N9  UNL     1      -6.433 -26.230  15.429  1.00  0.00    -0.336 N
HETATM   31  C9  UNL     1      -5.319 -25.494  15.250  1.00  0.00     0.183 A
ATOM     32  H9  UNL     1      -7.276 -25.753  15.749  1.00  0.00     0.168 HD
HETATM   33  N10 UNL     1      -4.188 -26.082  14.830  1.00  0.00    -0.336 N
ATOM     34  H10 UNL     1      -3.339 -25.533  14.692  1.00  0.00     0.168 HD
BRANCH  24  35
HETATM   35  O2  UNL     1      -3.006 -30.614  13.695  1.00  0.00    -0.332 OA
ATOM     36  H2  UNL     1      -2.788 -31.329  14.282  1.00  0.00     0.221 HD
ENDBRANCH  24  35
BRANCH  28  37
HETATM   37  N7  UNL     1      -7.557 -28.255  15.382  1.00  0.00    -0.290 N
ATOM     38  H7  UNL     1      -8.118 -28.520  14.571  1.00  0.00     0.188 HD
BRANCH  37  39
HETATM   39  N8  UNL     1      -7.954 -28.667  16.657  1.00  0.00    -0.344 N
ATOM     40  H82 UNL     1      -8.152 -27.954  17.359  1.00  0.00     0.176 HD
ATOM     41  H81 UNL     1      -8.046 -29.657  16.886  1.00  0.00     0.176 HD
ENDBRANCH  37  39
ENDBRANCH  28  37
ENDBRANCH  22  23
ENDBRANCH   1  22
TORSDOF 11
ENDMDL