MODEL 3
REMARK VINA RESULT: -5.350181184      2.599      6.405
REMARK  9 active torsions:
REMARK  status: ('A' for Active; 'I' for Inactive)
REMARK    1  A    between atoms: N1_1  and  N2_4
REMARK    2  A    between atoms: C2_9  and  N4_10
REMARK    3  A    between atoms: C3_11  and  C4_12
REMARK    4  A    between atoms: C4_12  and  N5_13
REMARK       I    between atoms: N5_13  and  C5_15
REMARK    5  A    between atoms: C5_15  and  O2_17
REMARK    6  A    between atoms: O2_17  and  N6_18
REMARK    7  A    between atoms: C6_21  and  O3_22
REMARK    8  A    between atoms: C9_30  and  O6_31
REMARK    9  A    between atoms: C10_33  and  O7_34
ROOT
HETATM    1  N4  UNL     1      -2.815 -29.693  14.385  1.00  0.00    -0.249 N
HETATM    2  C3  UNL     1      -2.013 -29.395  15.366  1.00  0.00     0.079 A
HETATM    3  C6  UNL     1      -1.744 -30.408  16.345  1.00  0.00     0.159 A
HETATM    4  C7  UNL     1      -2.262 -31.648  16.304  1.00  0.00     0.284 A
HETATM    5  O4  UNL     1      -2.046 -32.564  17.135  1.00  0.00    -0.265 OA
HETATM    6  N7  UNL     1      -3.085 -31.932  15.275  1.00  0.00    -0.273 N
ATOM      7  H7  UNL     1      -3.512 -32.854  15.185  1.00  0.00     0.173 HD
HETATM    8  C8  UNL     1      -3.326 -30.981  14.379  1.00  0.00     0.335 A
HETATM    9  O5  UNL     1      -4.110 -31.327  13.430  1.00  0.00    -0.246 OA
ENDROOT
BRANCH   1  10
HETATM   10  C2  UNL     1      -3.376 -28.752  13.503  1.00  0.00     0.126 C
HETATM   11  N3  UNL     1      -4.681 -28.234  13.568  1.00  0.00    -0.330 N
HETATM   12  C1  UNL     1      -4.671 -27.160  12.602  1.00  0.00     0.129 C
ATOM     13  H3  UNL     1      -5.453 -28.542  14.159  1.00  0.00     0.168 HD
HETATM   14  N2  UNL     1      -5.383 -26.094  12.605  1.00  0.00    -0.293 N
HETATM   15  C10 UNL     1      -3.658 -27.469  11.560  1.00  0.00     0.223 C
ATOM     16  H2  UNL     1      -5.243 -25.440  11.835  1.00  0.00     0.187 HD
HETATM   17  C9  UNL     1      -2.812 -28.613  12.124  1.00  0.00     0.222 C
BRANCH  14  18
HETATM   18  N1  UNL     1      -6.334 -25.748  13.565  1.00  0.00    -0.344 N
ATOM     19  H12 UNL     1      -5.967 -25.366  14.438  1.00  0.00     0.176 HD
ATOM     20  H11 UNL     1      -7.345 -25.844  13.469  1.00  0.00     0.176 HD
ENDBRANCH  14  18
BRANCH  15  21
HETATM   21  O7  UNL     1      -4.327 -27.866  10.408  1.00  0.00    -0.385 OA
ATOM     22  H7  UNL     1      -3.839 -27.549   9.657  1.00  0.00     0.210 HD
ENDBRANCH  15  21
BRANCH  17  23
HETATM   23  O6  UNL     1      -2.791 -29.604  11.238  1.00  0.00    -0.385 OA
ATOM     24  H6  UNL     1      -2.050 -30.186  11.120  1.00  0.00     0.210 HD
ENDBRANCH  17  23
ENDBRANCH   1  10
BRANCH   2  25
HETATM   25  C4  UNL     1      -1.366 -28.160  15.751  1.00  0.00     0.185 C
BRANCH  25  26
HETATM   26  N5  UNL     1       0.070 -28.341  15.758  1.00  0.00    -0.330 N
HETATM   27  C5  UNL     1       1.173 -27.623  15.382  1.00  0.00     0.382 C
HETATM   28  O1  UNL     1       1.179 -26.479  14.899  1.00  0.00    -0.236 OA
ATOM     29  H5  UNL     1       0.330 -29.248  16.147  1.00  0.00     0.165 HD
BRANCH  27  30
HETATM   30  O2  UNL     1       2.446 -28.206  15.536  1.00  0.00    -0.188 OA
BRANCH  30  31
HETATM   31  N6  UNL     1       2.585 -29.499  15.845  1.00  0.00    -0.301 N
ATOM     32  H62 UNL     1       2.742 -29.750  16.821  1.00  0.00     0.184 HD
ATOM     33  H61 UNL     1       2.536 -30.223  15.128  1.00  0.00     0.184 HD
ENDBRANCH  30  31
ENDBRANCH  27  30
ENDBRANCH  25  26
ENDBRANCH   2  25
BRANCH   3  34
HETATM   34  O3  UNL     1      -0.892 -30.126  17.429  1.00  0.00    -0.354 OA
ATOM     35  H3  UNL     1      -1.144 -30.386  18.307  1.00  0.00     0.218 HD
ENDBRANCH   3  34
TORSDOF 9
ENDMDL