MODEL 1
REMARK VINA RESULT: -6.035448430      0.000      0.000
REMARK  9 active torsions:
REMARK  status: ('A' for Active; 'I' for Inactive)
REMARK    1  A    between atoms: C2_2  and  C3_3
REMARK    2  A    between atoms: C2_2  and  C9_23
REMARK    3  A    between atoms: C5_6  and  N1_7
REMARK    4  A    between atoms: C5_6  and  N2_11
REMARK    5  A    between atoms: C9_23  and  O6_24
REMARK    6  A    between atoms: C9_23  and  C10_26
REMARK    7  A    between atoms: C10_26  and  N5_27
REMARK    8  A    between atoms: C10_26  and  O7_31
REMARK    9  A    between atoms: C10_26  and  O8_33
ROOT
HETATM    1  C3  UNL     1      -0.999 -27.617  14.239  1.00  0.00     0.159 C
HETATM    2  C4  UNL     1      -2.177 -27.187  15.037  1.00  0.00     0.208 C
HETATM    3  O1  UNL     1      -3.192 -28.149  14.795  1.00  0.00    -0.313 OA
HETATM    4  C5  UNL     1      -2.665 -28.989  13.826  1.00  0.00     0.439 C
HETATM    5  O5  UNL     1      -1.299 -28.993  14.068  1.00  0.00    -0.307 OA
ENDROOT
BRANCH   4   6
HETATM    6  N1  UNL     1      -2.912 -28.472  12.481  1.00  0.00     0.000 N
ATOM      7  H13 UNL     1      -2.824 -29.205  11.776  1.00  0.00     0.283 HD
ATOM      8  H12 UNL     1      -3.896 -28.241  12.343  1.00  0.00     0.283 HD
ATOM      9  H11 UNL     1      -2.308 -27.678  12.271  1.00  0.00     0.283 HD
ENDBRANCH   4   6
BRANCH   4  10
HETATM   10  N2  UNL     1      -3.280 -30.267  13.971  1.00  0.00    -0.167 N
HETATM   11  C6  UNL     1      -4.473 -30.477  13.373  1.00  0.00     0.340 A
HETATM   12  O2  UNL     1      -5.025 -29.567  12.706  1.00  0.00    -0.246 OA
HETATM   13  N3  UNL     1      -5.119 -31.655  13.461  1.00  0.00    -0.260 N
HETATM   14  C7  UNL     1      -4.585 -32.666  14.157  1.00  0.00     0.332 A
ATOM     15  H3  UNL     1      -6.018 -31.778  12.996  1.00  0.00     0.175 HD
HETATM   16  O3  UNL     1      -5.155 -33.789  14.268  1.00  0.00    -0.246 OA
HETATM   17  N4  UNL     1      -3.398 -32.487  14.764  1.00  0.00    -0.260 N
HETATM   18  C8  UNL     1      -2.769 -31.301  14.662  1.00  0.00     0.340 A
ATOM     19  H4  UNL     1      -2.976 -33.246  15.299  1.00  0.00     0.175 HD
HETATM   20  O4  UNL     1      -1.669 -31.122  15.220  1.00  0.00    -0.246 OA
ENDBRANCH   4  10
BRANCH   1  21
HETATM   21  C2  UNL     1       0.336 -27.523  14.876  1.00  0.00     0.049 C
HETATM   22  C1  UNL     1       0.333 -26.116  15.552  1.00  0.00     0.015 C
BRANCH  21  23
HETATM   23  C9  UNL     1       0.602 -28.416  16.043  1.00  0.00     0.217 C
BRANCH  23  24
HETATM   24  O6  UNL     1      -0.558 -28.925  16.583  1.00  0.00    -0.388 OA
ATOM     25  H6  UNL     1      -0.640 -29.860  16.438  1.00  0.00     0.210 HD
ENDBRANCH  23  24
BRANCH  23  26
HETATM   26  C10 UNL     1       1.626 -29.467  15.920  1.00  0.00     0.358 C
BRANCH  26  27
HETATM   27  N5  UNL     1       1.091 -30.814  16.168  1.00  0.00    -0.019 N
ATOM     28  H53 UNL     1       0.468 -31.104  15.415  1.00  0.00     0.281 HD
ATOM     29  H52 UNL     1       1.818 -31.521  16.062  1.00  0.00     0.281 HD
ATOM     30  H51 UNL     1       0.632 -30.895  17.075  1.00  0.00     0.281 HD
ENDBRANCH  26  27
BRANCH  26  31
HETATM   31  O7  UNL     1       2.831 -29.239  16.536  1.00  0.00    -0.342 OA
ATOM     32  H7  UNL     1       3.394 -29.991  16.675  1.00  0.00     0.215 HD
ENDBRANCH  26  31
BRANCH  26  33
HETATM   33  O8  UNL     1       1.949 -29.523  14.532  1.00  0.00    -0.342 OA
ATOM     34  H8  UNL     1       1.736 -30.407  14.257  1.00  0.00     0.215 HD
ENDBRANCH  26  33
ENDBRANCH  23  26
ENDBRANCH  21  23
ENDBRANCH   1  21
TORSDOF 9
ENDMDL