MODEL 2
REMARK VINA RESULT: -6.184274711      7.141     11.982
REMARK  9 active torsions:
REMARK  status: ('A' for Active; 'I' for Inactive)
REMARK    1  A    between atoms: C2_5  and  O1_6
REMARK    2  A    between atoms: C2_5  and  C3_8
REMARK    3  A    between atoms: C3_8  and  N3_9
REMARK    4  A    between atoms: N3_9  and  N4_11
REMARK       I    between atoms: N4_11  and  C4_13
REMARK    5  A    between atoms: C4_13  and  C5_15
REMARK    6  A    between atoms: N5_16  and  C6_18
REMARK    7  A    between atoms: C8_20  and  O3_21
REMARK    8  A    between atoms: C9_23  and  O4_24
REMARK    9  A    between atoms: C11_28  and  N6_29
ROOT
HETATM    1  N3  UNL     1       1.771 -32.349  22.245  1.00  0.00    -0.329 N
ATOM      2  H3  UNL     1       0.836 -32.503  22.621  1.00  0.00     0.180 HD
ENDROOT
BRANCH   1   3
HETATM    3  C3  UNL     1       2.929 -32.537  23.029  1.00  0.00     0.202 C
BRANCH   3   4
HETATM    4  C2  UNL     1       3.489 -31.356  23.727  1.00  0.00     0.181 C
HETATM    5  N2  UNL     1       4.817 -30.995  23.236  1.00  0.00    -0.330 N
HETATM    6  C1  UNL     1       5.429 -30.009  23.798  1.00  0.00     0.186 C
ATOM      7  H2  UNL     1       5.249 -31.509  22.468  1.00  0.00     0.165 HD
HETATM    8  N1  UNL     1       6.724 -29.577  23.396  1.00  0.00    -0.064 NA
HETATM    9  N7  UNL     1       4.756 -29.345  24.860  1.00  0.00    -0.362 N
HETATM   10  C12 UNL     1       3.994 -30.133  25.804  1.00  0.00     0.160 C
ATOM     11  H7  UNL     1       4.809 -28.331  24.955  1.00  0.00     0.162 HD
HETATM   12  C11 UNL     1       3.454 -31.407  25.226  1.00  0.00     0.257 C
BRANCH  12  13
HETATM   13  N6  UNL     1       4.162 -32.506  25.809  1.00  0.00    -0.069 N
ATOM     14  H63 UNL     1       3.985 -32.545  26.813  1.00  0.00     0.275 HD
ATOM     15  H62 UNL     1       3.742 -33.390  25.520  1.00  0.00     0.275 HD
ATOM     16  H61 UNL     1       5.165 -32.517  25.628  1.00  0.00     0.275 HD
ENDBRANCH  12  13
BRANCH   4  17
HETATM   17  O1  UNL     1       2.675 -30.251  23.371  1.00  0.00    -0.367 OA
ATOM     18  H1  UNL     1       2.986 -30.002  22.510  1.00  0.00     0.212 HD
ENDBRANCH   4  17
ENDBRANCH   3   4
ENDBRANCH   1   3
BRANCH   1  19
HETATM   19  N4  UNL     1       1.973 -31.947  20.946  1.00  0.00    -0.270 N
HETATM   20  C4  UNL     1       1.031 -31.409  20.091  1.00  0.00     0.274 C
HETATM   21  O2  UNL     1      -0.153 -31.247  20.469  1.00  0.00    -0.265 OA
ATOM     22  H4  UNL     1       2.916 -32.059  20.575  1.00  0.00     0.190 HD
BRANCH  20  23
HETATM   23  C5  UNL     1       1.391 -31.021  18.736  1.00  0.00     0.161 C
HETATM   24  N5  UNL     1       0.510 -30.727  17.845  1.00  0.00    -0.368 N
ATOM     25  H5  UNL     1      -0.485 -30.758  18.066  1.00  0.00     0.161 HD
BRANCH  24  26
HETATM   26  C6  UNL     1       0.965 -30.355  16.526  1.00  0.00     0.222 C
HETATM   27  C7  UNL     1       1.806 -29.114  16.575  1.00  0.00     0.088 C
HETATM   28  C8  UNL     1       1.615 -28.310  15.306  1.00  0.00     0.153 C
HETATM   29  C9  UNL     1       0.168 -27.872  15.158  1.00  0.00     0.170 C
HETATM   30  C10 UNL     1      -0.676 -28.854  15.960  1.00  0.00     0.204 C
HETATM   31  O5  UNL     1      -0.178 -30.141  15.758  1.00  0.00    -0.364 OA
BRANCH  28  32
HETATM   32  O3  UNL     1       1.925 -29.107  14.223  1.00  0.00    -0.393 OA
ATOM     33  H3  UNL     1       2.227 -28.554  13.512  1.00  0.00     0.210 HD
ENDBRANCH  28  32
BRANCH  29  34
HETATM   34  O4  UNL     1      -0.268 -27.876  13.854  1.00  0.00    -0.391 OA
ATOM     35  H4  UNL     1      -0.679 -27.059  13.595  1.00  0.00     0.210 HD
ENDBRANCH  29  34
ENDBRANCH  24  26
ENDBRANCH  20  23
ENDBRANCH   1  19
TORSDOF 9
ENDMDL