MODEL 3
REMARK VINA RESULT: -5.318647047      1.826      5.545
REMARK  8 active torsions:
REMARK  status: ('A' for Active; 'I' for Inactive)
REMARK    1  A    between atoms: N4_15  and  C7_16
REMARK    2  A    between atoms: C7_16  and  O4_17
REMARK    3  A    between atoms: C8_19  and  O5_20
REMARK    4  A    between atoms: C9_22  and  C10_23
REMARK    5  A    between atoms: C10_23  and  O6_24
REMARK    6  A    between atoms: C11_26  and  O7_27
REMARK    7  A    between atoms: C11_26  and  O8_29
REMARK    8  A    between atoms: O8_29  and  N5_30
ROOT
HETATM    1  C7  UNL     1      -0.121 -32.568  16.902  1.00  0.00     0.230 C
HETATM    2  C8  UNL     1      -0.893 -33.805  17.137  1.00  0.00     0.191 C
HETATM    3  C9  UNL     1       0.222 -34.148  18.158  1.00  0.00     0.113 C
HETATM    4  C11 UNL     1       0.259 -32.624  18.376  1.00  0.00     0.249 C
ENDROOT
BRANCH   1   5
HETATM    5  N4  UNL     1      -0.677 -31.395  16.379  1.00  0.00    -0.241 N
HETATM    6  C3  UNL     1       0.091 -30.265  16.299  1.00  0.00     0.151 A
HETATM    7  N2  UNL     1       1.361 -29.977  16.628  1.00  0.00    -0.292 N
HETATM    8  C4  UNL     1      -0.438 -29.083  15.781  1.00  0.00     0.152 A
HETATM    9  C2  UNL     1       1.660 -28.690  16.349  1.00  0.00     0.328 A
ATOM     10  H2  UNL     1       2.015 -30.645  17.036  1.00  0.00     0.172 HD
HETATM   11  N1  UNL     1       0.548 -28.146  15.828  1.00  0.00    -0.296 N
HETATM   12  O1  UNL     1       2.760 -28.094  16.533  1.00  0.00    -0.246 OA
HETATM   13  C1  UNL     1       0.368 -26.774  15.368  1.00  0.00     0.161 C
HETATM   14  C5  UNL     1      -1.736 -29.001  15.333  1.00  0.00     0.280 A
HETATM   15  O2  UNL     1      -2.222 -27.940  14.864  1.00  0.00    -0.265 OA
HETATM   16  N3  UNL     1      -2.462 -30.131  15.427  1.00  0.00    -0.273 N
HETATM   17  C6  UNL     1      -1.943 -31.270  15.929  1.00  0.00     0.333 A
ATOM     18  H3  UNL     1      -3.432 -30.126  15.110  1.00  0.00     0.173 HD
HETATM   19  O3  UNL     1      -2.720 -32.245  15.960  1.00  0.00    -0.246 OA
ENDBRANCH   1   5
BRANCH   1  20
HETATM   20  O4  UNL     1       1.061 -33.043  16.264  1.00  0.00    -0.364 OA
ATOM     21  H4  UNL     1       1.751 -33.355  16.838  1.00  0.00     0.213 HD
ENDBRANCH   1  20
BRANCH   2  22
HETATM   22  O5  UNL     1      -0.838 -34.766  16.113  1.00  0.00    -0.390 OA
ATOM     23  H5  UNL     1      -0.186 -34.617  15.439  1.00  0.00     0.210 HD
ENDBRANCH   2  22
BRANCH   4  24
HETATM   24  O7  UNL     1       1.541 -32.204  18.691  1.00  0.00    -0.359 OA
ATOM     25  H7  UNL     1       1.830 -32.378  19.578  1.00  0.00     0.213 HD
ENDBRANCH   4  24
BRANCH   4  26
HETATM   26  O8  UNL     1      -0.646 -32.129  19.266  1.00  0.00    -0.241 OA
BRANCH  26  27
HETATM   27  N5  UNL     1      -0.024 -31.383  20.186  1.00  0.00    -0.308 N
ATOM     28  H52 UNL     1       0.718 -30.715  19.976  1.00  0.00     0.184 HD
ATOM     29  H51 UNL     1      -0.401 -31.583  21.112  1.00  0.00     0.184 HD
ENDBRANCH  26  27
ENDBRANCH   4  26
BRANCH   3  30
HETATM   30  C10 UNL     1      -0.260 -34.955  19.316  1.00  0.00     0.177 C
BRANCH  30  31
HETATM   31  O6  UNL     1       0.485 -34.626  20.434  1.00  0.00    -0.400 OA
ATOM     32  H6  UNL     1       1.149 -33.993  20.187  1.00  0.00     0.209 HD
ENDBRANCH  30  31
ENDBRANCH   3  30
TORSDOF 8
ENDMDL