MODEL 5
REMARK VINA RESULT: -6.145866959      2.106      2.416
REMARK  10 active torsions:
REMARK  status: ('A' for Active; 'I' for Inactive)
REMARK    1  A    between atoms: N1_1  and  C1_4
REMARK    2  A    between atoms: C2_7  and  O1_8
REMARK    3  A    between atoms: O1_8  and  C3_9
REMARK    4  A    between atoms: C3_9  and  O2_10
REMARK    5  A    between atoms: C3_9  and  C4_12
REMARK    6  A    between atoms: C4_12  and  N3_13
REMARK    7  A    between atoms: C4_12  and  C5_17
REMARK    8  A    between atoms: C7_21  and  O5_22
REMARK    9  A    between atoms: C8_24  and  O6_25
REMARK   10  A    between atoms: C9_29  and  N5_30
REMARK       I    between atoms: N5_30  and  C10_32
ROOT
HETATM    1  O1  UNL     1      -1.519 -28.034  13.554  1.00  0.00    -0.287 OA
ENDROOT
BRANCH   1   2
HETATM    2  C2  UNL     1      -2.710 -28.062  12.876  1.00  0.00     0.254 A
HETATM    3  N2  UNL     1      -2.736 -28.706  11.667  1.00  0.00    -0.154 N
HETATM    4  C1  UNL     1      -3.841 -28.795  10.918  1.00  0.00     0.693 A
ATOM      5  H2  UNL     1      -1.878 -29.135  11.324  1.00  0.00     0.188 HD
HETATM    6  N7  UNL     1      -4.973 -28.213  11.400  1.00  0.00    -0.022 N
HETATM    7  C9  UNL     1      -4.973 -27.576  12.581  1.00  0.00     0.703 A
ATOM      8  H7  UNL     1      -5.834 -28.261  10.856  1.00  0.00     0.203 HD
HETATM    9  N4  UNL     1      -3.836 -27.508  13.309  1.00  0.00    -0.153 N
ATOM     10  H4  UNL     1      -3.843 -27.022  14.206  1.00  0.00     0.188 HD
BRANCH   4  11
HETATM   11  N1  UNL     1      -3.861 -29.408   9.772  1.00  0.00    -0.234 N
ATOM     12  H12 UNL     1      -3.682 -30.412   9.726  1.00  0.00     0.174 HD
ATOM     13  H11 UNL     1      -4.050 -28.925   8.894  1.00  0.00     0.174 HD
ENDBRANCH   4  11
BRANCH   7  14
HETATM   14  N5  UNL     1      -6.059 -27.050  13.006  1.00  0.00    -0.143 N
HETATM   15  C10 UNL     1      -6.146 -26.435  14.279  1.00  0.00     0.346 C
HETATM   16  N6  UNL     1      -5.970 -25.058  14.422  1.00  0.00    -0.039 NA
HETATM   17  O7  UNL     1      -6.383 -27.146  15.278  1.00  0.00    -0.250 OA
ATOM     18  H5  UNL     1      -6.886 -27.074  12.410  1.00  0.00     0.188 HD
ENDBRANCH   7  14
ENDBRANCH   1   2
BRANCH   1  19
HETATM   19  C3  UNL     1      -1.238 -27.263  14.663  1.00  0.00     0.299 C
BRANCH  19  20
HETATM   20  O2  UNL     1      -1.764 -27.813  15.848  1.00  0.00    -0.368 OA
ATOM     21  H2  UNL     1      -1.218 -28.508  16.197  1.00  0.00     0.212 HD
ENDBRANCH  19  20
BRANCH  19  22
HETATM   22  C4  UNL     1       0.251 -27.062  14.783  1.00  0.00     0.270 C
BRANCH  22  23
HETATM   23  N3  UNL     1       0.634 -26.186  15.866  1.00  0.00    -0.068 N
ATOM     24  H33 UNL     1       0.683 -26.701  16.746  1.00  0.00     0.275 HD
ATOM     25  H32 UNL     1       1.612 -25.908  15.776  1.00  0.00     0.275 HD
ATOM     26  H31 UNL     1       0.035 -25.366  15.962  1.00  0.00     0.275 HD
ENDBRANCH  22  23
BRANCH  22  27
HETATM   27  C5  UNL     1       0.886 -28.408  14.987  1.00  0.00     0.199 C
HETATM   28  O3  UNL     1      -0.013 -29.399  15.371  1.00  0.00    -0.309 OA
HETATM   29  C6  UNL     1       0.558 -30.296  16.253  1.00  0.00     0.291 C
HETATM   30  O4  UNL     1      -0.036 -31.290  16.720  1.00  0.00    -0.262 OA
HETATM   31  C7  UNL     1       1.945 -29.843  16.506  1.00  0.00     0.248 C
HETATM   32  C8  UNL     1       1.870 -28.382  16.162  1.00  0.00     0.188 C
BRANCH  31  33
HETATM   33  O5  UNL     1       2.321 -30.048  17.834  1.00  0.00    -0.383 OA
ATOM     34  H5  UNL     1       3.157 -30.496  17.898  1.00  0.00     0.210 HD
ENDBRANCH  31  33
BRANCH  32  35
HETATM   35  O6  UNL     1       3.052 -27.837  15.723  1.00  0.00    -0.390 OA
ATOM     36  H6  UNL     1       2.851 -27.102  15.155  1.00  0.00     0.210 HD
ENDBRANCH  32  35
ENDBRANCH  22  27
ENDBRANCH  19  22
ENDBRANCH   1  19
TORSDOF 10
ENDMDL