MODEL 2
REMARK VINA RESULT: -5.703047297      2.265      3.339
REMARK  5 active torsions:
REMARK  status: ('A' for Active; 'I' for Inactive)
REMARK    1  A    between atoms: S1_2  and  C2_3
REMARK    2  A    between atoms: C2_3  and  C3_4
REMARK    3  A    between atoms: C4_5  and  C5_6
REMARK    4  A    between atoms: C5_6  and  O1_7
REMARK    5  A    between atoms: C8_11  and  O2_12
ROOT
HETATM    1  C5  UNL     1       2.060 -11.018  -7.820  1.00  0.00     0.175 C
HETATM    2  C6  UNL     1       1.891 -12.174  -6.911  1.00  0.00     0.003 A
HETATM    3  C7  UNL     1       1.542 -13.434  -7.408  1.00  0.00     0.049 A
HETATM    4  C8  UNL     1       1.399 -14.464  -6.513  1.00  0.00     0.084 A
HETATM    5  C9  UNL     1       1.598 -14.250  -5.164  1.00  0.00     0.050 A
HETATM    6 BR1  UNL     1       1.387 -15.710  -3.977  1.00  0.00    -0.048 Br
HETATM    7  C10 UNL     1       1.944 -13.012  -4.661  1.00  0.00    -0.032 A
HETATM    8  C11 UNL     1       2.163 -12.753  -3.223  1.00  0.00     0.050 C
HETATM    9  C12 UNL     1       2.088 -11.974  -5.564  1.00  0.00    -0.012 A
HETATM   10  C13 UNL     1       2.458 -10.641  -5.066  1.00  0.00     0.156 C
HETATM   11  C14 UNL     1       3.993 -10.550  -5.082  1.00  0.00     0.039 C
HETATM   12  C15 UNL     1       4.210 -10.516  -6.602  1.00  0.00     0.039 C
HETATM   13  C16 UNL     1       2.898  -9.986  -7.127  1.00  0.00     0.174 C
HETATM   14  O3  UNL     1       2.167  -9.615  -5.974  1.00  0.00    -0.371 OA
ENDROOT
BRANCH   1  15
HETATM   15  C4  UNL     1       2.715 -11.396  -9.072  1.00  0.00    -0.060 C
HETATM   16  C3  UNL     1       3.261 -11.690 -10.110  1.00  0.00    -0.093 C
BRANCH  16  17
HETATM   17  C2  UNL     1       3.950 -12.035 -11.372  1.00  0.00     0.167 C
BRANCH  17  18
HETATM   18  S1  UNL     1       2.711 -11.977 -12.698  1.00  0.00    -0.161 SA
HETATM   19  C1  UNL     1       3.590 -12.216 -14.267  1.00  0.00     0.090 C
ENDBRANCH  17  18
ENDBRANCH  16  17
ENDBRANCH   1  15
BRANCH   1  20
HETATM   20  O1  UNL     1       0.788 -10.491  -8.045  1.00  0.00    -0.371 OA
ATOM     21  H1  UNL     1       0.428 -10.791  -8.871  1.00  0.00     0.212 HD
ENDBRANCH   1  20
BRANCH   4  22
HETATM   22  O2  UNL     1       1.050 -15.726  -7.003  1.00  0.00    -0.359 OA
ATOM     23  H2  UNL     1       0.177 -16.055  -6.821  1.00  0.00     0.217 HD
ENDBRANCH   4  22
TORSDOF 5
ENDMDL