MODEL 2
REMARK VINA RESULT: -7.416259209      1.972      2.372
REMARK  4 active torsions:
REMARK  status: ('A' for Active; 'I' for Inactive)
REMARK    1  A    between atoms: C2_2  and  C3_4
REMARK    2  A    between atoms: C11_12  and  O2_13
REMARK    3  A    between atoms: O2_13  and  C12_14
REMARK    4  A    between atoms: C19_24  and  O4_25
ROOT
HETATM    1  C3  UNL     1       1.722 -12.395  -7.184  1.00  0.00     0.033 C
HETATM    2  C4  UNL     1       0.746 -12.771  -6.059  1.00  0.00     0.018 C
HETATM    3  C5  UNL     1       1.469 -13.140  -4.804  1.00  0.00     0.007 C
HETATM    4  C6  UNL     1       2.823 -12.561  -4.616  1.00  0.00     0.002 C
HETATM    5  C7  UNL     1       2.985 -11.220  -5.325  1.00  0.00     0.002 C
HETATM    6  C8  UNL     1       4.429 -10.834  -5.176  1.00  0.00     0.006 C
HETATM    7  C9  UNL     1       4.718 -10.596  -3.690  1.00  0.00     0.008 C
HETATM    8  C10 UNL     1       4.164 -11.562  -2.748  1.00  0.00     0.027 A
HETATM    9  C11 UNL     1       2.684 -11.378  -2.261  1.00  0.00     0.147 A
HETATM   10  C13 UNL     1       3.099 -12.455  -3.139  1.00  0.00    -0.007 A
HETATM   11  C14 UNL     1       3.130 -13.846  -2.481  1.00  0.00     0.019 C
HETATM   12  C15 UNL     1       2.366 -11.147  -6.657  1.00  0.00     0.005 C
HETATM   13  C16 UNL     1       1.194 -10.147  -6.486  1.00  0.00     0.020 C
HETATM   14  C17 UNL     1       3.224 -10.445  -7.702  1.00  0.00     0.182 C
HETATM   15  F1  UNL     1       4.497 -10.904  -7.807  1.00  0.00    -0.248 F
HETATM   16  C18 UNL     1       2.600 -10.319  -9.024  1.00  0.00     0.069 C
HETATM   17  C19 UNL     1       1.325 -10.999  -9.288  1.00  0.00     0.122 C
HETATM   18  C20 UNL     1       0.883 -12.095  -8.414  1.00  0.00     0.050 C
ENDROOT
BRANCH   9  19
HETATM   19  O2  UNL     1       2.484 -11.629  -0.878  1.00  0.00    -0.300 OA
BRANCH  19  20
HETATM   20  C12 UNL     1       1.284 -11.393  -0.250  1.00  0.00     0.373 C
HETATM   21  N1  UNL     1       0.708 -10.108  -0.081  1.00  0.00    -0.032 NA
HETATM   22  O3  UNL     1       0.693 -12.436   0.191  1.00  0.00    -0.242 OA
ENDBRANCH  19  20
ENDBRANCH   9  19
BRANCH   1  23
HETATM   23  C2  UNL     1       2.479 -13.583  -7.475  1.00  0.00     0.132 C
HETATM   24  C1  UNL     1       3.914 -13.778  -7.806  1.00  0.00     0.091 C
HETATM   25  O1  UNL     1       1.885 -14.659  -7.467  1.00  0.00    -0.298 OA
ENDBRANCH   1  23
BRANCH  17  26
HETATM   26  O4  UNL     1       1.303 -11.419 -10.649  1.00  0.00    -0.395 OA
ATOM     27  H4  UNL     1       1.354 -10.652 -11.207  1.00  0.00     0.210 HD
ENDBRANCH  17  26
TORSDOF 4
ENDMDL