MODEL 1
REMARK VINA RESULT: -7.062712606      0.000      0.000
REMARK  3 active torsions:
REMARK  status: ('A' for Active; 'I' for Inactive)
REMARK    1  A    between atoms: C15_17  and  C16_18
REMARK    2  A    between atoms: C16_18  and  O2_19
REMARK    3  A    between atoms: C20_24  and  O3_25
ROOT
HETATM    1  C1  UNL     1       2.788  -7.639  -0.993  1.00  0.00     0.020 C
HETATM    2  C2  UNL     1       2.612  -9.034  -1.620  1.00  0.00     0.005 C
HETATM    3  C3  UNL     1       1.273  -9.546  -1.450  1.00  0.00     0.179 C
HETATM    4  O1  UNL     1       1.799 -10.633  -0.717  1.00  0.00    -0.384 OA
HETATM    5  C4  UNL     1       3.030 -10.056  -0.587  1.00  0.00     0.133 C
HETATM    6  C5  UNL     1       4.226 -10.764  -1.101  1.00  0.00     0.053 C
HETATM    7  C6  UNL     1       3.983 -11.429  -2.469  1.00  0.00     0.107 C
HETATM    8  C7  UNL     1       2.995 -12.459  -2.223  1.00  0.00     0.065 C
HETATM    9  N1  UNL     1       2.225 -13.295  -2.026  1.00  0.00    -0.197 NA
HETATM   10  C8  UNL     1       3.666 -10.422  -3.491  1.00  0.00     0.016 C
HETATM   11  C9  UNL     1       4.991 -10.171  -4.277  1.00  0.00     0.015 C
HETATM   12  C10 UNL     1       5.178 -11.333  -5.156  1.00  0.00     0.009 C
HETATM   13  C11 UNL     1       3.747 -11.823  -5.347  1.00  0.00     0.034 C
HETATM   14  C12 UNL     1       3.513 -12.169  -6.744  1.00  0.00     0.002 C
HETATM   15  C13 UNL     1       2.854 -13.550  -6.880  1.00  0.00     0.006 C
HETATM   16  C14 UNL     1       1.577 -13.306  -7.611  1.00  0.00     0.008 C
HETATM   17  C15 UNL     1       1.941 -12.130  -8.497  1.00  0.00     0.018 C
HETATM   18  C17 UNL     1       2.721 -11.224  -7.578  1.00  0.00    -0.032 C
HETATM   19  C18 UNL     1       3.583 -10.340  -8.467  1.00  0.00     0.016 C
HETATM   20  C19 UNL     1       1.803 -10.373  -6.801  1.00  0.00     0.045 C
HETATM   21  C20 UNL     1       2.451  -9.727  -5.571  1.00  0.00     0.160 C
HETATM   22  C21 UNL     1       2.842 -10.852  -4.655  1.00  0.00     0.142 C
HETATM   23  F1  UNL     1       1.679 -11.512  -4.378  1.00  0.00    -0.239 F
HETATM   24  C22 UNL     1       3.408  -9.107  -2.860  1.00  0.00     0.028 C
ENDROOT
BRANCH  21  25
HETATM   25  O3  UNL     1       1.344  -9.007  -5.053  1.00  0.00    -0.392 OA
ATOM     26  H3  UNL     1       0.916  -9.692  -4.553  1.00  0.00     0.210 HD
ENDBRANCH  21  25
BRANCH  17  27
HETATM   27  C16 UNL     1       0.726 -11.494  -9.085  1.00  0.00     0.169 C
BRANCH  27  28
HETATM   28  O2  UNL     1       0.972 -11.211 -10.423  1.00  0.00    -0.400 OA
ATOM     29  H2  UNL     1       0.481 -10.435 -10.666  1.00  0.00     0.209 HD
ENDBRANCH  27  28
ENDBRANCH  17  27
TORSDOF 3
ENDMDL