MODEL 1
REMARK VINA RESULT: -6.794020953      0.000      0.000
REMARK  4 active torsions:
REMARK  status: ('A' for Active; 'I' for Inactive)
REMARK    1  A    between atoms: C3_3  and  O1_4
REMARK    2  A    between atoms: C8_10  and  C9_11
REMARK    3  A    between atoms: C9_11  and  C10_12
REMARK    4  A    between atoms: C21_25  and  N1_26
ROOT
HETATM    1  C1  UNL     1       4.315  -8.740  -2.951  1.00  0.00     0.013 C
HETATM    2  C2  UNL     1       3.421  -9.863  -3.447  1.00  0.00     0.019 C
HETATM    3  C3  UNL     1       2.424 -10.192  -2.368  1.00  0.00     0.125 C
HETATM    4  C4  UNL     1       2.060 -11.609  -2.213  1.00  0.00     0.070 C
HETATM    5  C5  UNL     1       2.935 -12.648  -2.775  1.00  0.00     0.070 C
HETATM    6  C6  UNL     1       2.049 -13.796  -3.215  1.00  0.00     0.039 C
HETATM    7  C7  UNL     1       1.409 -13.187  -4.390  1.00  0.00     0.009 C
HETATM    8  C8  UNL     1       2.374 -12.139  -5.023  1.00  0.00     0.012 C
HETATM    9  C17 UNL     1       3.537 -12.257  -4.149  1.00  0.00     0.034 C
HETATM   10  C18 UNL     1       4.328 -11.053  -3.712  1.00  0.00    -0.028 C
HETATM   11  C19 UNL     1       5.476 -10.657  -4.564  1.00  0.00     0.016 C
HETATM   12  C20 UNL     1       4.974 -11.311  -2.341  1.00  0.00     0.071 C
HETATM   13  C21 UNL     1       5.116 -12.770  -2.030  1.00  0.00     0.319 C
HETATM   14  O3  UNL     1       3.834 -13.251  -1.936  1.00  0.00    -0.347 OA
ENDROOT
BRANCH   8  15
HETATM   15  C9  UNL     1       2.357 -12.537  -6.449  1.00  0.00     0.053 C
HETATM   16  C11 UNL     1       3.699 -12.982  -6.988  1.00  0.00     0.021 C
HETATM   17  C12 UNL     1       4.194 -11.817  -7.835  1.00  0.00     0.009 C
HETATM   18  C13 UNL     1       2.908 -11.280  -8.435  1.00  0.00     0.022 C
HETATM   19  C14 UNL     1       2.916  -9.838  -8.771  1.00  0.00     0.013 C
HETATM   20  C15 UNL     1       1.777 -11.736  -7.536  1.00  0.00     0.117 C
HETATM   21  C16 UNL     1       0.716 -10.754  -7.262  1.00  0.00     0.053 C
HETATM   22  F1  UNL     1       1.039 -12.568  -8.457  1.00  0.00    -0.242 F
BRANCH  15  23
HETATM   23  C10 UNL     1       1.462 -13.779  -6.514  1.00  0.00     0.244 C
HETATM   24  O2  UNL     1       1.790 -14.757  -7.141  1.00  0.00    -0.306 OA
ENDBRANCH  15  23
ENDBRANCH   8  15
BRANCH   3  25
HETATM   25  O1  UNL     1       1.276  -9.414  -2.675  1.00  0.00    -0.395 OA
ATOM     26  H1  UNL     1       1.547  -8.512  -2.551  1.00  0.00     0.210 HD
ENDBRANCH   3  25
BRANCH  13  27
HETATM   27  N1  UNL     1       5.689 -12.854  -0.694  1.00  0.00    -0.053 N
ATOM     28  H13 UNL     1       6.702 -12.732  -0.680  1.00  0.00     0.277 HD
ATOM     29  H12 UNL     1       5.457 -12.054  -0.104  1.00  0.00     0.277 HD
ATOM     30  H11 UNL     1       5.384 -13.746  -0.304  1.00  0.00     0.277 HD
ENDBRANCH  13  27
TORSDOF 4
ENDMDL