MODEL 3
REMARK VINA RESULT: -5.932280348      2.494      5.445
REMARK  3 active torsions:
REMARK  status: ('A' for Active; 'I' for Inactive)
REMARK    1  A    between atoms: C13_16  and  O2_17
REMARK    2  A    between atoms: C15_20  and  C17_22
REMARK    3  A    between atoms: C21_26  and  O3_27
ROOT
HETATM    1  C1  UNL     1       3.618 -15.324  -2.074  1.00  0.00     0.021 C
HETATM    2  C2  UNL     1       3.649 -14.021  -2.035  1.00  0.00    -0.038 C
HETATM    3  C3  UNL     1       4.580 -13.383  -1.121  1.00  0.00     0.013 C
HETATM    4  C4  UNL     1       4.608 -12.135  -0.759  1.00  0.00    -0.059 C
HETATM    5  C5  UNL     1       5.753 -11.949   0.205  1.00  0.00     0.113 C
HETATM    6  C6  UNL     1       5.210 -11.310   1.463  1.00  0.00     0.132 C
HETATM    7  O1  UNL     1       5.613 -11.640   2.556  1.00  0.00    -0.298 OA
HETATM    8  C7  UNL     1       4.173 -10.272   1.342  1.00  0.00     0.099 C
HETATM    9  C8  UNL     1       3.129 -10.700   0.296  1.00  0.00     0.115 C
HETATM   10  C9  UNL     1       2.061  -9.770   0.373  1.00  0.00     0.065 C
HETATM   11  N1  UNL     1       1.184  -9.025   0.467  1.00  0.00    -0.197 NA
HETATM   12  C10 UNL     1       3.797 -10.923  -1.026  1.00  0.00     0.035 C
HETATM   13  C11 UNL     1       4.847  -9.831  -1.318  1.00  0.00     0.025 C
HETATM   14  C12 UNL     1       2.929 -10.949  -2.224  1.00  0.00     0.148 C
HETATM   15  F1  UNL     1       1.609 -11.036  -1.817  1.00  0.00    -0.238 F
HETATM   16  C13 UNL     1       3.011  -9.721  -3.112  1.00  0.00     0.160 C
HETATM   17  C14 UNL     1       2.228 -10.233  -4.337  1.00  0.00     0.049 C
HETATM   18  C15 UNL     1       2.978 -11.479  -4.628  1.00  0.00    -0.010 C
HETATM   19  C16 UNL     1       2.007 -12.407  -5.374  1.00  0.00     0.021 C
HETATM   20  C20 UNL     1       3.269 -12.005  -3.254  1.00  0.00     0.075 C
HETATM   21  C21 UNL     1       2.682 -13.354  -2.976  1.00  0.00     0.158 C
ENDROOT
BRANCH  16  22
HETATM   22  O2  UNL     1       2.332  -8.618  -2.708  1.00  0.00    -0.392 OA
ATOM     23  H2  UNL     1       1.385  -8.639  -2.787  1.00  0.00     0.210 HD
ENDBRANCH  16  22
BRANCH  18  24
HETATM   24  C17 UNL     1       4.140 -11.278  -5.467  1.00  0.00    -0.084 C
HETATM   25  C18 UNL     1       4.105 -11.423  -6.770  1.00  0.00     0.015 C
HETATM   26  C19 UNL     1       5.491 -10.895  -4.906  1.00  0.00     0.043 C
ENDBRANCH  18  24
BRANCH  21  27
HETATM   27  O3  UNL     1       1.402 -13.335  -2.447  1.00  0.00    -0.390 OA
ATOM     28  H3  UNL     1       1.198 -12.487  -2.072  1.00  0.00     0.210 HD
ENDBRANCH  21  27
TORSDOF 3
ENDMDL