MODEL 4
REMARK VINA RESULT: -8.896629181      2.114      2.764
REMARK  6 active torsions:
REMARK  status: ('A' for Active; 'I' for Inactive)
REMARK    1  A    between atoms: N1_8  and  N2_10
REMARK    2  A    between atoms: N2_10  and  C7_12
REMARK    3  A    between atoms: C7_12  and  N3_14
REMARK       I    between atoms: N3_14  and  C8_15
REMARK    4  A    between atoms: C8_15  and  C9_17
REMARK    5  A    between atoms: C9_17  and  C12_20
REMARK    6  A    between atoms: C13_21  and  C14_22
ROOT
HETATM    1  C7  UNL     1       2.001 -11.303  -8.480  1.00  0.00     0.267 C
HETATM    2  S1  UNL     1       1.311 -12.819  -8.629  1.00  0.00    -0.024 SA
ENDROOT
BRANCH   1   3
HETATM    3  N2  UNL     1       2.387 -10.726  -9.716  1.00  0.00    -0.265 N
ATOM      4  H2  UNL     1       1.831  -9.945 -10.066  1.00  0.00     0.190 HD
BRANCH   3   5
HETATM    5  N1  UNL     1       3.444 -11.136 -10.475  1.00  0.00    -0.305 N
HETATM    6  C6  UNL     1       3.400 -11.748 -11.617  1.00  0.00     0.011 C
HETATM    7  C5  UNL     1       2.134 -12.094 -12.269  1.00  0.00     0.132 C
HETATM    8  C17 UNL     1       4.702 -12.079 -12.206  1.00  0.00     0.059 C
HETATM    9  C4  UNL     1       2.242 -12.199 -13.751  1.00  0.00     0.132 C
HETATM   10  C3  UNL     1       3.564 -11.787 -14.368  1.00  0.00     0.083 C
HETATM   11  O1  UNL     1       1.316 -12.596 -14.413  1.00  0.00    -0.298 OA
HETATM   12  C2  UNL     1       4.598 -12.567 -13.613  1.00  0.00    -0.006 C
HETATM   13  C1  UNL     1       5.985 -12.386 -14.239  1.00  0.00     0.011 C
ATOM     14  H1  UNL     1       4.373 -10.939 -10.102  1.00  0.00     0.186 HD
ENDBRANCH   3   5
ENDBRANCH   1   3
BRANCH   1  15
HETATM   15  N3  UNL     1       2.113 -10.791  -7.222  1.00  0.00    -0.338 NA
HETATM   16  C8  UNL     1       2.223 -10.290  -5.990  1.00  0.00     0.314 C
HETATM   17  O2  UNL     1       1.633  -9.230  -5.563  1.00  0.00    -0.255 OA
BRANCH  16  18
HETATM   18  C9  UNL     1       3.068 -10.924  -4.917  1.00  0.00     0.111 C
HETATM   19  C10 UNL     1       2.641 -12.328  -4.620  1.00  0.00     0.040 C
HETATM   20  C11 UNL     1       4.522 -11.029  -5.428  1.00  0.00     0.040 C
BRANCH  18  21
HETATM   21  C12 UNL     1       3.026 -10.026  -3.773  1.00  0.00    -0.084 C
HETATM   22  C13 UNL     1       3.024  -9.275  -2.831  1.00  0.00    -0.080 C
BRANCH  22  23
HETATM   23  C14 UNL     1       3.053  -8.325  -1.691  1.00  0.00     0.093 C
HETATM   24  C15 UNL     1       4.144  -8.693  -0.698  1.00  0.00     0.046 C
HETATM   25  C16 UNL     1       3.364  -6.930  -2.192  1.00  0.00     0.046 C
HETATM   26 CL1  UNL     1       1.441  -8.393  -0.934  1.00  0.00    -0.106 Cl
ENDBRANCH  22  23
ENDBRANCH  18  21
ENDBRANCH  16  18
ENDBRANCH   1  15
TORSDOF 6
ENDMDL