MODEL 4
REMARK VINA RESULT: -7.615068136      0.866      1.699
REMARK  6 active torsions:
REMARK  status: ('A' for Active; 'I' for Inactive)
REMARK    1  A    between atoms: C2_2  and  N1_3
REMARK    2  A    between atoms: C2_2  and  C14_25
REMARK    3  A    between atoms: N1_3  and  C3_4
REMARK    4  A    between atoms: N2_8  and  C7_9
REMARK    5  A    between atoms: C7_9  and  O1_13
REMARK    6  A    between atoms: O1_13  and  C8_14
ROOT
HETATM    1  C3  UNL     1       3.583 -11.654 -11.820  1.00  0.00     0.267 C
HETATM    2  C4  UNL     1       2.290 -12.204 -11.225  1.00  0.00     0.088 C
HETATM    3  C5  UNL     1       1.928 -11.597  -9.924  1.00  0.00     0.115 C
HETATM    4  C6  UNL     1       1.909 -12.581  -8.778  1.00  0.00     0.155 C
HETATM    5  N2  UNL     1       2.549 -11.893  -7.698  1.00  0.00    -0.311 N
HETATM    6  C12 UNL     1       2.906 -10.544  -8.031  1.00  0.00     0.294 C
HETATM    7 CL1  UNL     1       1.817  -9.358  -7.286  1.00  0.00    -0.079 Cl
HETATM    8  N4  UNL     1       2.762 -10.502  -9.484  1.00  0.00    -0.293 N
HETATM    9  C13 UNL     1       3.264  -9.624 -10.483  1.00  0.00     0.323 C
HETATM   10  O2  UNL     1       3.434  -8.399 -10.220  1.00  0.00    -0.247 OA
HETATM   11  N5  UNL     1       3.557 -10.180 -11.753  1.00  0.00    -0.310 N
ATOM     12  H5  UNL     1       3.740  -9.597 -12.570  1.00  0.00     0.167 HD
ENDROOT
BRANCH   5  13
HETATM   13  C7  UNL     1       2.809 -12.485  -6.413  1.00  0.00     0.218 C
HETATM   14  N3  UNL     1       2.045 -13.415  -5.929  1.00  0.00    -0.365 N
ATOM     15  H32 UNL     1       1.255 -13.704  -6.504  1.00  0.00     0.159 HD
ATOM     16  H31 UNL     1       2.229 -13.834  -5.018  1.00  0.00     0.159 HD
BRANCH  13  17
HETATM   17  O1  UNL     1       3.881 -12.093  -5.633  1.00  0.00    -0.312 OA
BRANCH  17  18
HETATM   18  C8  UNL     1       3.647 -11.478  -4.372  1.00  0.00     0.060 C
HETATM   19  C9  UNL     1       4.892 -10.694  -3.968  1.00  0.00     0.046 C
HETATM   20  C10 UNL     1       2.496 -10.496  -4.436  1.00  0.00     0.046 C
HETATM   21  C11 UNL     1       3.355 -12.476  -3.297  1.00  0.00     0.046 C
ENDBRANCH  17  18
ENDBRANCH  13  17
ENDBRANCH   5  13
BRANCH   1  22
HETATM   22  N1  UNL     1       3.910 -12.090 -13.035  1.00  0.00    -0.430 NA
BRANCH  22  23
HETATM   23  C2  UNL     1       4.134 -12.426 -14.128  1.00  0.00     0.062 C
HETATM   24  C1  UNL     1       3.010 -12.839 -15.057  1.00  0.00     0.080 C
BRANCH  23  25
HETATM   25  C14 UNL     1       5.512 -12.489 -14.729  1.00  0.00    -0.000 C
HETATM   26  C15 UNL     1       6.600 -12.344 -13.704  1.00  0.00     0.021 C
HETATM   27  C16 UNL     1       5.692 -11.355 -15.738  1.00  0.00     0.021 C
HETATM   28  C17 UNL     1       5.688 -13.785 -15.520  1.00  0.00     0.021 C
ENDBRANCH  23  25
ENDBRANCH  22  23
ENDBRANCH   1  22
TORSDOF 6
ENDMDL