MODEL 3
REMARK VINA RESULT: -8.149345082      1.654      2.049
REMARK  3 active torsions:
REMARK  status: ('A' for Active; 'I' for Inactive)
REMARK    1  A    between atoms: C2_2  and  O1_3
REMARK    2  A    between atoms: O1_3  and  C3_4
REMARK       I    between atoms: C3_4  and  N1_6
REMARK       I    between atoms: N1_6  and  C4_8
REMARK       I    between atoms: C4_8  and  N2_10
REMARK    3  A    between atoms: N2_10  and  C5_12
ROOT
HETATM    1  C3  UNL     1       3.149  -9.427  -2.332  1.00  0.00     0.373 C
HETATM    2  O2  UNL     1       2.032  -9.472  -2.883  1.00  0.00    -0.238 OA
HETATM    3  N1  UNL     1       4.305  -9.788  -3.041  1.00  0.00    -0.254 N
ATOM      4  H1  UNL     1       5.170  -9.719  -2.504  1.00  0.00     0.175 HD
HETATM    5  C4  UNL     1       4.470 -10.220  -4.345  1.00  0.00     0.324 C
HETATM    6  O3  UNL     1       5.649 -10.486  -4.750  1.00  0.00    -0.247 OA
HETATM    7  N2  UNL     1       3.450 -10.391  -5.261  1.00  0.00    -0.337 N
ATOM      8  H2  UNL     1       2.498 -10.185  -4.957  1.00  0.00     0.164 HD
ENDROOT
BRANCH   7   9
HETATM    9  C5  UNL     1       3.640 -10.849  -6.635  1.00  0.00     0.094 C
HETATM   10  C6  UNL     1       2.713 -10.188  -7.601  1.00  0.00     0.009 C
HETATM   11  C7  UNL     1       1.318 -10.762  -7.583  1.00  0.00     0.011 C
HETATM   12  C11 UNL     1       3.271 -10.451  -9.005  1.00  0.00     0.011 C
HETATM   13  C8  UNL     1       1.352 -12.269  -7.766  1.00  0.00    -0.013 C
HETATM   14  C9  UNL     1       1.929 -12.525  -9.147  1.00  0.00     0.009 C
HETATM   15  C14 UNL     1       2.218 -12.916  -6.720  1.00  0.00     0.011 C
HETATM   16  C10 UNL     1       3.326 -11.931  -9.204  1.00  0.00    -0.013 C
HETATM   17  C12 UNL     1       4.155 -12.645  -8.165  1.00  0.00     0.011 C
HETATM   18  C13 UNL     1       3.606 -12.332  -6.768  1.00  0.00     0.009 C
ENDBRANCH   7   9
BRANCH   1  19
HETATM   19  O1  UNL     1       3.257  -9.013  -0.986  1.00  0.00    -0.263 OA
BRANCH  19  20
HETATM   20  C2  UNL     1       4.458  -8.901  -0.347  1.00  0.00     0.085 C
HETATM   21  C1  UNL     1       5.362 -10.049  -0.129  1.00  0.00     0.079 C
HETATM   22  C15 UNL     1       4.824  -7.685   0.097  1.00  0.00     0.094 C
HETATM   23  O4  UNL     1       6.005  -7.381   0.767  1.00  0.00    -0.351 OA
HETATM   24  C18 UNL     1       4.074  -6.417  -0.017  1.00  0.00     0.143 C
HETATM   25  C16 UNL     1       6.376  -6.035   0.527  1.00  0.00     0.177 C
HETATM   26  C17 UNL     1       5.118  -5.331   0.086  1.00  0.00     0.054 C
HETATM   27 CL1  UNL     1       3.284  -6.261  -1.602  1.00  0.00    -0.118 Cl
ENDBRANCH  19  20
ENDBRANCH   1  19
TORSDOF 3
ENDMDL