MODEL 4
REMARK VINA RESULT: -5.999959511      1.604      2.095
REMARK  1 active torsions:
REMARK  status: ('A' for Active; 'I' for Inactive)
REMARK    1  A    between atoms: C15_15  and  C16_16
ROOT
HETATM    1  C1  UNL     1       3.670 -10.009  -8.819  1.00  0.00     0.010 C
HETATM    2  C2  UNL     1       2.380 -10.724  -8.466  1.00  0.00    -0.014 C
HETATM    3  C3  UNL     1       2.444 -12.119  -8.980  1.00  0.00     0.005 C
HETATM    4  C4  UNL     1       3.165 -13.095  -8.125  1.00  0.00     0.006 C
HETATM    5  C5  UNL     1       2.941 -12.926  -6.646  1.00  0.00     0.002 C
HETATM    6  C6  UNL     1       1.601 -13.414  -6.236  1.00  0.00     0.029 C
HETATM    7  C7  UNL     1       0.456 -12.517  -6.565  1.00  0.00     0.009 C
HETATM    8  C8  UNL     1       0.738 -11.082  -6.709  1.00  0.00     0.006 C
HETATM    9  C9  UNL     1       2.131 -10.665  -6.952  1.00  0.00    -0.002 C
HETATM   10  C10 UNL     1       3.206 -11.473  -6.318  1.00  0.00     0.053 C
HETATM   11  C11 UNL     1       3.367 -11.228  -4.830  1.00  0.00     0.172 C
HETATM   12  C12 UNL     1       4.674 -10.502  -4.644  1.00  0.00     0.072 C
HETATM   13  C13 UNL     1       4.776  -9.689  -3.414  1.00  0.00     0.029 C
HETATM   14  C14 UNL     1       4.946 -10.396  -2.108  1.00  0.00     0.026 C
HETATM   15  C15 UNL     1       3.920  -9.443  -1.513  1.00  0.00     0.125 C
HETATM   16  C17 UNL     1       3.451  -9.186  -2.951  1.00  0.00     0.110 C
HETATM   17  C18 UNL     1       3.349  -7.680  -3.151  1.00  0.00     0.050 C
HETATM   18  O3  UNL     1       2.360  -9.818  -3.355  1.00  0.00    -0.226 OA
HETATM   19  O4  UNL     1       2.289 -10.599  -4.304  1.00  0.00    -0.206 OA
HETATM   20  N1  UNL     1       3.476 -12.521  -4.239  1.00  0.00    -0.366 N
ATOM     21  H1  UNL     1       4.383 -12.973  -4.125  1.00  0.00     0.161 HD
HETATM   22  C19 UNL     1       2.306 -13.145  -3.824  1.00  0.00     0.096 C
HETATM   23  C20 UNL     1       1.542 -13.933  -4.813  1.00  0.00     0.212 C
HETATM   24  F1  UNL     1       1.912 -15.268  -4.736  1.00  0.00    -0.243 F
ENDROOT
BRANCH  15  25
HETATM   25  C16 UNL     1       2.919 -10.108  -0.665  1.00  0.00     0.180 C
HETATM   26  O1  UNL     1       2.096  -9.476   0.027  1.00  0.00    -0.648 OA
HETATM   27  O2  UNL     1       2.877 -11.501  -0.621  1.00  0.00    -0.648 OA
ENDBRANCH  15  25
TORSDOF 1
ENDMDL