MODEL 5
REMARK VINA RESULT: -5.574640913      2.867      6.018
REMARK  4 active torsions:
REMARK  status: ('A' for Active; 'I' for Inactive)
REMARK    1  A    between atoms: C5_9  and  N2_10
REMARK    2  A    between atoms: N2_10  and  C6_12
REMARK    3  A    between atoms: C6_12  and  N3_14
REMARK    4  A    between atoms: N3_14  and  C7_16
ROOT
HETATM    1  C1  UNL     1       2.533 -12.168  -9.187  1.00  0.00     0.163 C
HETATM    2  N1  UNL     1       2.389 -12.420  -7.758  1.00  0.00    -0.284 N
HETATM    3  C2  UNL     1       2.014 -13.638  -7.188  1.00  0.00     0.268 A
HETATM    4  O1  UNL     1       1.739 -14.712  -7.817  1.00  0.00    -0.266 OA
HETATM    5  C3  UNL     1       1.998 -13.436  -5.737  1.00  0.00     0.092 A
HETATM    6  S1  UNL     1       1.710 -14.180  -4.232  1.00  0.00    -0.074 SA
HETATM    7  C4  UNL     1       2.034 -12.861  -3.200  1.00  0.00     0.080 A
HETATM    8 BR1  UNL     1       1.959 -12.785  -1.272  1.00  0.00    -0.041 Br
HETATM    9  C5  UNL     1       2.363 -11.862  -4.079  1.00  0.00     0.076 A
HETATM   10  C11 UNL     1       2.344 -12.162  -5.388  1.00  0.00     0.083 A
HETATM   11  C12 UNL     1       2.597 -11.501  -6.693  1.00  0.00     0.264 A
HETATM   12  O2  UNL     1       2.948 -10.315  -6.922  1.00  0.00    -0.267 OA
ENDROOT
BRANCH   9  13
HETATM   13  N2  UNL     1       2.707 -10.557  -3.529  1.00  0.00    -0.331 N
ATOM     14  H2  UNL     1       2.005  -9.818  -3.515  1.00  0.00     0.168 HD
BRANCH  13  15
HETATM   15  C6  UNL     1       4.000 -10.294  -3.014  1.00  0.00     0.172 C
HETATM   16  S2  UNL     1       5.279 -10.573  -3.988  1.00  0.00    -0.041 SA
BRANCH  15  17
HETATM   17  N3  UNL     1       4.165  -9.802  -1.690  1.00  0.00    -0.359 N
ATOM     18  H3  UNL     1       4.729 -10.349  -1.040  1.00  0.00     0.162 HD
BRANCH  17  19
HETATM   19  C7  UNL     1       3.585  -8.582  -1.215  1.00  0.00     0.021 C
HETATM   20  C8  UNL     1       4.552  -8.005  -0.185  1.00  0.00     0.037 C
HETATM   21  C9  UNL     1       2.259  -8.884  -0.557  1.00  0.00     0.037 C
HETATM   22  C10 UNL     1       3.431  -7.542  -2.299  1.00  0.00     0.037 C
ENDBRANCH  17  19
ENDBRANCH  15  17
ENDBRANCH  13  15
ENDBRANCH   9  13
TORSDOF 4
ENDMDL