MODEL 1
REMARK VINA RESULT: -6.623231007      0.000      0.000
REMARK  8 active torsions:
REMARK  status: ('A' for Active; 'I' for Inactive)
REMARK    1  A    between atoms: O1_1  and  C1_3
REMARK    2  A    between atoms: N1_5  and  C3_6
REMARK    3  A    between atoms: C3_6  and  O2_7
REMARK    4  A    between atoms: O2_7  and  N2_8
REMARK    5  A    between atoms: N2_8  and  C4_9
REMARK    6  A    between atoms: C4_9  and  C5_10
REMARK    7  A    between atoms: C5_10  and  O3_11
REMARK    8  A    between atoms: N5_17  and  O4_18
ROOT
HETATM    1  C1  UNL     1      -5.712   5.904  -4.656  1.00  0.00     0.204 A
HETATM    2  C2  UNL     1      -6.000   7.243  -4.767  1.00  0.00     0.174 A
HETATM    3  N1  UNL     1      -6.137   7.864  -5.959  1.00  0.00    -0.258 N
HETATM    4  N3  UNL     1      -5.972   7.084  -7.017  1.00  0.00    -0.222 N
ATOM      5  H3  UNL     1      -6.065   7.502  -7.942  1.00  0.00     0.210 HD
HETATM    6  N4  UNL     1      -5.695   5.800  -6.939  1.00  0.00    -0.199 N
ATOM      7  H4  UNL     1      -5.581   5.263  -7.798  1.00  0.00     0.212 HD
HETATM    8  N5  UNL     1      -5.561   5.194  -5.781  1.00  0.00    -0.122 N
ENDROOT
BRANCH   3   9
HETATM    9  C3  UNL     1      -6.442   9.278  -6.080  1.00  0.00     0.345 C
BRANCH   9  10
HETATM   10  O2  UNL     1      -6.451   9.825  -4.800  1.00  0.00    -0.265 OA
BRANCH  10  11
HETATM   11  N2  UNL     1      -6.433  11.172  -4.826  1.00  0.00    -0.097 NA
BRANCH  11  12
HETATM   12  C4  UNL     1      -5.494  11.671  -5.802  1.00  0.00     0.168 C
BRANCH  12  13
HETATM   13  C5  UNL     1      -4.241  12.120  -5.068  1.00  0.00     0.182 C
BRANCH  13  14
HETATM   14  O3  UNL     1      -3.807  10.999  -4.331  1.00  0.00    -0.400 OA
ATOM     15  H3  UNL     1      -4.206  11.084  -3.473  1.00  0.00     0.209 HD
ENDBRANCH  13  14
ENDBRANCH  12  13
ENDBRANCH  11  12
ENDBRANCH  10  11
ENDBRANCH   9  10
ENDBRANCH   3   9
BRANCH   1  16
HETATM   16  O1  UNL     1      -5.583   5.319  -3.399  1.00  0.00    -0.342 OA
ATOM     17  H1  UNL     1      -5.802   4.403  -3.274  1.00  0.00     0.219 HD
ENDBRANCH   1  16
BRANCH   8  18
HETATM   18  O4  UNL     1      -5.267   3.830  -5.722  1.00  0.00    -0.265 OA
ATOM     19  H4  UNL     1      -4.598   3.457  -6.285  1.00  0.00     0.247 HD
ENDBRANCH   8  18
TORSDOF 8
ENDMDL