MODEL 4
REMARK VINA RESULT: -5.724125650      1.171      1.948
REMARK  7 active torsions:
REMARK  status: ('A' for Active; 'I' for Inactive)
REMARK    1  A    between atoms: O1_1  and  N1_3
REMARK    2  A    between atoms: N3_7  and  C1_8
REMARK    3  A    between atoms: C1_8  and  O3_9
REMARK    4  A    between atoms: O3_9  and  C2_10
REMARK    5  A    between atoms: C2_10  and  C3_11
REMARK    6  A    between atoms: C3_11  and  O4_12
REMARK    7  A    between atoms: N4_14  and  O5_15
ROOT
HETATM    1  N1  UNL     1      -6.138   4.907  -5.502  1.00  0.00    -0.028 N
HETATM    2  N2  UNL     1      -6.652   5.279  -4.351  1.00  0.00    -0.135 N
ATOM      3  H2  UNL     1      -6.923   4.653  -3.592  1.00  0.00     0.223 HD
HETATM    4  O2  UNL     1      -6.759   6.560  -4.336  1.00  0.00    -0.114 OA
HETATM    5  N3  UNL     1      -6.328   7.072  -5.453  1.00  0.00    -0.103 N
HETATM    6  N4  UNL     1      -5.938   6.023  -6.187  1.00  0.00    -0.023 N
ENDROOT
BRANCH   5   7
HETATM    7  C1  UNL     1      -6.275   8.463  -5.840  1.00  0.00     0.351 C
BRANCH   7   8
HETATM    8  O3  UNL     1      -6.005   9.319  -4.800  1.00  0.00    -0.366 OA
BRANCH   8   9
HETATM    9  C2  UNL     1      -6.306  10.640  -5.083  1.00  0.00     0.196 C
BRANCH   9  10
HETATM   10  C3  UNL     1      -4.990  11.382  -5.306  1.00  0.00     0.190 C
BRANCH  10  11
HETATM   11  O4  UNL     1      -4.040  11.006  -4.365  1.00  0.00    -0.399 OA
ATOM     12  H4  UNL     1      -3.516  11.750  -4.094  1.00  0.00     0.209 HD
ENDBRANCH  10  11
ENDBRANCH   9  10
ENDBRANCH   8   9
ENDBRANCH   7   8
ENDBRANCH   5   7
BRANCH   6  13
HETATM   13  O5  UNL     1      -5.409   6.060  -7.449  1.00  0.00    -0.249 OA
ATOM     14  H5  UNL     1      -5.662   6.692  -8.111  1.00  0.00     0.248 HD
ENDBRANCH   6  13
BRANCH   1  15
HETATM   15  O1  UNL     1      -5.888   3.603  -5.855  1.00  0.00    -0.249 OA
ATOM     16  H1  UNL     1      -5.572   3.330  -6.708  1.00  0.00     0.248 HD
ENDBRANCH   1  15
TORSDOF 7
ENDMDL