MODEL 4
REMARK VINA RESULT: -6.361729136      1.812      3.326
REMARK  8 active torsions:
REMARK  status: ('A' for Active; 'I' for Inactive)
REMARK    1  A    between atoms: N2_4  and  C1_6
REMARK    2  A    between atoms: C1_6  and  O1_7
REMARK    3  A    between atoms: O1_7  and  C2_8
REMARK    4  A    between atoms: C2_8  and  C3_9
REMARK    5  A    between atoms: C2_8  and  C4_13
REMARK    6  A    between atoms: C3_9  and  O2_10
REMARK    7  A    between atoms: O2_10  and  O3_11
REMARK    8  A    between atoms: N5_18  and  O5_19
ROOT
HETATM    1  C2  UNL     1      -6.868   6.573  -5.981  1.00  0.00     0.223 C
ENDROOT
BRANCH   1   2
HETATM    2  O1  UNL     1      -6.695   5.948  -7.208  1.00  0.00    -0.356 OA
BRANCH   2   3
HETATM    3  C1  UNL     1      -7.747   6.243  -8.076  1.00  0.00     0.308 C
BRANCH   3   4
HETATM    4  N2  UNL     1      -7.152   6.698  -9.287  1.00  0.00    -0.320 N
HETATM    5  N1  UNL     1      -7.259   7.887  -9.587  1.00  0.00    -0.348 N
ATOM      6  H12 UNL     1      -7.767   8.521  -8.969  1.00  0.00     0.176 HD
ATOM      7  H11 UNL     1      -6.833   8.213 -10.455  1.00  0.00     0.176 HD
ATOM      8  H2  UNL     1      -6.648   6.051  -9.894  1.00  0.00     0.182 HD
ENDBRANCH   3   4
ENDBRANCH   2   3
ENDBRANCH   1   2
BRANCH   1   9
HETATM    9  C3  UNL     1      -6.222   7.942  -6.084  1.00  0.00     0.249 C
BRANCH   9  10
HETATM   10  O2  UNL     1      -6.498   8.726  -4.975  1.00  0.00    -0.240 OA
BRANCH  10  11
HETATM   11  O3  UNL     1      -5.359   9.289  -4.612  1.00  0.00    -0.251 OA
ATOM     12  H3  UNL     1      -5.417   9.450  -3.677  1.00  0.00     0.253 HD
ENDBRANCH  10  11
ENDBRANCH   9  10
ENDBRANCH   1   9
BRANCH   1  13
HETATM   13  C4  UNL     1      -6.263   5.740  -4.946  1.00  0.00     0.182 A
HETATM   14  N3  UNL     1      -5.576   6.189  -3.882  1.00  0.00    -0.259 N
HETATM   15  N4  UNL     1      -5.196   5.125  -3.188  1.00  0.00     0.051 NA
ATOM     16  H3  UNL     1      -5.382   7.163  -3.652  1.00  0.00     0.186 HD
HETATM   17  O4  UNL     1      -5.610   4.042  -3.762  1.00  0.00    -0.112 OA
HETATM   18  N5  UNL     1      -6.259   4.400  -4.830  1.00  0.00    -0.088 N
BRANCH  18  19
HETATM   19  O5  UNL     1      -6.789   3.578  -5.610  1.00  0.00    -0.260 OA
ATOM     20  H5  UNL     1      -6.395   3.193  -6.385  1.00  0.00     0.247 HD
ENDBRANCH  18  19
ENDBRANCH   1  13
TORSDOF 8
ENDMDL