MODEL 2
REMARK VINA RESULT: -6.934916958      0.627      1.131
REMARK  5 active torsions:
REMARK  status: ('A' for Active; 'I' for Inactive)
REMARK    1  A    between atoms: N1_1  and  N2_4
REMARK    2  A    between atoms: N3_6  and  C2_7
REMARK    3  A    between atoms: C2_7  and  O1_8
REMARK    4  A    between atoms: O1_8  and  C3_9
REMARK    5  A    between atoms: C3_9  and  N4_10
ROOT
HETATM    1  C2  UNL     1      -6.820   7.887  -7.036  1.00  0.00     0.317 C
ENDROOT
BRANCH   1   2
HETATM    2  N3  UNL     1      -6.638   9.124  -6.301  1.00  0.00    -0.247 N
HETATM    3  C1  UNL     1      -6.846  10.363  -6.798  1.00  0.00     0.243 A
HETATM    4  N2  UNL     1      -6.587  11.292  -5.862  1.00  0.00    -0.183 N
HETATM    5  N10 UNL     1      -6.217  10.617  -4.790  1.00  0.00     0.015 NA
HETATM    6  N9  UNL     1      -6.246   9.303  -5.051  1.00  0.00    -0.002 NA
BRANCH   4   7
HETATM    7  N1  UNL     1      -6.703  12.675  -6.048  1.00  0.00    -0.325 N
ATOM      8  H12 UNL     1      -6.502  13.238  -6.875  1.00  0.00     0.178 HD
ATOM      9  H11 UNL     1      -7.021  13.338  -5.341  1.00  0.00     0.178 HD
ENDBRANCH   4   7
ENDBRANCH   1   2
BRANCH   1  10
HETATM   10  O1  UNL     1      -7.963   7.207  -6.687  1.00  0.00    -0.349 OA
BRANCH  10  11
HETATM   11  C3  UNL     1      -7.951   5.868  -6.981  1.00  0.00     0.337 C
BRANCH  11  12
HETATM   12  N4  UNL     1      -7.210   5.176  -5.930  1.00  0.00    -0.183 N
HETATM   13  N5  UNL     1      -6.351   4.189  -6.024  1.00  0.00    -0.211 N
HETATM   14  N6  UNL     1      -5.892   3.837  -4.829  1.00  0.00     0.006 NA
ATOM     15  H5  UNL     1      -6.072   3.750  -6.901  1.00  0.00     0.206 HD
HETATM   16  N7  UNL     1      -6.493   4.640  -3.969  1.00  0.00     0.008 NA
HETATM   17  N8  UNL     1      -7.302   5.462  -4.641  1.00  0.00     0.010 NA
ENDBRANCH  11  12
ENDBRANCH  10  11
ENDBRANCH   1  10
TORSDOF 5
ENDMDL