MODEL 1
REMARK VINA RESULT: -5.996961076      0.000      0.000
REMARK  8 active torsions:
REMARK  status: ('A' for Active; 'I' for Inactive)
REMARK    1  A    between atoms: O1_1  and  C1_3
REMARK    2  A    between atoms: C1_3  and  O2_4
REMARK    3  A    between atoms: O2_4  and  C2_5
REMARK    4  A    between atoms: C2_5  and  N1_6
REMARK    5  A    between atoms: N2_8  and  C4_9
REMARK    6  A    between atoms: C4_9  and  C5_10
REMARK    7  A    between atoms: C5_10  and  O3_11
REMARK    8  A    between atoms: N4_14  and  O4_15
ROOT
HETATM    1  N1  UNL     1      -6.321   7.264  -5.801  1.00  0.00    -0.223 N
HETATM    2  C3  UNL     1      -6.389   8.436  -6.455  1.00  0.00     0.224 A
HETATM    3  N2  UNL     1      -6.025   9.407  -5.593  1.00  0.00    -0.265 N
HETATM    4  N3  UNL     1      -5.747   8.810  -4.448  1.00  0.00     0.027 NA
HETATM    5  N4  UNL     1      -5.924   7.506  -4.563  1.00  0.00    -0.074 N
ENDROOT
BRANCH   1   6
HETATM    6  C2  UNL     1      -6.638   5.971  -6.391  1.00  0.00     0.324 C
BRANCH   6   7
HETATM    7  O2  UNL     1      -7.211   5.114  -5.449  1.00  0.00    -0.346 OA
BRANCH   7   8
HETATM    8  C1  UNL     1      -6.513   3.908  -5.512  1.00  0.00     0.336 C
BRANCH   8   9
HETATM    9  O1  UNL     1      -5.905   3.726  -4.266  1.00  0.00    -0.377 OA
ATOM     10  H1  UNL     1      -5.151   3.164  -4.406  1.00  0.00     0.212 HD
ENDBRANCH   8   9
ENDBRANCH   7   8
ENDBRANCH   6   7
ENDBRANCH   1   6
BRANCH   5  11
HETATM   11  O4  UNL     1      -5.733   6.545  -3.574  1.00  0.00    -0.255 OA
ATOM     12  H4  UNL     1      -6.221   6.485  -2.761  1.00  0.00     0.248 HD
ENDBRANCH   5  11
BRANCH   3  13
HETATM   13  C4  UNL     1      -5.979  10.801  -5.944  1.00  0.00     0.173 C
BRANCH  13  14
HETATM   14  C5  UNL     1      -5.303  11.657  -4.920  1.00  0.00     0.185 C
BRANCH  14  15
HETATM   15  O3  UNL     1      -4.079  11.054  -4.610  1.00  0.00    -0.399 OA
ATOM     16  H3  UNL     1      -3.930  11.173  -3.679  1.00  0.00     0.209 HD
ENDBRANCH  14  15
ENDBRANCH  13  14
ENDBRANCH   3  13
TORSDOF 8
ENDMDL