MODEL 3
REMARK VINA RESULT: -6.110173962      2.003      5.036
REMARK  6 active torsions:
REMARK  status: ('A' for Active; 'I' for Inactive)
REMARK    1  A    between atoms: N1_4  and  C3_5
REMARK    2  A    between atoms: C3_5  and  O2_6
REMARK    3  A    between atoms: N4_12  and  C4_13
REMARK    4  A    between atoms: C4_13  and  O3_14
REMARK    5  A    between atoms: O3_14  and  C5_15
REMARK    6  A    between atoms: C5_15  and  O4_16
ROOT
HETATM    1  O1  UNL     1      -8.649   4.521  -6.551  1.00  0.00    -0.265 OA
HETATM    2  C1  UNL     1      -7.865   5.470  -6.791  1.00  0.00     0.282 A
HETATM    3  C2  UNL     1      -8.268   6.575  -7.471  1.00  0.00     0.190 A
HETATM    4  N1  UNL     1      -7.396   7.567  -7.707  1.00  0.00    -0.259 N
HETATM    5  N2  UNL     1      -6.157   7.454  -7.272  1.00  0.00    -0.224 N
ATOM      6  H2  UNL     1      -5.495   8.209  -7.452  1.00  0.00     0.210 HD
HETATM    7  N3  UNL     1      -5.747   6.375  -6.603  1.00  0.00    -0.221 N
ATOM      8  H3  UNL     1      -4.782   6.312  -6.277  1.00  0.00     0.210 HD
HETATM    9  N4  UNL     1      -6.598   5.382  -6.360  1.00  0.00    -0.216 N
ENDROOT
BRANCH   9  10
HETATM   10  C4  UNL     1      -6.179   4.194  -5.632  1.00  0.00     0.324 C
BRANCH  10  11
HETATM   11  O3  UNL     1      -6.352   4.443  -4.291  1.00  0.00    -0.346 OA
BRANCH  11  12
HETATM   12  C5  UNL     1      -5.307   5.113  -3.694  1.00  0.00     0.336 C
BRANCH  12  13
HETATM   13  O4  UNL     1      -5.594   6.426  -3.364  1.00  0.00    -0.377 OA
ATOM     14  H4  UNL     1      -4.870   6.891  -2.963  1.00  0.00     0.212 HD
ENDBRANCH  12  13
ENDBRANCH  11  12
ENDBRANCH  10  11
ENDBRANCH   9  10
BRANCH   4  15
HETATM   15  C3  UNL     1      -7.872   8.722  -8.435  1.00  0.00     0.314 C
BRANCH  15  16
HETATM   16  O2  UNL     1      -6.762   9.297  -9.058  1.00  0.00    -0.380 OA
ATOM     17  H2  UNL     1      -6.152   9.537  -8.371  1.00  0.00     0.211 HD
ENDBRANCH  15  16
ENDBRANCH   4  15
TORSDOF 6
ENDMDL