MODEL 4
REMARK VINA RESULT: -5.715422457      4.337      5.783
REMARK  7 active torsions:
REMARK  status: ('A' for Active; 'I' for Inactive)
REMARK    1  A    between atoms: O1_1  and  C1_3
REMARK    2  A    between atoms: C1_3  and  O2_4
REMARK    3  A    between atoms: O2_4  and  C2_5
REMARK    4  A    between atoms: C2_5  and  N1_6
REMARK    5  A    between atoms: N1_6  and  C4_17
REMARK    6  A    between atoms: C3_7  and  N2_8
REMARK    7  A    between atoms: C4_17  and  O3_18
ROOT
HETATM    1  N1  UNL     1      -5.924  11.147  -6.494  1.00  0.00    -0.332 N
HETATM    2  C3  UNL     1      -5.117  12.157  -6.395  1.00  0.00     0.231 C
ENDROOT
BRANCH   2   3
HETATM    3  N2  UNL     1      -4.652  12.626  -5.138  1.00  0.00    -0.161 N
HETATM    4  N3  UNL     1      -5.181  13.640  -4.483  1.00  0.00    -0.203 N
HETATM    5  N4  UNL     1      -4.508  13.819  -3.338  1.00  0.00    -0.211 N
ATOM      6  H3  UNL     1      -5.976  14.198  -4.796  1.00  0.00     0.212 HD
HETATM    7  N5  UNL     1      -3.555  12.909  -3.286  1.00  0.00    -0.211 N
ATOM      8  H4  UNL     1      -4.698  14.532  -2.633  1.00  0.00     0.211 HD
HETATM    9  N6  UNL     1      -3.666  12.184  -4.412  1.00  0.00    -0.203 N
ATOM     10  H5  UNL     1      -2.871  12.782  -2.541  1.00  0.00     0.211 HD
ATOM     11  H6  UNL     1      -3.064  11.400  -4.661  1.00  0.00     0.212 HD
ENDBRANCH   2   3
BRANCH   1  12
HETATM   12  C2  UNL     1      -6.407  10.430  -5.337  1.00  0.00     0.298 C
BRANCH  12  13
HETATM   13  O2  UNL     1      -5.442   9.508  -4.978  1.00  0.00    -0.348 OA
BRANCH  13  14
HETATM   14  C1  UNL     1      -5.973   8.250  -4.703  1.00  0.00     0.336 C
BRANCH  14  15
HETATM   15  O1  UNL     1      -6.771   7.777  -5.741  1.00  0.00    -0.377 OA
ATOM     16  H1  UNL     1      -6.271   7.606  -6.530  1.00  0.00     0.212 HD
ENDBRANCH  14  15
ENDBRANCH  13  14
ENDBRANCH  12  13
ENDBRANCH   1  12
BRANCH   1  17
HETATM   17  C4  UNL     1      -6.363  10.717  -7.806  1.00  0.00     0.293 C
BRANCH  17  18
HETATM   18  O3  UNL     1      -6.257   9.350  -7.979  1.00  0.00    -0.382 OA
ATOM     19  H3  UNL     1      -5.646   9.116  -8.669  1.00  0.00     0.211 HD
ENDBRANCH  17  18
ENDBRANCH   1  17
TORSDOF 7
ENDMDL