MODEL 4
REMARK VINA RESULT: -5.683974902      1.789      2.687
REMARK  7 active torsions:
REMARK  status: ('A' for Active; 'I' for Inactive)
REMARK    1  A    between atoms: N1_1  and  N2_4
REMARK    2  A    between atoms: N4_9  and  C3_10
REMARK    3  A    between atoms: C3_10  and  C4_11
REMARK    4  A    between atoms: C4_11  and  N5_12
REMARK    5  A    between atoms: N5_12  and  O1_13
REMARK    6  A    between atoms: N5_12  and  N6_15
REMARK    7  A    between atoms: C5_17  and  O2_18
ROOT
HETATM    1  C3  UNL     1      -6.218   7.667  -5.811  1.00  0.00     0.175 C
ENDROOT
BRANCH   1   2
HETATM    2  N4  UNL     1      -6.397   9.036  -6.144  1.00  0.00    -0.265 N
HETATM    3  N2  UNL     1      -6.658   9.627  -7.301  1.00  0.00    -0.136 N
HETATM    4  N3  UNL     1      -6.743  10.939  -7.125  1.00  0.00    -0.275 N
HETATM    5  C1  UNL     1      -6.536  11.219  -5.825  1.00  0.00     0.129 A
ATOM      6  H3  UNL     1      -6.935  11.625  -7.856  1.00  0.00     0.189 HD
HETATM    7  C2  UNL     1      -6.320  10.019  -5.224  1.00  0.00     0.132 A
BRANCH   3   8
HETATM    8  N1  UNL     1      -6.809   8.948  -8.483  1.00  0.00    -0.309 N
ATOM      9  H12 UNL     1      -7.183   9.370  -9.333  1.00  0.00     0.180 HD
ATOM     10  H11 UNL     1      -6.577   7.970  -8.658  1.00  0.00     0.180 HD
ENDBRANCH   3   8
ENDBRANCH   1   2
BRANCH   1  11
HETATM   11  C4  UNL     1      -5.899   7.390  -4.374  1.00  0.00     0.198 C
BRANCH  11  12
HETATM   12  N5  UNL     1      -5.368   6.030  -4.317  1.00  0.00    -0.199 N
BRANCH  12  13
HETATM   13  O1  UNL     1      -5.235   5.473  -3.079  1.00  0.00    -0.272 OA
ATOM     14  H1  UNL     1      -5.846   4.782  -2.853  1.00  0.00     0.246 HD
ENDBRANCH  12  13
BRANCH  12  15
HETATM   15  N6  UNL     1      -5.006   5.313  -5.457  1.00  0.00    -0.269 N
HETATM   16  C5  UNL     1      -5.494   4.150  -5.701  1.00  0.00     0.241 C
ATOM     17  H6  UNL     1      -4.339   5.720  -6.111  1.00  0.00     0.190 HD
BRANCH  16  18
HETATM   18  O2  UNL     1      -6.408   3.643  -4.763  1.00  0.00    -0.355 OA
ATOM     19  H2  UNL     1      -6.455   2.697  -4.684  1.00  0.00     0.218 HD
ENDBRANCH  16  18
ENDBRANCH  12  15
ENDBRANCH  11  12
ENDBRANCH   1  11
TORSDOF 7
ENDMDL