MODEL 1
REMARK VINA RESULT: -6.030961488      0.000      0.000
REMARK  6 active torsions:
REMARK  status: ('A' for Active; 'I' for Inactive)
REMARK    1  A    between atoms: N1_2  and  C3_4
REMARK    2  A    between atoms: C3_4  and  C4_5
REMARK    3  A    between atoms: C4_5  and  N2_6
REMARK    4  A    between atoms: N6_13  and  C5_14
REMARK    5  A    between atoms: C5_14  and  N7_15
REMARK    6  A    between atoms: C6_19  and  O1_20
ROOT
HETATM    1  N2  UNL     1      -6.010  11.032  -5.460  1.00  0.00    -0.238 N
HETATM    2  N3  UNL     1      -6.940  11.768  -6.047  1.00  0.00    -0.222 N
ATOM      3  H3  UNL     1      -7.751  11.284  -6.434  1.00  0.00     0.210 HD
HETATM    4  N4  UNL     1      -6.898  13.067  -6.167  1.00  0.00    -0.213 N
ATOM      5  H4  UNL     1      -7.652  13.571  -6.633  1.00  0.00     0.211 HD
HETATM    6  N5  UNL     1      -5.857  13.715  -5.672  1.00  0.00    -0.220 N
ATOM      7  H5  UNL     1      -5.794  14.730  -5.749  1.00  0.00     0.210 HD
HETATM    8  N6  UNL     1      -4.899  13.024  -5.074  1.00  0.00    -0.213 N
HETATM    9  C6  UNL     1      -4.947  11.682  -4.953  1.00  0.00     0.259 A
ENDROOT
BRANCH   1  10
HETATM   10  C4  UNL     1      -6.136   9.592  -5.371  1.00  0.00     0.184 C
BRANCH  10  11
HETATM   11  C3  UNL     1      -6.522   8.982  -6.698  1.00  0.00     0.293 C
BRANCH  11  12
HETATM   12  N1  UNL     1      -6.425   7.560  -6.663  1.00  0.00     0.081 N
HETATM   13  C1  UNL     1      -7.555   6.927  -7.274  1.00  0.00     0.309 C
HETATM   14  C2  UNL     1      -6.159   7.007  -5.378  1.00  0.00     0.309 C
ENDBRANCH  11  12
ENDBRANCH  10  11
ENDBRANCH   1  10
BRANCH   9  15
HETATM   15  O1  UNL     1      -3.916  10.982  -4.315  1.00  0.00    -0.330 OA
ATOM     16  H1  UNL     1      -4.105  10.367  -3.617  1.00  0.00     0.221 HD
ENDBRANCH   9  15
BRANCH   8  17
HETATM   17  C5  UNL     1      -3.752  13.747  -4.529  1.00  0.00     0.383 C
BRANCH  17  18
HETATM   18  N7  UNL     1      -3.781  13.744  -3.068  1.00  0.00    -0.061 N
ATOM     19  H73 UNL     1      -4.520  14.347  -2.705  1.00  0.00     0.276 HD
ATOM     20  H72 UNL     1      -4.114  12.853  -2.699  1.00  0.00     0.276 HD
ATOM     21  H71 UNL     1      -2.869  13.993  -2.686  1.00  0.00     0.276 HD
ENDBRANCH  17  18
ENDBRANCH   8  17
TORSDOF 6
ENDMDL