MODEL 2
REMARK VINA RESULT: -6.212982998      1.994      2.663
REMARK  8 active torsions:
REMARK  status: ('A' for Active; 'I' for Inactive)
REMARK    1  A    between atoms: N1_1  and  N2_4
REMARK    2  A    between atoms: N2_4  and  N3_5
REMARK    3  A    between atoms: C1_7  and  C2_9
REMARK    4  A    between atoms: C2_9  and  O1_10
REMARK    5  A    between atoms: O1_10  and  C3_11
REMARK    6  A    between atoms: C3_11  and  N5_12
REMARK    7  A    between atoms: C4_13  and  O2_14
REMARK    8  A    between atoms: N6_16  and  O3_17
ROOT
HETATM    1  O1  UNL     1      -6.663   9.220  -5.526  1.00  0.00    -0.363 OA
ENDROOT
BRANCH   1   2
HETATM    2  C2  UNL     1      -5.643  10.126  -5.443  1.00  0.00     0.244 C
BRANCH   2   3
HETATM    3  C1  UNL     1      -6.192  11.498  -5.501  1.00  0.00     0.130 C
HETATM    4  N3  UNL     1      -5.680  12.454  -4.852  1.00  0.00    -0.274 N
ATOM      5  H3  UNL     1      -6.147  13.353  -4.971  1.00  0.00     0.185 HD
HETATM    6  N4  UNL     1      -7.333  11.783  -6.303  1.00  0.00    -0.084 NA
BRANCH   4   7
HETATM    7  N2  UNL     1      -4.597  12.472  -4.012  1.00  0.00    -0.029 NA
BRANCH   7   8
HETATM    8  N1  UNL     1      -4.540  13.629  -3.202  1.00  0.00    -0.329 N
ATOM      9  H12 UNL     1      -4.594  13.589  -2.184  1.00  0.00     0.174 HD
ATOM     10  H11 UNL     1      -4.441  14.490  -3.740  1.00  0.00     0.174 HD
ENDBRANCH   7   8
ENDBRANCH   4   7
ENDBRANCH   2   3
ENDBRANCH   1   2
BRANCH   1  11
HETATM   11  C3  UNL     1      -6.363   8.148  -6.361  1.00  0.00     0.322 C
BRANCH  11  12
HETATM   12  N5  UNL     1      -6.148   6.957  -5.538  1.00  0.00    -0.212 N
HETATM   13  C4  UNL     1      -6.008   6.680  -4.286  1.00  0.00     0.286 A
HETATM   14  N6  UNL     1      -5.864   5.289  -4.579  1.00  0.00    -0.104 N
HETATM   15  N7  UNL     1      -6.005   5.591  -5.806  1.00  0.00    -0.205 N
ATOM     16  H7  UNL     1      -6.012   5.042  -6.666  1.00  0.00     0.211 HD
BRANCH  13  17
HETATM   17  O2  UNL     1      -6.008   7.473  -3.152  1.00  0.00    -0.328 OA
ATOM     18  H2  UNL     1      -6.072   7.266  -2.228  1.00  0.00     0.221 HD
ENDBRANCH  13  17
BRANCH  14  19
HETATM   19  O3  UNL     1      -5.661   4.160  -3.814  1.00  0.00    -0.264 OA
ATOM     20  H3  UNL     1      -6.206   3.652  -3.224  1.00  0.00     0.247 HD
ENDBRANCH  14  19
ENDBRANCH  11  12
ENDBRANCH   1  11
TORSDOF 8
ENDMDL