MODEL 2
REMARK VINA RESULT: -7.402867593      3.509      7.013
REMARK  6 active torsions:
REMARK  status: ('A' for Active; 'I' for Inactive)
REMARK    1  A    between atoms: C3_3  and  C4_4
REMARK    2  A    between atoms: C5_5  and  C6_6
REMARK    3  A    between atoms: C11_13  and  O1_14
REMARK    4  A    between atoms: O1_14  and  C12_15
REMARK    5  A    between atoms: C15_18  and  C16_19
REMARK    6  A    between atoms: C16_19  and  O2_21
ROOT
HETATM    1  C6  UNL     1       3.030  -0.068 -29.200  1.00  0.00     0.089 C
HETATM    2  C7  UNL     1       2.792  -0.583 -30.580  1.00  0.00     0.031 C
HETATM    3  C8  UNL     1       1.419  -1.141 -30.805  1.00  0.00     0.004 C
HETATM    4  C9  UNL     1       0.995  -2.130 -29.757  1.00  0.00     0.026 C
HETATM    5  C10 UNL     1       1.103  -1.603 -28.354  1.00  0.00     0.089 C
HETATM    6  N1  UNL     1       2.419  -1.887 -27.822  1.00  0.00    -0.368 N
ATOM      7  H1  UNL     1       2.574  -2.644 -27.156  1.00  0.00     0.161 HD
HETATM    8  C11 UNL     1       3.387  -1.138 -28.230  1.00  0.00     0.135 C
HETATM    9  C15 UNL     1       0.723  -0.165 -28.248  1.00  0.00     0.039 C
HETATM   10  C18 UNL     1       1.882   0.692 -28.624  1.00  0.00     0.040 C
ENDROOT
BRANCH   1  11
HETATM   11  C5  UNL     1       4.197   0.839 -29.258  1.00  0.00    -0.083 C
HETATM   12  C4  UNL     1       5.138   1.594 -29.296  1.00  0.00    -0.078 C
BRANCH  12  13
HETATM   13  C3  UNL     1       6.246   2.505 -29.323  1.00  0.00     0.060 C
HETATM   14  C2  UNL     1       7.167   2.533 -28.374  1.00  0.00    -0.022 C
HETATM   15  C1  UNL     1       8.306   3.475 -28.408  1.00  0.00     0.036 C
ENDBRANCH  12  13
ENDBRANCH   1  11
BRANCH   8  16
HETATM   16  O1  UNL     1       4.647  -1.365 -27.756  1.00  0.00    -0.333 OA
BRANCH  16  17
HETATM   17  C12 UNL     1       5.526  -2.211 -28.432  1.00  0.00     0.122 C
HETATM   18  C13 UNL     1       6.914  -1.667 -28.587  1.00  0.00     0.040 C
HETATM   19  C14 UNL     1       5.517  -3.584 -27.763  1.00  0.00     0.040 C
ENDBRANCH  16  17
ENDBRANCH   8  16
BRANCH   9  20
HETATM   20  C16 UNL     1       0.217   0.087 -26.847  1.00  0.00     0.120 C
HETATM   21  C17 UNL     1       1.165   1.060 -26.177  1.00  0.00     0.040 C
BRANCH  20  22
HETATM   22  O2  UNL     1       0.179  -1.070 -26.077  1.00  0.00    -0.396 OA
ATOM     23  H2  UNL     1       0.645  -0.977 -25.255  1.00  0.00     0.210 HD
ENDBRANCH  20  22
ENDBRANCH   9  20
TORSDOF 6
ENDMDL