MODEL 2
REMARK VINA RESULT: -6.072581443      2.422      4.959
REMARK  3 active torsions:
REMARK  status: ('A' for Active; 'I' for Inactive)
REMARK    1  A    between atoms: C2_2  and  N1_3
REMARK    2  A    between atoms: C14_15  and  C16_17
REMARK    3  A    between atoms: C16_17  and  O1_18
ROOT
HETATM    1  N1  UNL     1       2.417  -4.624 -26.707  1.00  0.00    -0.384 N
HETATM    2  C3  UNL     1       1.413  -5.621 -26.334  1.00  0.00     0.123 C
HETATM    3  C4  UNL     1       0.484  -4.942 -25.388  1.00  0.00     0.033 C
HETATM    4  C5  UNL     1      -0.178  -3.709 -25.965  1.00  0.00    -0.013 C
HETATM    5  C6  UNL     1      -1.383  -4.230 -26.757  1.00  0.00     0.020 C
HETATM    6  C7  UNL     1      -0.694  -2.957 -24.765  1.00  0.00     0.020 C
HETATM    7  C8  UNL     1       0.748  -2.935 -26.821  1.00  0.00     0.019 C
HETATM    8  C9  UNL     1       1.966  -3.354 -27.175  1.00  0.00     0.018 C
HETATM    9  C10 UNL     1       2.894  -2.600 -28.010  1.00  0.00     0.067 C
HETATM   10  C11 UNL     1       2.490  -1.273 -28.514  1.00  0.00    -0.026 C
HETATM   11  C12 UNL     1       2.912  -1.177 -29.994  1.00  0.00     0.016 C
HETATM   12  C13 UNL     1       3.405  -0.242 -27.831  1.00  0.00     0.016 C
HETATM   13  C14 UNL     1       1.087  -0.858 -28.357  1.00  0.00     0.050 C
HETATM   14  C15 UNL     1       0.265  -1.066 -29.639  1.00  0.00     0.027 C
HETATM   15  C17 UNL     1       0.332  -1.655 -27.333  1.00  0.00     0.169 C
HETATM   16  O2  UNL     1      -0.730  -1.107 -26.941  1.00  0.00    -0.292 OA
ENDROOT
BRANCH  13  17
HETATM   17  C16 UNL     1       0.882   0.595 -27.985  1.00  0.00     0.182 C
BRANCH  17  18
HETATM   18  O1  UNL     1      -0.296   1.149 -28.404  1.00  0.00    -0.400 OA
ATOM     19  H1  UNL     1      -1.035   0.554 -28.447  1.00  0.00     0.209 HD
ENDBRANCH  17  18
ENDBRANCH  13  17
BRANCH   1  20
HETATM   20  C2  UNL     1       3.787  -5.028 -26.570  1.00  0.00     0.118 C
HETATM   21  C1  UNL     1       3.969  -5.570 -25.149  1.00  0.00     0.026 C
ENDBRANCH   1  20
TORSDOF 3
ENDMDL