MODEL 3
REMARK VINA RESULT: -6.746856548      1.288      1.620
REMARK  3 active torsions:
REMARK  status: ('A' for Active; 'I' for Inactive)
REMARK    1  A    between atoms: C2_2  and  N1_3
REMARK    2  A    between atoms: N1_3  and  C3_4
REMARK       I    between atoms: N1_3  and  C5_6
REMARK       I    between atoms: C5_6  and  N2_8
REMARK    3  A    between atoms: N2_8  and  C6_10
ROOT
HETATM    1  C6  UNL     1       2.927  -2.624 -27.637  1.00  0.00     0.114 C
HETATM    2  C7  UNL     1       3.390  -3.996 -27.802  1.00  0.00    -0.005 C
HETATM    3  C8  UNL     1       2.728  -4.994 -27.257  1.00  0.00    -0.027 C
HETATM    4  C9  UNL     1       1.524  -4.734 -26.483  1.00  0.00     0.042 C
HETATM    5  C10 UNL     1       0.713  -3.564 -26.919  1.00  0.00     0.058 C
HETATM    6  S1  UNL     1      -0.049  -2.693 -25.506  1.00  0.00    -0.154 SA
HETATM    7  C11 UNL     1      -0.199  -1.107 -26.424  1.00  0.00     0.002 C
HETATM    8  C12 UNL     1      -0.302   0.032 -25.466  1.00  0.00     0.026 C
HETATM    9  C13 UNL     1      -1.432  -1.227 -27.283  1.00  0.00     0.026 C
HETATM   10  C14 UNL     1       1.070  -1.144 -27.212  1.00  0.00     0.027 C
HETATM   11  C15 UNL     1       1.405  -2.501 -27.645  1.00  0.00     0.027 C
ENDROOT
BRANCH   1  12
HETATM   12  N2  UNL     1       3.441  -1.805 -28.722  1.00  0.00    -0.335 N
HETATM   13  C5  UNL     1       4.332  -0.724 -28.508  1.00  0.00     0.318 C
HETATM   14  N1  UNL     1       4.796   0.037 -29.600  1.00  0.00    -0.335 N
HETATM   15  O1  UNL     1       4.717  -0.434 -27.331  1.00  0.00    -0.247 OA
ATOM     16  H2  UNL     1       3.149  -2.017 -29.676  1.00  0.00     0.165 HD
BRANCH  14  17
HETATM   17  C2  UNL     1       4.364  -0.258 -30.932  1.00  0.00     0.123 C
HETATM   18  C1  UNL     1       2.877  -0.046 -31.138  1.00  0.00     0.026 C
ENDBRANCH  14  17
BRANCH  14  19
HETATM   19  C3  UNL     1       5.725   1.132 -29.350  1.00  0.00     0.123 C
HETATM   20  C4  UNL     1       5.224   2.427 -29.941  1.00  0.00     0.026 C
ENDBRANCH  14  19
ENDBRANCH   1  12
TORSDOF 3
ENDMDL