MODEL 1
REMARK VINA RESULT: -7.675767515      0.000      0.000
REMARK  6 active torsions:
REMARK  status: ('A' for Active; 'I' for Inactive)
REMARK    1  A    between atoms: C5_5  and  C6_6
REMARK    2  A    between atoms: C7_7  and  C9_10
REMARK    3  A    between atoms: C10_11  and  C11_12
REMARK    4  A    between atoms: C11_12  and  O1_15
REMARK    5  A    between atoms: C15_18  and  O2_19
REMARK    6  A    between atoms: O2_19  and  C16_20
ROOT
HETATM    1  C6  UNL     1       7.990  -0.784 -26.456  1.00  0.00     0.043 C
HETATM    2  C7  UNL     1       8.300  -1.974 -26.890  1.00  0.00     0.098 C
HETATM    3  C8  UNL     1       8.232  -2.309 -28.271  1.00  0.00     0.108 C
HETATM    4  N1  UNL     1       8.197  -2.602 -29.414  1.00  0.00    -0.191 NA
ENDROOT
BRANCH   2   5
HETATM    5  C9  UNL     1       8.726  -3.035 -25.989  1.00  0.00    -0.053 C
HETATM    6  C10 UNL     1       9.098  -3.919 -25.254  1.00  0.00    -0.063 C
BRANCH   6   7
HETATM    7  C11 UNL     1       9.572  -5.003 -24.378  1.00  0.00     0.114 C
HETATM    8  C12 UNL     1      11.098  -5.048 -24.386  1.00  0.00     0.060 C
HETATM    9  C13 UNL     1       8.980  -6.294 -24.896  1.00  0.00     0.060 C
BRANCH   7  10
HETATM   10  O1  UNL     1       9.090  -4.701 -23.100  1.00  0.00    -0.378 OA
ATOM     11  H1  UNL     1       9.824  -4.827 -22.509  1.00  0.00     0.211 HD
ENDBRANCH   7  10
ENDBRANCH   6   7
ENDBRANCH   2   5
BRANCH   1  12
HETATM   12  C5  UNL     1       7.547   0.320 -27.292  1.00  0.00    -0.032 A
HETATM   13  C4  UNL     1       8.248   1.526 -27.363  1.00  0.00     0.012 A
HETATM   14  C3  UNL     1       7.788   2.558 -28.143  1.00  0.00     0.010 A
HETATM   15  C2  UNL     1       6.620   2.467 -28.895  1.00  0.00    -0.029 A
HETATM   16  C1  UNL     1       6.171   3.642 -29.702  1.00  0.00     0.051 C
HETATM   17  C15 UNL     1       5.909   1.294 -28.848  1.00  0.00     0.076 A
HETATM   18  C14 UNL     1       6.410   0.236 -28.028  1.00  0.00     0.048 A
BRANCH  17  19
HETATM   19  O2  UNL     1       4.787   1.064 -29.510  1.00  0.00    -0.346 OA
BRANCH  19  20
HETATM   20  C16 UNL     1       3.730   0.294 -29.647  1.00  0.00     0.120 C
HETATM   21  C17 UNL     1       3.406   0.141 -31.148  1.00  0.00     0.040 C
HETATM   22  C18 UNL     1       2.441   0.846 -29.022  1.00  0.00     0.040 C
ENDBRANCH  19  20
ENDBRANCH  17  19
ENDBRANCH   1  12
TORSDOF 6
ENDMDL