MODEL 2
REMARK VINA RESULT: -7.262376636      5.336      9.445
REMARK  3 active torsions:
REMARK  status: ('A' for Active; 'I' for Inactive)
REMARK    1  A    between atoms: C2_2  and  C3_3
REMARK    2  A    between atoms: C12_18  and  C13_19
REMARK    3  A    between atoms: C13_19  and  C14_20
ROOT
HETATM    1  C3  UNL     1       0.976  -1.125 -27.785  1.00  0.00     0.272 C
HETATM    2  C4  UNL     1      -0.260  -1.952 -27.608  1.00  0.00     0.052 A
HETATM    3  N1  UNL     1      -1.573  -1.713 -27.836  1.00  0.00    -0.355 N
ATOM      4  H1  UNL     1      -1.942  -0.835 -28.201  1.00  0.00     0.166 HD
HETATM    5  C5  UNL     1      -2.330  -2.779 -27.522  1.00  0.00     0.063 A
HETATM    6  C6  UNL     1      -3.684  -3.064 -27.560  1.00  0.00     0.058 A
HETATM    7  C7  UNL     1      -4.188  -4.285 -27.162  1.00  0.00     0.024 A
HETATM    8  C8  UNL     1      -5.643  -4.606 -27.198  1.00  0.00     0.070 C
HETATM    9  N2  UNL     1      -3.298  -5.192 -26.730  1.00  0.00    -0.305 N
ATOM     10  H2  UNL     1      -3.628  -6.107 -26.424  1.00  0.00     0.186 HD
HETATM   11  N3  UNL     1      -2.004  -4.926 -26.691  1.00  0.00    -0.298 N
ATOM     12  H3  UNL     1      -1.382  -5.661 -26.354  1.00  0.00     0.187 HD
HETATM   13  C9  UNL     1      -1.447  -3.765 -27.061  1.00  0.00     0.083 A
HETATM   14  C10 UNL     1      -0.195  -3.226 -27.128  1.00  0.00    -0.001 A
HETATM   15  C11 UNL     1       1.119  -3.807 -26.769  1.00  0.00     0.079 C
HETATM   16  C12 UNL     1       2.303  -3.035 -27.134  1.00  0.00     0.228 C
HETATM   17  N4  UNL     1       2.113  -1.918 -28.024  1.00  0.00     0.099 N
HETATM   18  C17 UNL     1       3.289  -1.057 -28.006  1.00  0.00     0.311 C
ENDROOT
BRANCH  16  19
HETATM   19  C13 UNL     1       3.439  -3.849 -27.614  1.00  0.00     0.040 C
BRANCH  19  20
HETATM   20  C14 UNL     1       3.469  -5.298 -27.390  1.00  0.00    -0.021 C
HETATM   21  C15 UNL     1       4.325  -5.577 -26.117  1.00  0.00     0.009 C
HETATM   22  C16 UNL     1       4.040  -6.196 -28.417  1.00  0.00     0.009 C
ENDBRANCH  19  20
ENDBRANCH  16  19
BRANCH   1  23
HETATM   23  C2  UNL     1       0.746  -0.202 -28.984  1.00  0.00     0.038 C
HETATM   24  C1  UNL     1       0.838  -0.930 -30.287  1.00  0.00     0.007 C
ENDBRANCH   1  23
TORSDOF 3
ENDMDL