MODEL 3
REMARK VINA RESULT: -7.829529302      1.294      1.717
REMARK  4 active torsions:
REMARK  status: ('A' for Active; 'I' for Inactive)
REMARK    1  A    between atoms: C2_2  and  C3_3
REMARK    2  A    between atoms: C5_6  and  N1_7
REMARK    3  A    between atoms: N1_7  and  C6_9
REMARK    4  A    between atoms: C6_9  and  C7_10
ROOT
HETATM    1  C7  UNL     1       2.436  -0.675 -28.198  1.00  0.00    -0.043 C
HETATM    2  C8  UNL     1       1.976   0.376 -28.839  1.00  0.00    -0.020 C
HETATM    3  C9  UNL     1       0.484   0.611 -28.961  1.00  0.00     0.033 C
HETATM    4  C10 UNL     1      -0.201  -0.578 -28.372  1.00  0.00     0.001 C
HETATM    5  C11 UNL     1       0.463  -1.882 -28.762  1.00  0.00     0.036 C
HETATM    6  C12 UNL     1       1.448  -1.602 -27.610  1.00  0.00     0.081 C
HETATM    7  C13 UNL     1       1.945  -2.766 -26.939  1.00  0.00     0.074 C
HETATM    8  N2  UNL     1       2.337  -3.704 -26.406  1.00  0.00    -0.196 NA
HETATM    9  C14 UNL     1       0.294  -0.875 -26.960  1.00  0.00    -0.019 C
HETATM   10  C15 UNL     1      -0.624  -1.860 -26.290  1.00  0.00     0.017 C
HETATM   11  C16 UNL     1       0.628   0.306 -26.129  1.00  0.00     0.017 C
ENDROOT
BRANCH   1  12
HETATM   12  C6  UNL     1       3.868  -0.943 -28.055  1.00  0.00     0.157 C
BRANCH  12  13
HETATM   13  N1  UNL     1       4.643  -0.193 -28.991  1.00  0.00    -0.366 N
ATOM     14  H1  UNL     1       4.398  -0.286 -29.977  1.00  0.00     0.161 HD
BRANCH  13  15
HETATM   15  C5  UNL     1       5.622   0.587 -28.705  1.00  0.00     0.145 A
HETATM   16  S1  UNL     1       6.915   0.249 -27.660  1.00  0.00    -0.064 SA
HETATM   17  C4  UNL     1       7.757   1.731 -27.807  1.00  0.00     0.082 A
HETATM   18  C3  UNL     1       6.956   2.417 -28.686  1.00  0.00     0.039 A
HETATM   19  N3  UNL     1       5.884   1.822 -29.127  1.00  0.00    -0.336 N
ATOM     20  H3  UNL     1       5.259   2.293 -29.781  1.00  0.00     0.168 HD
BRANCH  18  21
HETATM   21  C2  UNL     1       7.346   3.795 -29.089  1.00  0.00     0.020 C
HETATM   22  C1  UNL     1       6.553   4.554 -29.799  1.00  0.00     0.013 C
ENDBRANCH  18  21
ENDBRANCH  13  15
ENDBRANCH  12  13
ENDBRANCH   1  12
TORSDOF 4
ENDMDL