MODEL 5
REMARK VINA RESULT: -7.680792543      2.708      5.444
REMARK  3 active torsions:
REMARK  status: ('A' for Active; 'I' for Inactive)
REMARK    1  A    between atoms: O1_2  and  C2_3
REMARK    2  A    between atoms: C7_8  and  O2_9
REMARK    3  A    between atoms: C9_11  and  C10_12
ROOT
HETATM    1  C2  UNL     1       3.600  -0.298 -29.895  1.00  0.00     0.102 A
HETATM    2  C3  UNL     1       4.215   0.929 -30.057  1.00  0.00     0.047 A
HETATM    3  C4  UNL     1       5.262   1.304 -29.268  1.00  0.00    -0.041 A
HETATM    4  C5  UNL     1       5.760   0.481 -28.270  1.00  0.00     0.000 A
HETATM    5  C6  UNL     1       5.145  -0.763 -28.105  1.00  0.00     0.054 A
HETATM    6  C7  UNL     1       4.096  -1.128 -28.897  1.00  0.00     0.102 A
HETATM    7  C9  UNL     1       6.999   0.755 -27.624  1.00  0.00     0.051 C
HETATM    8  N2  UNL     1       7.648   1.813 -28.076  1.00  0.00    -0.384 N
ATOM      9  H2  UNL     1       8.537   2.012 -27.617  1.00  0.00     0.160 HD
HETATM   10  C15 UNL     1       7.284   2.703 -29.104  1.00  0.00     0.082 C
HETATM   11  C16 UNL     1       7.722   4.143 -28.813  1.00  0.00     0.032 C
HETATM   12  C17 UNL     1       5.844   2.634 -29.484  1.00  0.00     0.064 C
ENDROOT
BRANCH   7  13
HETATM   13  C10 UNL     1       7.671  -0.032 -26.596  1.00  0.00     0.014 A
HETATM   14  C11 UNL     1       7.851  -1.447 -26.734  1.00  0.00     0.101 A
HETATM   15  N1  UNL     1       8.691  -1.883 -25.817  1.00  0.00    -0.374 N
HETATM   16  C12 UNL     1       9.119  -0.888 -25.048  1.00  0.00     0.095 A
ATOM     17  H1  UNL     1       8.976  -2.857 -25.712  1.00  0.00     0.164 HD
HETATM   18  C13 UNL     1       8.474   0.275 -25.553  1.00  0.00    -0.033 A
HETATM   19  C14 UNL     1       8.931   1.600 -25.022  1.00  0.00     0.050 C
ENDBRANCH   7  13
BRANCH   6  20
HETATM   20  O2  UNL     1       3.466  -2.360 -28.747  1.00  0.00    -0.353 OA
HETATM   21  C8  UNL     1       2.563  -2.598 -27.668  1.00  0.00     0.210 C
ENDBRANCH   6  20
BRANCH   1  22
HETATM   22  O1  UNL     1       2.537  -0.670 -30.698  1.00  0.00    -0.353 OA
HETATM   23  C1  UNL     1       1.239  -0.276 -30.308  1.00  0.00     0.210 C
ENDBRANCH   1  22
TORSDOF 3
ENDMDL