MODEL 4
REMARK VINA RESULT: -7.069182308      1.776      2.725
REMARK  4 active torsions:
REMARK  status: ('A' for Active; 'I' for Inactive)
REMARK    1  A    between atoms: C2_2  and  C4_4
REMARK    2  A    between atoms: C4_4  and  C5_5
REMARK    3  A    between atoms: C5_5  and  N1_6
REMARK    4  A    between atoms: N1_6  and  C6_8
ROOT
HETATM    1  C6  UNL     1       2.139  -0.509 -29.036  1.00  0.00     0.145 A
HETATM    2  N2  UNL     1       0.868  -0.859 -28.849  1.00  0.00    -0.339 N
ATOM      3  H2  UNL     1       0.109  -0.261 -29.177  1.00  0.00     0.168 HD
HETATM    4  C7  UNL     1       0.612  -1.984 -28.237  1.00  0.00     0.029 A
HETATM    5  C8  UNL     1       1.664  -2.744 -27.820  1.00  0.00     0.031 A
HETATM    6  S1  UNL     1       3.001  -1.817 -28.321  1.00  0.00    -0.055 SA
HETATM    7  C9  UNL     1       1.399  -4.051 -27.110  1.00  0.00     0.117 C
HETATM    8  C10 UNL     1       2.698  -4.423 -26.418  1.00  0.00     0.038 C
HETATM    9  N3  UNL     1       0.401  -3.856 -26.112  1.00  0.00    -0.400 N
HETATM   10  C11 UNL     1       0.009  -5.063 -25.473  1.00  0.00     0.144 C
HETATM   11  C12 UNL     1      -0.644  -2.951 -26.427  1.00  0.00     0.026 C
HETATM   12  C13 UNL     1      -2.019  -3.428 -26.012  1.00  0.00     0.038 C
HETATM   13  C14 UNL     1      -0.387  -1.664 -25.630  1.00  0.00     0.038 C
HETATM   14  C15 UNL     1      -0.735  -2.600 -27.906  1.00  0.00     0.088 C
ENDROOT
BRANCH   1  15
HETATM   15  N1  UNL     1       2.631   0.563 -29.618  1.00  0.00    -0.370 N
ATOM     16  H1  UNL     1       2.593   1.477 -29.167  1.00  0.00     0.161 HD
BRANCH  15  17
HETATM   17  C5  UNL     1       3.227   0.395 -30.920  1.00  0.00     0.122 C
BRANCH  17  18
HETATM   18  C4  UNL     1       4.678   0.799 -30.856  1.00  0.00     0.023 C
BRANCH  18  19
HETATM   19  C2  UNL     1       4.963   1.690 -29.664  1.00  0.00    -0.021 C
HETATM   20  C1  UNL     1       5.367   3.075 -30.074  1.00  0.00     0.009 C
HETATM   21  C3  UNL     1       6.072   1.119 -28.807  1.00  0.00     0.009 C
ENDBRANCH  18  19
ENDBRANCH  17  18
ENDBRANCH  15  17
ENDBRANCH   1  15
TORSDOF 4
ENDMDL