MODEL 1
REMARK VINA RESULT: -6.666543245      0.000      0.000
REMARK  5 active torsions:
REMARK  status: ('A' for Active; 'I' for Inactive)
REMARK    1  A    between atoms: N1_4  and  O1_5
REMARK    2  A    between atoms: C4_7  and  S1_8
REMARK    3  A    between atoms: S1_8  and  C5_9
REMARK    4  A    between atoms: C5_9  and  C7_11
REMARK    5  A    between atoms: C9_15  and  C10_16
ROOT
HETATM    1  C1  UNL     1       5.287   2.815 -30.103  1.00  0.00     0.050 C
HETATM    2  C2  UNL     1       6.024   2.023 -29.117  1.00  0.00    -0.037 A
HETATM    3  C3  UNL     1       7.165   2.473 -28.492  1.00  0.00     0.131 A
HETATM    4  N1  UNL     1       7.855   1.747 -27.584  1.00  0.00    -0.229 N
HETATM    5  C4  UNL     1       7.450   0.525 -27.243  1.00  0.00     0.100 A
HETATM    6  C8  UNL     1       6.304   0.058 -27.862  1.00  0.00     0.048 A
HETATM    7  C9  UNL     1       5.570   0.760 -28.791  1.00  0.00    -0.041 A
ENDROOT
BRANCH   5   8
HETATM    8  S1  UNL     1       8.238  -0.534 -26.056  1.00  0.00    -0.095 SA
BRANCH   8   9
HETATM    9  C5  UNL     1       8.045  -2.276 -26.333  1.00  0.00     0.150 C
HETATM   10  C6  UNL     1       8.358  -3.040 -25.057  1.00  0.00     0.033 C
BRANCH   9  11
HETATM   11  C7  UNL     1       8.949  -2.743 -27.428  1.00  0.00     0.187 C
HETATM   12  O2  UNL     1       9.957  -3.434 -27.136  1.00  0.00    -0.647 OA
HETATM   13  O3  UNL     1       8.684  -2.421 -28.741  1.00  0.00    -0.647 OA
ENDBRANCH   9  11
ENDBRANCH   8   9
ENDBRANCH   5   8
BRANCH   4  14
HETATM   14  O1  UNL     1       8.965   2.299 -27.012  1.00  0.00    -0.282 OA
ATOM     15  H1  UNL     1       9.402   1.824 -26.316  1.00  0.00     0.245 HD
ENDBRANCH   4  14
BRANCH   7  16
HETATM   16  C10 UNL     1       4.369   0.161 -29.370  1.00  0.00    -0.024 C
HETATM   17  C11 UNL     1       4.548  -0.171 -30.836  1.00  0.00     0.019 C
HETATM   18  C12 UNL     1       3.099   0.935 -29.116  1.00  0.00     0.019 C
HETATM   19  C13 UNL     1       4.152  -1.178 -28.684  1.00  0.00     0.019 C
ENDBRANCH   7  16
TORSDOF 5
ENDMDL