MODEL 4
REMARK VINA RESULT: -7.715092587      1.665      5.876
REMARK  5 active torsions:
REMARK  status: ('A' for Active; 'I' for Inactive)
REMARK    1  A    between atoms: C2_2  and  C4_4
REMARK    2  A    between atoms: C6_6  and  O1_7
REMARK    3  A    between atoms: O1_7  and  C7_8
REMARK    4  A    between atoms: C7_8  and  C8_10
REMARK    5  A    between atoms: C17_19  and  O3_20
ROOT
HETATM    1  C4  UNL     1       1.181  -2.669 -27.174  1.00  0.00    -0.044 C
HETATM    2  C5  UNL     1       2.399  -2.274 -27.440  1.00  0.00     0.013 C
HETATM    3  C6  UNL     1       2.998  -1.115 -28.213  1.00  0.00     0.156 C
HETATM    4  C12 UNL     1       2.450   0.132 -27.524  1.00  0.00     0.045 C
HETATM    5  C13 UNL     1       1.029   0.423 -27.884  1.00  0.00     0.013 C
HETATM    6  C14 UNL     1       0.546  -0.324 -29.058  1.00  0.00    -0.025 C
HETATM    7  C15 UNL     1      -0.008  -1.513 -28.940  1.00  0.00    -0.018 C
HETATM    8  C16 UNL     1      -0.143  -2.108 -27.555  1.00  0.00     0.070 C
HETATM    9  C17 UNL     1      -0.541  -1.063 -26.568  1.00  0.00     0.131 C
HETATM   10  C18 UNL     1       0.066   0.282 -26.745  1.00  0.00     0.041 C
ENDROOT
BRANCH   3  11
HETATM   11  O1  UNL     1       4.386  -1.159 -28.191  1.00  0.00    -0.308 OA
BRANCH  11  12
HETATM   12  C7  UNL     1       5.091  -0.695 -29.302  1.00  0.00     0.289 C
HETATM   13  O2  UNL     1       6.249  -1.199 -29.524  1.00  0.00    -0.260 OA
BRANCH  12  14
HETATM   14  C8  UNL     1       4.602   0.305 -30.207  1.00  0.00     0.009 C
HETATM   15  C9  UNL     1       3.615  -0.065 -31.239  1.00  0.00     0.054 C
HETATM   16  C10 UNL     1       5.013   1.553 -30.142  1.00  0.00    -0.018 C
HETATM   17  C11 UNL     1       5.990   2.063 -29.169  1.00  0.00     0.036 C
ENDBRANCH  12  14
ENDBRANCH  11  12
ENDBRANCH   3  11
BRANCH   1  18
HETATM   18  C2  UNL     1       1.100  -3.857 -26.382  1.00  0.00    -0.065 C
HETATM   19  C1  UNL     1      -0.026  -4.438 -25.988  1.00  0.00     0.019 C
HETATM   20  C3  UNL     1       2.385  -4.527 -25.954  1.00  0.00     0.048 C
ENDBRANCH   1  18
BRANCH   9  21
HETATM   21  O3  UNL     1      -0.295  -1.464 -25.241  1.00  0.00    -0.395 OA
ATOM     22  H3  UNL     1      -0.320  -0.733 -24.635  1.00  0.00     0.210 HD
ENDBRANCH   9  21
TORSDOF 5
ENDMDL