MODEL 2
REMARK VINA RESULT: -7.412916408      1.930      2.722
REMARK  6 active torsions:
REMARK  status: ('A' for Active; 'I' for Inactive)
REMARK    1  A    between atoms: N2_5  and  S1_7
REMARK    2  A    between atoms: S1_7  and  N3_10
REMARK    3  A    between atoms: N3_10  and  N4_12
REMARK    4  A    between atoms: N4_12  and  C4_14
REMARK    5  A    between atoms: C4_14  and  N5_16
REMARK    6  A    between atoms: N5_16  and  N6_18
ROOT
HETATM    1  C1  UNL     1      -7.852  28.826   9.451  1.00  0.00     0.020 C
HETATM    2  C2  UNL     1      -8.094  28.248  10.482  1.00  0.00    -0.044 C
HETATM    3  C3  UNL     1      -8.405  27.557  11.699  1.00  0.00     0.180 C
HETATM    4  N1  UNL     1      -9.497  26.660  11.754  1.00  0.00    -0.072 NA
HETATM    5  N2  UNL     1      -7.694  27.755  12.730  1.00  0.00    -0.247 N
ATOM      6  H2  UNL     1      -7.933  27.251  13.584  1.00  0.00     0.182 HD
ENDROOT
BRANCH   5   7
HETATM    7  S1  UNL     1      -6.346  28.826  12.766  1.00  0.00     0.338 S
HETATM    8  O1  UNL     1      -5.379  28.405  11.691  1.00  0.00    -0.181 OA
HETATM    9  O2  UNL     1      -6.833  30.231  12.488  1.00  0.00    -0.181 OA
BRANCH   7  10
HETATM   10  N3  UNL     1      -5.605  28.773  14.256  1.00  0.00    -0.207 N
ATOM     11  H3  UNL     1      -4.793  28.176  14.411  1.00  0.00     0.201 HD
BRANCH  10  12
HETATM   12  N4  UNL     1      -6.101  29.537  15.258  1.00  0.00    -0.264 N
ATOM     13  H4  UNL     1      -5.662  30.434  15.467  1.00  0.00     0.190 HD
BRANCH  12  14
HETATM   14  C4  UNL     1      -7.219  29.114  16.025  1.00  0.00     0.206 C
HETATM   15  S2  UNL     1      -8.722  29.603  15.619  1.00  0.00    -0.038 SA
BRANCH  14  16
HETATM   16  N5  UNL     1      -7.058  28.265  17.152  1.00  0.00    -0.273 N
ATOM     17  H5  UNL     1      -6.507  28.609  17.939  1.00  0.00     0.189 HD
BRANCH  16  18
HETATM   18  N6  UNL     1      -7.604  27.002  17.245  1.00  0.00    -0.274 N
HETATM   19  C5  UNL     1      -6.970  26.008  16.729  1.00  0.00     0.215 C
HETATM   20  N7  UNL     1      -5.726  26.182  16.069  1.00  0.00    -0.065 NA
HETATM   21  N8  UNL     1      -7.517  24.706  16.816  1.00  0.00    -0.065 NA
ATOM     22  H6  UNL     1      -8.498  26.857  17.714  1.00  0.00     0.189 HD
ENDBRANCH  16  18
ENDBRANCH  14  16
ENDBRANCH  12  14
ENDBRANCH  10  12
ENDBRANCH   7  10
ENDBRANCH   5   7
TORSDOF 6
ENDMDL