MODEL 5
REMARK VINA RESULT: -7.182732879      1.670      1.989
REMARK  5 active torsions:
REMARK  status: ('A' for Active; 'I' for Inactive)
REMARK    1  A    between atoms: N1_2  and  N2_4
REMARK       I    between atoms: C2_6  and  N3_7
REMARK       I    between atoms: C2_6  and  N5_14
REMARK    2  A    between atoms: N3_7  and  N4_9
REMARK       I    between atoms: N4_9  and  C3_11
REMARK    3  A    between atoms: N5_14  and  N6_16
REMARK       I    between atoms: N6_16  and  C5_18
REMARK       I    between atoms: C5_18  and  N7_20
REMARK    4  A    between atoms: N7_20  and  C6_22
REMARK    5  A    between atoms: C6_22  and  C7_23
REMARK       I    between atoms: C7_23  and  N8_25
ROOT
HETATM    1  N2  UNL     1      -5.373  33.936   9.491  1.00  0.00    -0.131 N
ATOM      2  H2  UNL     1      -4.639  34.456   9.970  1.00  0.00     0.205 HD
HETATM    3  C2  UNL     1      -5.378  32.657   9.638  1.00  0.00     0.726 C
HETATM    4  N3  UNL     1      -6.321  31.788   9.044  1.00  0.00    -0.127 N
ATOM      5  H3  UNL     1      -7.137  31.478   9.573  1.00  0.00     0.206 HD
HETATM    6  N5  UNL     1      -4.375  32.099  10.473  1.00  0.00    -0.126 N
ATOM      7  H5  UNL     1      -3.437  31.949  10.099  1.00  0.00     0.206 HD
ENDROOT
BRANCH   6   8
HETATM    8  N6  UNL     1      -4.648  31.749  11.809  1.00  0.00    -0.237 N
HETATM    9  C5  UNL     1      -5.212  30.497  12.175  1.00  0.00     0.335 C
HETATM   10  O2  UNL     1      -5.464  29.695  11.260  1.00  0.00    -0.246 OA
HETATM   11  N7  UNL     1      -5.461  30.222  13.540  1.00  0.00    -0.333 N
ATOM     12  H7  UNL     1      -5.240  30.926  14.244  1.00  0.00     0.164 HD
ATOM     13  H6  UNL     1      -4.433  32.422  12.544  1.00  0.00     0.192 HD
BRANCH  11  14
HETATM   14  C6  UNL     1      -6.018  28.964  13.947  1.00  0.00     0.227 C
BRANCH  14  15
HETATM   15  C7  UNL     1      -6.569  29.067  15.318  1.00  0.00     0.237 C
HETATM   16  O3  UNL     1      -6.916  30.196  15.748  1.00  0.00    -0.272 OA
HETATM   17  N8  UNL     1      -6.718  27.941  16.161  1.00  0.00    -0.348 N
HETATM   18  C8  UNL     1      -7.137  27.411  17.448  1.00  0.00     0.145 A
HETATM   19  C9  UNL     1      -6.594  26.520  16.401  1.00  0.00     0.145 A
ENDBRANCH  14  15
ENDBRANCH  11  14
ENDBRANCH   6   8
BRANCH   1  20
HETATM   20  N1  UNL     1      -6.262  34.653   8.751  1.00  0.00    -0.308 N
HETATM   21  C1  UNL     1      -6.159  35.483   7.839  1.00  0.00     0.139 C
ATOM     22  H1  UNL     1      -7.231  34.464   9.007  1.00  0.00     0.185 HD
ENDBRANCH   1  20
BRANCH   4  23
HETATM   23  N4  UNL     1      -6.133  31.358   7.732  1.00  0.00    -0.256 N
HETATM   24  C3  UNL     1      -6.961  31.744   6.653  1.00  0.00     0.232 C
HETATM   25  C4  UNL     1      -6.744  31.280   5.280  1.00  0.00     0.119 C
HETATM   26  O1  UNL     1      -7.933  32.523   6.872  1.00  0.00    -0.272 OA
ATOM     27  H4  UNL     1      -5.353  30.728   7.540  1.00  0.00     0.190 HD
ENDBRANCH   4  23
TORSDOF 5
ENDMDL