MODEL 4
REMARK VINA RESULT: -7.215332333      2.015      2.824
REMARK  9 active torsions:
REMARK  status: ('A' for Active; 'I' for Inactive)
REMARK    1  A    between atoms: C3_3  and  C5_5
REMARK    2  A    between atoms: C5_5  and  N1_6
REMARK       I    between atoms: N1_6  and  C6_8
REMARK       I    between atoms: C6_8  and  N3_10
REMARK    3  A    between atoms: N3_10  and  C7_12
REMARK    4  A    between atoms: C7_12  and  O1_13
REMARK    5  A    between atoms: C7_12  and  C8_15
REMARK       I    between atoms: C8_15  and  N4_17
REMARK    6  A    between atoms: N4_17  and  N5_19
REMARK    7  A    between atoms: N5_19  and  C9_21
REMARK    8  A    between atoms: C9_21  and  N6_23
REMARK    9  A    between atoms: N6_23  and  N7_25
ROOT
HETATM    1  C1  UNL     1      -6.288  34.835  10.361  1.00  0.00     0.012 C
HETATM    2  C2  UNL     1      -6.111  34.193   9.358  1.00  0.00    -0.111 C
HETATM    3  C3  UNL     1      -5.903  33.441   8.125  1.00  0.00     0.078 C
HETATM    4  C4  UNL     1      -7.230  33.263   7.430  1.00  0.00     0.025 C
ENDROOT
BRANCH   3   5
HETATM    5  C5  UNL     1      -5.146  32.176   8.308  1.00  0.00     0.139 C
BRANCH   5   6
HETATM    6  N1  UNL     1      -5.748  30.985   7.801  1.00  0.00    -0.363 N
HETATM    7  C6  UNL     1      -6.265  30.082   8.831  1.00  0.00     0.190 C
HETATM    8  N2  UNL     1      -7.558  29.575   8.507  1.00  0.00    -0.063 NA
HETATM    9  N3  UNL     1      -5.621  29.832   9.836  1.00  0.00    -0.307 N
ATOM     10  H3  UNL     1      -4.733  30.335   9.811  1.00  0.00     0.170 HD
ATOM     11  H1  UNL     1      -5.813  30.781   6.804  1.00  0.00     0.162 HD
BRANCH   9  12
HETATM   12  C7  UNL     1      -5.702  29.108  10.967  1.00  0.00     0.213 C
BRANCH  12  13
HETATM   13  O1  UNL     1      -6.124  27.864  10.846  1.00  0.00    -0.342 OA
ATOM     14  H1  UNL     1      -7.008  27.682  11.141  1.00  0.00     0.219 HD
ENDBRANCH  12  13
BRANCH  12  15
HETATM   15  C8  UNL     1      -5.397  29.473  12.356  1.00  0.00     0.310 C
HETATM   16  O2  UNL     1      -4.969  30.602  12.616  1.00  0.00    -0.262 OA
HETATM   17  N4  UNL     1      -5.599  28.523  13.398  1.00  0.00    -0.261 N
ATOM     18  H4  UNL     1      -5.959  27.607  13.130  1.00  0.00     0.190 HD
BRANCH  17  19
HETATM   19  N5  UNL     1      -5.351  28.735  14.746  1.00  0.00    -0.272 N
ATOM     20  H5  UNL     1      -4.397  28.874  15.080  1.00  0.00     0.189 HD
BRANCH  19  21
HETATM   21  C9  UNL     1      -6.455  28.755  15.665  1.00  0.00     0.205 C
HETATM   22  S1  UNL     1      -6.969  27.344  16.280  1.00  0.00    -0.038 SA
BRANCH  21  23
HETATM   23  N6  UNL     1      -7.059  29.983  16.010  1.00  0.00    -0.282 N
ATOM     24  H6  UNL     1      -6.528  30.854  15.987  1.00  0.00     0.189 HD
BRANCH  23  25
HETATM   25  N7  UNL     1      -8.424  29.970  16.388  1.00  0.00    -0.343 N
ATOM     26  H72 UNL     1      -8.834  30.781  16.850  1.00  0.00     0.176 HD
ATOM     27  H71 UNL     1      -8.969  29.133  16.183  1.00  0.00     0.176 HD
ENDBRANCH  23  25
ENDBRANCH  21  23
ENDBRANCH  19  21
ENDBRANCH  17  19
ENDBRANCH  12  15
ENDBRANCH   9  12
ENDBRANCH   5   6
ENDBRANCH   3   5
TORSDOF 9
ENDMDL