MODEL 2
REMARK VINA RESULT: -7.557248800      1.958      5.123
REMARK  6 active torsions:
REMARK  status: ('A' for Active; 'I' for Inactive)
REMARK       I    between atoms: N1_2  and  C3_4
REMARK       I    between atoms: C3_4  and  N2_6
REMARK    1  A    between atoms: N2_6  and  N3_8
REMARK    2  A    between atoms: N3_8  and  C4_10
REMARK    3  A    between atoms: C4_10  and  N4_12
REMARK    4  A    between atoms: N4_12  and  N5_14
REMARK       I    between atoms: N5_14  and  C5_16
REMARK    5  A    between atoms: C5_16  and  C6_18
REMARK    6  A    between atoms: C6_18  and  N6_19
REMARK       I    between atoms: N6_19  and  C7_21
ROOT
HETATM    1  N4  UNL     1      -5.631  28.484  10.896  1.00  0.00    -0.272 N
ATOM      2  H4  UNL     1      -4.868  28.347  10.232  1.00  0.00     0.189 HD
ENDROOT
BRANCH   1   3
HETATM    3  C4  UNL     1      -5.455  29.290  12.082  1.00  0.00     0.205 C
HETATM    4  S1  UNL     1      -5.352  30.904  11.974  1.00  0.00    -0.038 SA
BRANCH   3   5
HETATM    5  N3  UNL     1      -5.367  28.655  13.338  1.00  0.00    -0.271 N
ATOM      6  H3  UNL     1      -4.564  28.076  13.581  1.00  0.00     0.189 HD
BRANCH   5   7
HETATM    7  N2  UNL     1      -6.425  28.849  14.243  1.00  0.00    -0.249 N
HETATM    8  C3  UNL     1      -6.445  28.058  15.420  1.00  0.00     0.336 C
HETATM    9  N1  UNL     1      -7.507  28.244  16.336  1.00  0.00    -0.342 N
HETATM   10  O1  UNL     1      -5.523  27.215  15.622  1.00  0.00    -0.245 OA
HETATM   11  C1  UNL     1      -7.548  27.447  17.536  1.00  0.00     0.154 C
HETATM   12  C2  UNL     1      -8.541  29.221  16.073  1.00  0.00     0.154 C
ATOM     13  H2  UNL     1      -7.155  29.538  14.059  1.00  0.00     0.192 HD
ENDBRANCH   5   7
ENDBRANCH   3   5
ENDBRANCH   1   3
BRANCH   1  14
HETATM   14  N5  UNL     1      -6.879  27.903  10.691  1.00  0.00    -0.263 N
HETATM   15  C5  UNL     1      -7.817  28.488   9.806  1.00  0.00     0.275 C
HETATM   16  O2  UNL     1      -7.481  29.540   9.225  1.00  0.00    -0.265 OA
ATOM     17  H5  UNL     1      -7.122  27.044  11.186  1.00  0.00     0.190 HD
BRANCH  15  18
HETATM   18  C6  UNL     1      -9.156  27.866   9.579  1.00  0.00     0.166 C
BRANCH  18  19
HETATM   19  N6  UNL     1      -9.912  27.546  10.652  1.00  0.00    -0.338 N
HETATM   20  C7  UNL     1     -10.139  27.409  11.829  1.00  0.00     0.201 C
HETATM   21  N7  UNL     1     -11.451  26.918  12.250  1.00  0.00    -0.067 NA
HETATM   22  N8  UNL     1      -9.272  27.666  12.918  1.00  0.00    -0.067 NA
ATOM     23  H6  UNL     1     -10.789  27.253  10.223  1.00  0.00     0.167 HD
ENDBRANCH  18  19
ENDBRANCH  15  18
ENDBRANCH   1  14
TORSDOF 6
ENDMDL