MODEL 5
REMARK VINA RESULT: -7.532929748      3.015      6.355
REMARK  4 active torsions:
REMARK  status: ('A' for Active; 'I' for Inactive)
REMARK       I    between atoms: N1_2  and  C3_4
REMARK       I    between atoms: C3_4  and  N2_6
REMARK       I    between atoms: N2_6  and  C4_8
REMARK    1  A    between atoms: C4_8  and  C5_10
REMARK    2  A    between atoms: C5_10  and  N3_11
REMARK    3  A    between atoms: C5_10  and  C6_15
REMARK    4  A    between atoms: C6_15  and  N4_16
REMARK       I    between atoms: N4_16  and  C7_18
REMARK       I    between atoms: C7_18  and  N8_26
REMARK       I    between atoms: N5_19  and  C8_21
ROOT
HETATM    1  N4  UNL     1      -5.709  30.097  14.239  1.00  0.00    -0.223 N
ATOM      2  H4  UNL     1      -5.384  30.957  14.681  1.00  0.00     0.177 HD
HETATM    3  C7  UNL     1      -6.679  29.257  14.886  1.00  0.00     0.689 C
HETATM    4  N5  UNL     1      -6.429  28.874  16.061  1.00  0.00    -0.163 N
ATOM      5  H5  UNL     1      -5.554  29.183  16.484  1.00  0.00     0.187 HD
HETATM    6  C8  UNL     1      -7.258  28.064  16.818  1.00  0.00     0.200 C
HETATM    7  N6  UNL     1      -6.838  27.615  17.957  1.00  0.00    -0.373 N
ATOM      8  H61 UNL     1      -7.449  27.018  18.515  1.00  0.00     0.158 HD
ATOM      9  H62 UNL     1      -5.899  27.874  18.257  1.00  0.00     0.158 HD
HETATM   10  N7  UNL     1      -8.547  27.707  16.406  1.00  0.00    -0.063 NA
HETATM   11  N8  UNL     1      -7.864  28.886  14.214  1.00  0.00    -0.126 N
ATOM     12  H8  UNL     1      -7.995  27.919  13.919  1.00  0.00     0.197 HD
HETATM   13  C9  UNL     1      -8.878  29.847  13.945  1.00  0.00     0.196 C
HETATM   14  N9  UNL     1      -9.700  30.629  13.736  1.00  0.00    -0.171 NA
ENDROOT
BRANCH   1  15
HETATM   15  C6  UNL     1      -5.212  29.696  12.959  1.00  0.00     0.180 C
BRANCH  15  16
HETATM   16  C5  UNL     1      -5.227  30.823  11.966  1.00  0.00     0.293 C
BRANCH  16  17
HETATM   17  C4  UNL     1      -5.974  30.418  10.761  1.00  0.00     0.257 C
HETATM   18  N2  UNL     1      -6.937  29.373  10.854  1.00  0.00    -0.277 N
HETATM   19  C3  UNL     1      -7.661  28.965   9.710  1.00  0.00     0.324 C
ATOM     20  H2  UNL     1      -7.106  28.917  11.750  1.00  0.00     0.173 HD
HETATM   21  N1  UNL     1      -8.601  27.932   9.815  1.00  0.00    -0.343 N
HETATM   22  O1  UNL     1      -7.446  29.547   8.596  1.00  0.00    -0.247 OA
HETATM   23  C1  UNL     1      -9.336  27.514   8.655  1.00  0.00     0.154 C
HETATM   24  C2  UNL     1      -8.835  27.287  11.074  1.00  0.00     0.154 C
HETATM   25  O2  UNL     1      -5.760  30.995   9.666  1.00  0.00    -0.271 OA
ENDBRANCH  16  17
BRANCH  16  26
HETATM   26  N3  UNL     1      -5.765  32.025  12.544  1.00  0.00    -0.065 N
ATOM     27  H33 UNL     1      -6.362  31.820  13.344  1.00  0.00     0.275 HD
ATOM     28  H32 UNL     1      -5.043  32.566  13.021  1.00  0.00     0.275 HD
ATOM     29  H31 UNL     1      -6.255  32.589  11.848  1.00  0.00     0.275 HD
ENDBRANCH  16  26
ENDBRANCH  15  16
ENDBRANCH   1  15
TORSDOF 4
ENDMDL