MODEL 1
REMARK VINA RESULT: -6.717714736      0.000      0.000
REMARK  10 active torsions:
REMARK  status: ('A' for Active; 'I' for Inactive)
REMARK    1  A    between atoms: C2_2  and  C3_4
REMARK    2  A    between atoms: C3_4  and  N1_5
REMARK    3  A    between atoms: N1_5  and  C4_7
REMARK    4  A    between atoms: C4_7  and  N2_8
REMARK    5  A    between atoms: C4_7  and  S2_19
REMARK    6  A    between atoms: N2_8  and  N3_10
REMARK    7  A    between atoms: N3_10  and  C5_12
REMARK    8  A    between atoms: C5_12  and  N4_14
REMARK    9  A    between atoms: S2_19  and  N7_20
REMARK   10  A    between atoms: N7_20  and  C7_22
ROOT
HETATM    1  C4  UNL     1      -5.755  30.047  13.649  1.00  0.00     0.176 C
ENDROOT
BRANCH   1   2
HETATM    2  N1  UNL     1      -5.650  28.839  12.972  1.00  0.00    -0.361 N
ATOM      3  H1  UNL     1      -5.547  27.991  13.529  1.00  0.00     0.162 HD
BRANCH   2   4
HETATM    4  C3  UNL     1      -5.676  28.703  11.556  1.00  0.00     0.199 C
BRANCH   4   5
HETATM    5  C2  UNL     1      -7.042  28.281  11.147  1.00  0.00     0.140 C
HETATM    6  C1  UNL     1      -7.688  28.847   9.912  1.00  0.00     0.092 C
HETATM    7  O1  UNL     1      -7.685  27.475  11.784  1.00  0.00    -0.297 OA
ENDBRANCH   4   5
ENDBRANCH   2   4
ENDBRANCH   1   2
BRANCH   1   8
HETATM    8  N2  UNL     1      -5.650  30.004  15.104  1.00  0.00    -0.277 N
ATOM      9  H2  UNL     1      -4.728  29.980  15.540  1.00  0.00     0.189 HD
BRANCH   8  10
HETATM   10  N3  UNL     1      -6.784  29.994  15.905  1.00  0.00    -0.274 N
ATOM     11  H3  UNL     1      -6.957  30.799  16.508  1.00  0.00     0.189 HD
BRANCH  10  12
HETATM   12  C5  UNL     1      -7.713  28.926  15.928  1.00  0.00     0.192 C
HETATM   13  S1  UNL     1      -8.979  28.872  14.904  1.00  0.00    -0.039 SA
BRANCH  12  14
HETATM   14  N4  UNL     1      -7.566  27.849  16.859  1.00  0.00    -0.309 N
HETATM   15  C6  UNL     1      -6.629  26.961  16.682  1.00  0.00     0.203 C
HETATM   16  N5  UNL     1      -5.754  27.059  15.570  1.00  0.00    -0.066 NA
HETATM   17  N6  UNL     1      -6.485  25.893  17.608  1.00  0.00    -0.066 NA
ATOM     18  H4  UNL     1      -8.193  27.776  17.660  1.00  0.00     0.170 HD
ENDBRANCH  12  14
ENDBRANCH  10  12
ENDBRANCH   8  10
ENDBRANCH   1   8
BRANCH   1  19
HETATM   19  S2  UNL     1      -6.063  31.466  13.003  1.00  0.00     0.026 SA
BRANCH  19  20
HETATM   20  N7  UNL     1      -4.916  32.317  11.968  1.00  0.00    -0.301 N
ATOM     21  H7  UNL     1      -4.256  32.969  12.391  1.00  0.00     0.176 HD
BRANCH  20  22
HETATM   22  C7  UNL     1      -4.889  32.141  10.714  1.00  0.00     0.359 C
HETATM   23  O2  UNL     1      -4.466  31.780   9.585  1.00  0.00    -0.283 OA
ENDBRANCH  20  22
ENDBRANCH  19  20
ENDBRANCH   1  19
TORSDOF 10
ENDMDL