MODEL 4
REMARK VINA RESULT: -7.094808459      1.346      1.558
REMARK  6 active torsions:
REMARK  status: ('A' for Active; 'I' for Inactive)
REMARK    1  A    between atoms: C2_2  and  N1_3
REMARK       I    between atoms: C3_5  and  N2_6
REMARK       I    between atoms: C3_5  and  N8_20
REMARK    2  A    between atoms: N2_6  and  N3_8
REMARK    3  A    between atoms: C4_10  and  N4_11
REMARK    4  A    between atoms: N4_11  and  C5_13
REMARK    5  A    between atoms: C5_13  and  N5_15
REMARK    6  A    between atoms: N8_20  and  C7_22
ROOT
HETATM    1  N1  UNL     1      -5.076  32.745  12.007  1.00  0.00    -0.225 N
ATOM      2  H1  UNL     1      -4.401  32.973  12.736  1.00  0.00     0.177 HD
HETATM    3  C3  UNL     1      -5.337  31.505  11.812  1.00  0.00     0.694 C
HETATM    4  N2  UNL     1      -4.675  30.554  12.614  1.00  0.00    -0.131 N
ATOM      5  H2  UNL     1      -3.727  30.735  12.945  1.00  0.00     0.205 HD
HETATM    6  N8  UNL     1      -6.282  31.158  10.794  1.00  0.00    -0.167 N
ATOM      7  H8  UNL     1      -7.270  31.104  11.037  1.00  0.00     0.186 HD
ENDROOT
BRANCH   4   8
HETATM    8  N3  UNL     1      -5.316  29.367  12.952  1.00  0.00    -0.282 N
HETATM    9  C4  UNL     1      -5.757  29.249  14.156  1.00  0.00     0.200 C
ATOM     10  H3  UNL     1      -5.434  28.617  12.270  1.00  0.00     0.188 HD
BRANCH   9  11
HETATM   11  N4  UNL     1      -6.414  28.050  14.525  1.00  0.00    -0.328 N
ATOM     12  H4  UNL     1      -6.391  27.234  13.914  1.00  0.00     0.169 HD
BRANCH  11  13
HETATM   13  C5  UNL     1      -7.101  28.008  15.758  1.00  0.00     0.178 C
HETATM   14  S1  UNL     1      -8.462  28.887  15.958  1.00  0.00    -0.040 SA
BRANCH  13  15
HETATM   15  N5  UNL     1      -6.579  27.189  16.805  1.00  0.00    -0.310 N
HETATM   16  C6  UNL     1      -6.581  25.900  16.668  1.00  0.00     0.203 C
HETATM   17  N6  UNL     1      -6.061  25.052  17.706  1.00  0.00    -0.066 NA
HETATM   18  N7  UNL     1      -7.095  25.318  15.494  1.00  0.00    -0.066 NA
ATOM     19  H5  UNL     1      -6.206  27.615  17.653  1.00  0.00     0.170 HD
ENDBRANCH  13  15
ENDBRANCH  11  13
ENDBRANCH   9  11
ENDBRANCH   4   8
BRANCH   1  20
HETATM   20  C2  UNL     1      -5.656  33.835  11.286  1.00  0.00     0.134 C
HETATM   21  C1  UNL     1      -5.963  34.947  12.275  1.00  0.00     0.027 C
ENDBRANCH   1  20
BRANCH   6  22
HETATM   22  C7  UNL     1      -5.890  30.887   9.463  1.00  0.00     0.199 C
HETATM   23  N9  UNL     1      -4.661  31.394   8.969  1.00  0.00    -0.069 NA
HETATM   24  S2  UNL     1      -6.856  29.997   8.508  1.00  0.00    -0.044 SA
ENDBRANCH   6  22
TORSDOF 6
ENDMDL