MODEL 1
REMARK VINA RESULT: -6.262384585      0.000      0.000
REMARK  8 active torsions:
REMARK  status: ('A' for Active; 'I' for Inactive)
REMARK    1  A    between atoms: S1_2  and  C2_4
REMARK    2  A    between atoms: C2_4  and  C3_5
REMARK    3  A    between atoms: C3_5  and  N2_9
REMARK    4  A    between atoms: N2_9  and  N3_11
REMARK    5  A    between atoms: N3_11  and  C4_13
REMARK    6  A    between atoms: C4_13  and  N4_15
REMARK    7  A    between atoms: N4_15  and  N5_17
REMARK    8  A    between atoms: N5_17  and  C5_19
ROOT
HETATM    1  N3  UNL     1      -7.142  30.233  16.039  1.00  0.00    -0.274 N
ATOM      2  H3  UNL     1      -7.276  31.149  16.466  1.00  0.00     0.189 HD
ENDROOT
BRANCH   1   3
HETATM    3  N2  UNL     1      -5.963  29.961  15.351  1.00  0.00    -0.286 N
ATOM      4  H2  UNL     1      -5.108  29.773  15.874  1.00  0.00     0.188 HD
BRANCH   3   5
HETATM    5  C3  UNL     1      -5.933  29.941  13.924  1.00  0.00     0.101 C
HETATM    6  N1  UNL     1      -5.514  28.857  13.366  1.00  0.00    -0.387 N
ATOM      7  H12 UNL     1      -5.493  28.843  12.347  1.00  0.00     0.157 HD
ATOM      8  H11 UNL     1      -5.216  28.049  13.913  1.00  0.00     0.157 HD
BRANCH   5   9
HETATM    9  C2  UNL     1      -6.364  31.108  13.135  1.00  0.00     0.185 C
BRANCH   9  10
HETATM   10  S1  UNL     1      -5.190  31.543  11.883  1.00  0.00     0.018 S
HETATM   11  C1  UNL     1      -5.720  31.067  10.275  1.00  0.00     0.127 C
HETATM   12  O1  UNL     1      -4.795  33.172  11.935  1.00  0.00    -0.258 OA
ENDBRANCH   9  10
ENDBRANCH   5   9
ENDBRANCH   3   5
ENDBRANCH   1   3
BRANCH   1  13
HETATM   13  C4  UNL     1      -8.156  29.251  16.154  1.00  0.00     0.205 C
HETATM   14  S2  UNL     1      -9.256  29.132  14.957  1.00  0.00    -0.038 SA
BRANCH  13  15
HETATM   15  N4  UNL     1      -8.233  28.384  17.269  1.00  0.00    -0.273 N
ATOM     16  H4  UNL     1      -9.101  28.305  17.800  1.00  0.00     0.189 HD
BRANCH  15  17
HETATM   17  N5  UNL     1      -7.122  27.644  17.635  1.00  0.00    -0.276 N
ATOM     18  H5  UNL     1      -6.685  27.799  18.543  1.00  0.00     0.189 HD
BRANCH  17  19
HETATM   19  C5  UNL     1      -6.590  26.673  16.753  1.00  0.00     0.199 C
HETATM   20  N6  UNL     1      -5.591  27.032  15.834  1.00  0.00    -0.068 NA
HETATM   21  S3  UNL     1      -7.103  25.120  16.763  1.00  0.00    -0.043 SA
ENDBRANCH  17  19
ENDBRANCH  15  17
ENDBRANCH  13  15
ENDBRANCH   1  13
TORSDOF 8
ENDMDL