MODEL 2
REMARK VINA RESULT: -6.302199767      3.482      6.121
REMARK  6 active torsions:
REMARK  status: ('A' for Active; 'I' for Inactive)
REMARK    1  A    between atoms: C3_3  and  C4_4
REMARK    2  A    between atoms: C5_5  and  O1_6
REMARK    3  A    between atoms: O1_6  and  C6_7
REMARK    4  A    between atoms: C8_9  and  N1_10
REMARK    5  A    between atoms: C9_14  and  N2_15
REMARK    6  A    between atoms: C11_20  and  N5_21
ROOT
HETATM    1  C1  UNL     1      -5.220  36.076  11.936  1.00  0.00     0.113 C
HETATM    2  C2  UNL     1      -5.305  34.628  12.091  1.00  0.00    -0.097 C
HETATM    3  C3  UNL     1      -5.356  33.428  12.225  1.00  0.00    -0.013 C
ENDROOT
BRANCH   3   4
HETATM    4  C4  UNL     1      -5.408  32.021  12.407  1.00  0.00     0.015 C
HETATM    5  C5  UNL     1      -5.464  30.830  12.579  1.00  0.00     0.069 C
BRANCH   5   6
HETATM    6  O1  UNL     1      -5.531  29.463  12.800  1.00  0.00    -0.295 OA
BRANCH   6   7
HETATM    7  C6  UNL     1      -6.235  28.701  11.883  1.00  0.00     0.167 C
HETATM    8  C7  UNL     1      -6.672  29.447  10.650  1.00  0.00     0.070 C
HETATM    9  C8  UNL     1      -7.987  28.835  10.214  1.00  0.00     0.210 C
HETATM   10  C9  UNL     1      -8.149  27.637  11.116  1.00  0.00     0.139 C
HETATM   11  C11 UNL     1      -7.586  28.216  12.425  1.00  0.00     0.139 C
BRANCH   9  12
HETATM   12  N1  UNL     1      -7.965  28.465   8.813  1.00  0.00    -0.073 N
ATOM     13  H13 UNL     1      -7.498  29.173   8.248  1.00  0.00     0.274 HD
ATOM     14  H12 UNL     1      -7.331  27.683   8.644  1.00  0.00     0.274 HD
ATOM     15  H11 UNL     1      -8.901  28.266   8.462  1.00  0.00     0.274 HD
ENDBRANCH   9  12
BRANCH  10  16
HETATM   16  N2  UNL     1      -9.494  27.193  11.257  1.00  0.00    -0.358 N
HETATM   17  C10 UNL     1      -9.708  25.962  11.580  1.00  0.00     0.197 C
HETATM   18  N3  UNL     1      -8.668  25.020  11.806  1.00  0.00    -0.067 NA
HETATM   19  N4  UNL     1     -11.060  25.543  11.715  1.00  0.00    -0.067 NA
ATOM     20  H2  UNL     1     -10.272  27.834  11.105  1.00  0.00     0.162 HD
ENDBRANCH  10  16
BRANCH  11  21
HETATM   21  N5  UNL     1      -8.438  29.306  12.787  1.00  0.00    -0.358 N
HETATM   22  C12 UNL     1      -9.101  29.442  13.849  1.00  0.00     0.197 C
HETATM   23  N6  UNL     1      -9.899  30.593  14.045  1.00  0.00    -0.067 NA
HETATM   24  N7  UNL     1      -9.068  28.459  14.864  1.00  0.00    -0.067 NA
ATOM     25  H5  UNL     1      -8.518  30.062  12.106  1.00  0.00     0.162 HD
ENDBRANCH  11  21
ENDBRANCH   6   7
ENDBRANCH   5   6
ENDBRANCH   3   4
TORSDOF 6
ENDMDL