MODEL 1
REMARK VINA RESULT: -7.494736161      0.000      0.000
REMARK  6 active torsions:
REMARK  status: ('A' for Active; 'I' for Inactive)
REMARK    1  A    between atoms: C4_4  and  C5_5
REMARK    2  A    between atoms: C5_5  and  N1_6
REMARK       I    between atoms: N1_6  and  C6_8
REMARK       I    between atoms: C6_8  and  N3_12
REMARK    3  A    between atoms: N3_12  and  N4_14
REMARK       I    between atoms: N4_14  and  C7_16
REMARK    4  A    between atoms: C7_16  and  C8_18
REMARK    5  A    between atoms: C8_18  and  N5_19
REMARK       I    between atoms: N5_19  and  C9_21
REMARK    6  A    between atoms: C9_21  and  C10_23
REMARK       I    between atoms: C10_23  and  N6_25
ROOT
HETATM    1  C1  UNL     1     -11.893  24.921   7.171  1.00  0.00     0.027 C
HETATM    2  C2  UNL     1     -11.090  25.821   6.994  1.00  0.00    -0.026 C
HETATM    3  C3  UNL     1     -10.150  26.864   6.799  1.00  0.00    -0.014 C
HETATM    4  C4  UNL     1      -9.353  27.757   6.618  1.00  0.00    -0.072 C
ENDROOT
BRANCH   4   5
HETATM    5  C5  UNL     1      -8.379  28.835   6.388  1.00  0.00     0.233 C
BRANCH   5   6
HETATM    6  N1  UNL     1      -7.408  28.811   7.468  1.00  0.00    -0.215 N
HETATM    7  C6  UNL     1      -6.756  29.974   7.959  1.00  0.00     0.687 C
HETATM    8  N2  UNL     1      -7.199  31.109   7.612  1.00  0.00    -0.234 N
HETATM    9  N3  UNL     1      -5.650  29.812   8.813  1.00  0.00    -0.130 N
ATOM     10  H22 UNL     1      -8.001  31.227   6.993  1.00  0.00     0.174 HD
ATOM     11  H21 UNL     1      -6.730  31.943   7.965  1.00  0.00     0.174 HD
ATOM     12  H3  UNL     1      -4.855  29.288   8.447  1.00  0.00     0.205 HD
ATOM     13  H1  UNL     1      -7.183  27.913   7.895  1.00  0.00     0.178 HD
BRANCH   9  14
HETATM   14  N4  UNL     1      -5.541  30.301  10.114  1.00  0.00    -0.254 N
HETATM   15  C7  UNL     1      -5.449  29.383  11.190  1.00  0.00     0.254 C
HETATM   16  O1  UNL     1      -5.468  28.158  10.959  1.00  0.00    -0.270 OA
ATOM     17  H4  UNL     1      -5.526  31.306  10.289  1.00  0.00     0.190 HD
BRANCH  15  18
HETATM   18  C8  UNL     1      -5.333  29.851  12.597  1.00  0.00     0.227 C
BRANCH  18  19
HETATM   19  N5  UNL     1      -5.674  28.834  13.557  1.00  0.00    -0.344 N
HETATM   20  C9  UNL     1      -5.855  29.142  14.915  1.00  0.00     0.309 C
HETATM   21  O2  UNL     1      -5.734  30.311  15.337  1.00  0.00    -0.262 OA
ATOM     22  H5  UNL     1      -5.787  27.869  13.244  1.00  0.00     0.163 HD
BRANCH  20  23
HETATM   23  C10 UNL     1      -6.192  28.078  15.885  1.00  0.00     0.308 C
HETATM   24  O3  UNL     1      -5.586  26.980  15.734  1.00  0.00    -0.262 OA
HETATM   25  N6  UNL     1      -7.136  28.327  16.894  1.00  0.00    -0.357 N
HETATM   26  C11 UNL     1      -7.472  27.299  17.843  1.00  0.00     0.149 C
ATOM     27  H6  UNL     1      -7.586  29.241  16.954  1.00  0.00     0.162 HD
ENDBRANCH  20  23
ENDBRANCH  18  19
ENDBRANCH  15  18
ENDBRANCH   9  14
ENDBRANCH   5   6
ENDBRANCH   4   5
TORSDOF 6
ENDMDL