MODEL 3
REMARK VINA RESULT: -7.756110672      2.031      6.721
REMARK  11 active torsions:
REMARK  status: ('A' for Active; 'I' for Inactive)
REMARK    1  A    between atoms: C2_2  and  C3_3
REMARK    2  A    between atoms: C3_3  and  C4_4
REMARK    3  A    between atoms: C4_4  and  O1_5
REMARK    4  A    between atoms: O1_5  and  N1_6
REMARK       I    between atoms: C5_8  and  N2_9
REMARK       I    between atoms: C5_8  and  N4_13
REMARK    5  A    between atoms: N4_13  and  C7_15
REMARK    6  A    between atoms: C9_17  and  O2_18
REMARK    7  A    between atoms: O2_18  and  C10_19
REMARK    8  A    between atoms: C13_26  and  O3_27
REMARK    9  A    between atoms: O3_27  and  C14_28
REMARK   10  A    between atoms: C14_28  and  C15_30
REMARK   11  A    between atoms: C15_30  and  N7_31
REMARK       I    between atoms: N7_31  and  C16_33
REMARK       I    between atoms: C16_33  and  N8_35
ROOT
HETATM    1  N1  UNL     1      -4.284 -22.578 -88.523  1.00  0.00    -0.096 N
ATOM      2  H1  UNL     1      -3.398 -22.729 -88.042  1.00  0.00     0.213 HD
HETATM    3  C5  UNL     1      -4.765 -23.554 -89.215  1.00  0.00     0.707 C
HETATM    4  N2  UNL     1      -4.041 -24.766 -89.268  1.00  0.00    -0.124 N
ATOM      5  H2  UNL     1      -4.232 -25.440 -90.010  1.00  0.00     0.197 HD
HETATM    6  C6  UNL     1      -3.058 -25.050 -88.300  1.00  0.00     0.196 C
HETATM    7  N3  UNL     1      -2.262 -25.292 -87.519  1.00  0.00    -0.171 NA
HETATM    8  N4  UNL     1      -5.987 -23.438 -89.928  1.00  0.00    -0.216 N
ATOM      9  H4  UNL     1      -6.082 -22.655 -90.575  1.00  0.00     0.178 HD
ENDROOT
BRANCH   1  10
HETATM   10  O1  UNL     1      -4.881 -21.357 -88.391  1.00  0.00    -0.266 OA
BRANCH  10  11
HETATM   11  C4  UNL     1      -4.258 -20.215 -88.950  1.00  0.00     0.202 C
BRANCH  11  12
HETATM   12  C3  UNL     1      -4.211 -20.301 -90.458  1.00  0.00     0.028 C
BRANCH  12  13
HETATM   13  C2  UNL     1      -4.384 -18.903 -91.010  1.00  0.00    -0.002 C
HETATM   14  C1  UNL     1      -3.398 -18.720 -92.139  1.00  0.00     0.005 C
ENDBRANCH  12  13
ENDBRANCH  11  12
ENDBRANCH  10  11
ENDBRANCH   1  10
BRANCH   8  15
HETATM   15  C7  UNL     1      -7.106 -24.341 -89.809  1.00  0.00     0.135 C
HETATM   16  C8  UNL     1      -7.412 -24.478 -88.336  1.00  0.00     0.065 C
HETATM   17  C9  UNL     1      -8.546 -25.442 -88.109  1.00  0.00     0.156 C
HETATM   18  C11 UNL     1      -8.323 -26.722 -88.873  1.00  0.00     0.004 C
HETATM   19  C12 UNL     1      -7.545 -26.785 -89.909  1.00  0.00     0.006 C
HETATM   20  C13 UNL     1      -6.785 -25.626 -90.471  1.00  0.00     0.177 C
BRANCH  17  21
HETATM   21  O2  UNL     1      -8.791 -25.675 -86.761  1.00  0.00    -0.315 OA
BRANCH  21  22
HETATM   22  C10 UNL     1      -8.096 -26.658 -86.039  1.00  0.00     0.225 C
HETATM   23  N5  UNL     1      -8.678 -27.812 -86.009  1.00  0.00    -0.368 N
ATOM     24  H52 UNL     1      -9.569 -27.996 -86.471  1.00  0.00     0.159 HD
ATOM     25  H51 UNL     1      -8.173 -28.526 -85.485  1.00  0.00     0.159 HD
HETATM   26  N6  UNL     1      -6.857 -26.401 -85.396  1.00  0.00    -0.057 NA
ENDBRANCH  21  22
ENDBRANCH  17  21
BRANCH  20  27
HETATM   27  O3  UNL     1      -7.045 -25.667 -91.866  1.00  0.00    -0.309 OA
BRANCH  27  28
HETATM   28  C14 UNL     1      -8.250 -25.303 -92.411  1.00  0.00     0.277 C
HETATM   29  O4  UNL     1      -9.079 -26.216 -92.681  1.00  0.00    -0.263 OA
BRANCH  28  30
HETATM   30  C15 UNL     1      -8.649 -23.911 -92.707  1.00  0.00     0.235 C
BRANCH  30  31
HETATM   31  N7  UNL     1      -9.296 -23.805 -93.983  1.00  0.00    -0.333 N
HETATM   32  C16 UNL     1      -8.515 -23.869 -95.165  1.00  0.00     0.329 C
HETATM   33  O5  UNL     1      -7.281 -24.016 -95.123  1.00  0.00    -0.246 OA
HETATM   34  N8  UNL     1      -9.151 -23.765 -96.451  1.00  0.00    -0.245 N
HETATM   35  C17 UNL     1      -8.407 -23.825 -97.629  1.00  0.00     0.185 C
ATOM     36  H8  UNL     1     -10.163 -23.646 -96.502  1.00  0.00     0.183 HD
HETATM   37  N9  UNL     1      -7.779 -23.856 -98.619  1.00  0.00    -0.172 NA
ATOM     38  H7  UNL     1     -10.307 -23.685 -94.039  1.00  0.00     0.164 HD
ENDBRANCH  30  31
ENDBRANCH  28  30
ENDBRANCH  27  28
ENDBRANCH  20  27
ENDBRANCH   8  15
TORSDOF 11
ENDMDL