MODEL 4
REMARK VINA RESULT: -7.180080533      3.964      6.892
REMARK  15 active torsions:
REMARK  status: ('A' for Active; 'I' for Inactive)
REMARK    1  A    between atoms: C2_2  and  C3_3
REMARK    2  A    between atoms: C3_3  and  C5_5
REMARK    3  A    between atoms: C5_5  and  C6_6
REMARK    4  A    between atoms: C5_5  and  C20_33
REMARK       I    between atoms: C6_6  and  N1_8
REMARK    5  A    between atoms: N1_8  and  C7_10
REMARK    6  A    between atoms: C7_10  and  C8_11
REMARK    7  A    between atoms: C9_13  and  O3_14
REMARK    8  A    between atoms: O3_14  and  C10_15
REMARK    9  A    between atoms: C10_15  and  C11_16
REMARK   10  A    between atoms: C14_19  and  O4_20
REMARK   11  A    between atoms: C17_24  and  O5_25
REMARK   12  A    between atoms: C18_27  and  O6_28
REMARK   13  A    between atoms: C19_30  and  O7_31
REMARK   14  A    between atoms: C20_33  and  O8_34
REMARK   15  A    between atoms: C20_33  and  O9_36
ROOT
HETATM    1  C8  UNL     1      -7.224 -25.808 -88.785  1.00  0.00     0.096 C
HETATM    2  O2  UNL     1      -6.786 -27.096 -88.619  1.00  0.00    -0.318 OA
HETATM    3  C9  UNL     1      -6.972 -27.655 -87.393  1.00  0.00     0.297 C
HETATM    4  C17 UNL     1      -8.103 -27.165 -86.577  1.00  0.00     0.205 C
HETATM    5  C18 UNL     1      -8.473 -25.740 -86.751  1.00  0.00     0.187 C
HETATM    6  C19 UNL     1      -8.582 -25.518 -88.292  1.00  0.00     0.207 C
ENDROOT
BRANCH   1   7
HETATM    7  C7  UNL     1      -6.874 -25.236 -90.100  1.00  0.00     0.126 C
BRANCH   7   8
HETATM    8  N1  UNL     1      -6.262 -23.975 -90.198  1.00  0.00    -0.334 N
HETATM    9  C6  UNL     1      -4.965 -23.515 -89.952  1.00  0.00     0.230 C
HETATM   10  O1  UNL     1      -4.064 -24.279 -89.568  1.00  0.00    -0.273 OA
ATOM     11  H1  UNL     1      -6.897 -23.243 -90.516  1.00  0.00     0.168 HD
BRANCH   9  12
HETATM   12  C5  UNL     1      -4.583 -22.069 -90.137  1.00  0.00     0.137 C
BRANCH  12  13
HETATM   13  C3  UNL     1      -4.969 -21.599 -91.516  1.00  0.00    -0.001 C
HETATM   14  C4  UNL     1      -4.983 -20.115 -91.651  1.00  0.00     0.011 C
BRANCH  13  15
HETATM   15  C2  UNL     1      -4.143 -22.291 -92.548  1.00  0.00     0.001 C
HETATM   16  C1  UNL     1      -5.001 -22.652 -93.769  1.00  0.00     0.005 C
ENDBRANCH  13  15
ENDBRANCH  12  13
BRANCH  12  17
HETATM   17  C20 UNL     1      -5.180 -21.293 -89.014  1.00  0.00     0.269 C
BRANCH  17  18
HETATM   18  O8  UNL     1      -4.432 -21.685 -87.858  1.00  0.00    -0.370 OA
ATOM     19  H8  UNL     1      -4.999 -22.291 -87.396  1.00  0.00     0.212 HD
ENDBRANCH  17  18
BRANCH  17  20
HETATM   20  O9  UNL     1      -6.524 -21.570 -88.784  1.00  0.00    -0.365 OA
HETATM   21  C21 UNL     1      -6.879 -21.679 -87.466  1.00  0.00     0.204 C
ENDBRANCH  17  20
ENDBRANCH  12  17
ENDBRANCH   9  12
ENDBRANCH   7   8
ENDBRANCH   1   7
BRANCH   6  22
HETATM   22  O7  UNL     1      -8.965 -24.197 -88.514  1.00  0.00    -0.386 OA
ATOM     23  H7  UNL     1      -9.517 -24.097 -89.281  1.00  0.00     0.210 HD
ENDBRANCH   6  22
BRANCH   3  24
HETATM   24  O3  UNL     1      -5.778 -27.563 -86.679  1.00  0.00    -0.357 OA
BRANCH  24  25
HETATM   25  C10 UNL     1      -4.674 -27.952 -87.439  1.00  0.00     0.179 C
BRANCH  25  26
HETATM   26  C11 UNL     1      -3.556 -26.965 -87.217  1.00  0.00     0.032 C
HETATM   27  C12 UNL     1      -2.893 -27.225 -85.912  1.00  0.00    -0.021 C
HETATM   28  C13 UNL     1      -1.805 -26.503 -85.642  1.00  0.00     0.001 C
HETATM   29  C14 UNL     1      -1.403 -25.521 -86.711  1.00  0.00     0.140 C
HETATM   30  C15 UNL     1      -1.296 -26.297 -88.008  1.00  0.00     0.036 C
HETATM   31  C16 UNL     1      -2.499 -27.139 -88.290  1.00  0.00     0.013 C
BRANCH  29  32
HETATM   32  O4  UNL     1      -0.181 -25.005 -86.344  1.00  0.00    -0.392 OA
ATOM     33  H4  UNL     1       0.427 -25.207 -87.045  1.00  0.00     0.210 HD
ENDBRANCH  29  32
ENDBRANCH  25  26
ENDBRANCH  24  25
ENDBRANCH   3  24
BRANCH   5  34
HETATM   34  O6  UNL     1      -7.495 -24.881 -86.305  1.00  0.00    -0.390 OA
ATOM     35  H6  UNL     1      -7.838 -24.024 -86.079  1.00  0.00     0.210 HD
ENDBRANCH   5  34
BRANCH   4  36
HETATM   36  O5  UNL     1      -7.847 -27.370 -85.207  1.00  0.00    -0.388 OA
ATOM     37  H5  UNL     1      -8.625 -27.186 -84.693  1.00  0.00     0.210 HD
ENDBRANCH   4  36
TORSDOF 15
ENDMDL