MODEL 5
REMARK VINA RESULT: -7.541474003      2.706      3.766
REMARK  11 active torsions:
REMARK  status: ('A' for Active; 'I' for Inactive)
REMARK    1  A    between atoms: C2_2  and  N1_3
REMARK       I    between atoms: N1_3  and  C3_5
REMARK    2  A    between atoms: C3_5  and  C4_7
REMARK    3  A    between atoms: C5_8  and  N2_9
REMARK    4  A    between atoms: N2_9  and  C6_11
REMARK    5  A    between atoms: C6_11  and  C7_12
REMARK    6  A    between atoms: C7_12  and  C8_13
REMARK    7  A    between atoms: C7_12  and  S1_26
REMARK    8  A    between atoms: C8_13  and  C9_15
REMARK    9  A    between atoms: C9_15  and  O3_16
REMARK   10  A    between atoms: C9_15  and  N3_18
REMARK   11  A    between atoms: N3_18  and  C10_20
ROOT
HETATM    1  C6  UNL     1      -7.198 -27.053 -89.104  1.00  0.00     0.150 C
ENDROOT
BRANCH   1   2
HETATM    2  N2  UNL     1      -7.520 -26.611 -90.401  1.00  0.00    -0.391 N
ATOM      3  H2  UNL     1      -7.624 -25.609 -90.566  1.00  0.00     0.159 HD
BRANCH   2   4
HETATM    4  C5  UNL     1      -7.700 -27.471 -91.453  1.00  0.00     0.021 C
HETATM    5  C4  UNL     1      -8.362 -27.176 -92.732  1.00  0.00     0.062 C
HETATM    6  C20 UNL     1      -7.908 -28.186 -93.748  1.00  0.00     0.226 C
HETATM    7  C19 UNL     1      -6.460 -28.554 -93.697  1.00  0.00     0.040 C
HETATM    8  N4  UNL     1      -8.508 -29.487 -93.318  1.00  0.00    -0.062 N
HETATM    9  C18 UNL     1      -6.344 -29.612 -92.614  1.00  0.00     0.036 C
HETATM   10  C17 UNL     1      -7.750 -29.805 -92.125  1.00  0.00     0.192 C
HETATM   11  C16 UNL     1      -8.168 -28.865 -91.010  1.00  0.00     0.090 C
ATOM     12  H42 UNL     1      -8.509 -30.215 -94.032  1.00  0.00     0.278 HD
ATOM     13  H41 UNL     1      -9.520 -29.470 -93.190  1.00  0.00     0.278 HD
BRANCH   5  14
HETATM   14  C3  UNL     1      -8.543 -25.858 -93.247  1.00  0.00     0.251 C
HETATM   15  N1  UNL     1      -8.267 -25.538 -94.609  1.00  0.00    -0.357 N
ATOM     16  H1  UNL     1      -7.923 -26.271 -95.230  1.00  0.00     0.162 HD
HETATM   17  O1  UNL     1      -8.958 -24.891 -92.562  1.00  0.00    -0.268 OA
BRANCH  15  18
HETATM   18  C2  UNL     1      -8.462 -24.200 -95.139  1.00  0.00     0.118 C
HETATM   19  C1  UNL     1      -7.201 -23.427 -95.301  1.00  0.00     0.026 C
ENDBRANCH  15  18
ENDBRANCH   5  14
ENDBRANCH   2   4
ENDBRANCH   1   2
BRANCH   1  20
HETATM   20  C7  UNL     1      -8.310 -26.577 -88.103  1.00  0.00     0.222 C
BRANCH  20  21
HETATM   21  C8  UNL     1      -8.454 -25.126 -88.293  1.00  0.00     0.197 C
HETATM   22  O2  UNL     1      -9.584 -24.744 -88.734  1.00  0.00    -0.292 OA
BRANCH  21  23
HETATM   23  C9  UNL     1      -7.517 -24.041 -88.051  1.00  0.00     0.290 C
BRANCH  23  24
HETATM   24  O3  UNL     1      -7.666 -23.603 -86.706  1.00  0.00    -0.370 OA
ATOM     25  H3  UNL     1      -7.187 -24.195 -86.139  1.00  0.00     0.212 HD
ENDBRANCH  23  24
BRANCH  23  26
HETATM   26  N3  UNL     1      -7.535 -22.878 -88.855  1.00  0.00    -0.358 N
ATOM     27  H3  UNL     1      -8.461 -22.576 -89.157  1.00  0.00     0.162 HD
BRANCH  26  28
HETATM   28  C10 UNL     1      -6.472 -22.075 -89.303  1.00  0.00     0.030 A
HETATM   29  C11 UNL     1      -6.277 -21.828 -90.665  1.00  0.00     0.029 A
HETATM   30  C12 UNL     1      -5.245 -21.046 -91.129  1.00  0.00     0.002 A
HETATM   31  C13 UNL     1      -4.360 -20.475 -90.252  1.00  0.00     0.000 A
HETATM   32  C14 UNL     1      -4.529 -20.701 -88.909  1.00  0.00     0.002 A
HETATM   33  C15 UNL     1      -5.583 -21.499 -88.449  1.00  0.00     0.029 A
ENDBRANCH  26  28
ENDBRANCH  23  26
ENDBRANCH  21  23
ENDBRANCH  20  21
BRANCH  20  34
HETATM   34  S1  UNL     1      -7.862 -27.010 -86.476  1.00  0.00     0.115 S
HETATM   35  O4  UNL     1      -6.413 -27.263 -86.322  1.00  0.00    -0.594 OA
HETATM   36  O5  UNL     1      -8.411 -25.979 -85.521  1.00  0.00    -0.594 OA
HETATM   37  O6  UNL     1      -8.631 -28.458 -85.996  1.00  0.00    -0.594 OA
ENDBRANCH  20  34
ENDBRANCH   1  20
TORSDOF 11
ENDMDL