MODEL 4
REMARK VINA RESULT: -7.001117919      3.191      6.883
REMARK  13 active torsions:
REMARK  status: ('A' for Active; 'I' for Inactive)
REMARK    1  A    between atoms: O1_2  and  C2_3
REMARK    2  A    between atoms: C3_4  and  N1_5
REMARK       I    between atoms: N1_5  and  C4_7
REMARK    3  A    between atoms: C6_10  and  N2_11
REMARK    4  A    between atoms: N2_11  and  N3_13
REMARK    5  A    between atoms: C7_18  and  C8_19
REMARK    6  A    between atoms: C8_19  and  C9_20
REMARK    7  A    between atoms: C9_20  and  O3_21
REMARK    8  A    between atoms: C9_20  and  C10_23
REMARK    9  A    between atoms: C10_23  and  C11_24
REMARK   10  A    between atoms: C10_23  and  N6_31
REMARK   11  A    between atoms: C11_24  and  C12_25
REMARK   12  A    between atoms: C17_36  and  C18_37
REMARK   13  A    between atoms: C18_37  and  O5_39
ROOT
HETATM    1  N6  UNL     1      -5.988 -23.294 -93.787  1.00  0.00    -0.321 N
ATOM      2  H6  UNL     1      -5.444 -23.962 -93.242  1.00  0.00     0.172 HD
HETATM    3  C16 UNL     1      -5.424 -22.085 -94.207  1.00  0.00     0.177 C
HETATM    4  N7  UNL     1      -4.947 -21.080 -94.546  1.00  0.00    -0.172 NA
ENDROOT
BRANCH   1   5
HETATM    5  C10 UNL     1      -7.350 -23.572 -94.141  1.00  0.00     0.126 C
BRANCH   5   6
HETATM    6  C9  UNL     1      -8.117 -24.192 -92.990  1.00  0.00     0.144 C
BRANCH   6   7
HETATM    7  C8  UNL     1      -7.445 -23.886 -91.663  1.00  0.00     0.068 C
BRANCH   7   8
HETATM    8  C7  UNL     1      -7.648 -25.018 -90.682  1.00  0.00     0.151 C
HETATM    9  C6  UNL     1      -7.012 -24.628 -89.370  1.00  0.00     0.155 C
HETATM   10  C3  UNL     1      -7.213 -25.683 -88.305  1.00  0.00     0.142 C
HETATM   11  C2  UNL     1      -8.490 -26.478 -88.576  1.00  0.00     0.177 C
HETATM   12  C17 UNL     1      -9.467 -25.612 -89.355  1.00  0.00     0.181 C
HETATM   13  O4  UNL     1      -8.979 -25.347 -90.623  1.00  0.00    -0.373 OA
BRANCH   9  14
HETATM   14  N2  UNL     1      -7.396 -23.315 -88.951  1.00  0.00    -0.313 N
ATOM     15  H2  UNL     1      -8.027 -22.796 -89.563  1.00  0.00     0.182 HD
BRANCH  14  16
HETATM   16  N3  UNL     1      -7.035 -22.761 -87.924  1.00  0.00    -0.253 N
HETATM   17  N4  UNL     1      -7.165 -21.896 -87.030  1.00  0.00    -0.331 N
ATOM     18  H42 UNL     1      -8.014 -21.416 -87.330  1.00  0.00     0.178 HD
ATOM     19  H41 UNL     1      -6.863 -21.432 -86.172  1.00  0.00     0.178 HD
ATOM     20  H3  UNL     1      -6.189 -23.266 -87.656  1.00  0.00     0.207 HD
ENDBRANCH  14  16
ENDBRANCH   9  14
BRANCH  10  21
HETATM   21  N1  UNL     1      -6.110 -26.615 -88.359  1.00  0.00    -0.352 N
HETATM   22  C4  UNL     1      -5.501 -27.171 -87.212  1.00  0.00     0.214 C
HETATM   23  C5  UNL     1      -4.377 -28.120 -87.315  1.00  0.00     0.117 C
HETATM   24  O2  UNL     1      -5.933 -26.845 -86.087  1.00  0.00    -0.274 OA
ATOM     25  H1  UNL     1      -5.752 -26.886 -89.276  1.00  0.00     0.163 HD
ENDBRANCH  10  21
BRANCH  11  26
HETATM   26  O1  UNL     1      -9.014 -26.954 -87.389  1.00  0.00    -0.386 OA
HETATM   27  C1  UNL     1      -8.949 -28.350 -87.291  1.00  0.00     0.202 C
ENDBRANCH  11  26
BRANCH  12  28
HETATM   28  C18 UNL     1     -10.754 -26.375 -89.507  1.00  0.00     0.145 C
HETATM   29  C19 UNL     1     -10.664 -27.448 -90.569  1.00  0.00     0.042 C
BRANCH  28  30
HETATM   30  O5  UNL     1     -11.841 -25.574 -89.841  1.00  0.00    -0.393 OA
ATOM     31  H5  UNL     1     -12.043 -24.913 -89.189  1.00  0.00     0.210 HD
ENDBRANCH  28  30
ENDBRANCH  12  28
ENDBRANCH   7   8
ENDBRANCH   6   7
BRANCH   6  32
HETATM   32  O3  UNL     1      -9.393 -23.634 -93.016  1.00  0.00    -0.393 OA
ATOM     33  H3  UNL     1      -9.929 -24.080 -93.662  1.00  0.00     0.210 HD
ENDBRANCH   6  32
ENDBRANCH   5   6
BRANCH   5  34
HETATM   34  C11 UNL     1      -7.427 -24.536 -95.311  1.00  0.00     0.085 C
BRANCH  34  35
HETATM   35  C12 UNL     1      -8.480 -24.188 -96.288  1.00  0.00     0.011 A
HETATM   36  C13 UNL     1      -8.311 -24.056 -97.653  1.00  0.00     0.026 A
HETATM   37  C14 UNL     1      -9.531 -23.720 -98.217  1.00  0.00     0.019 A
HETATM   38  C15 UNL     1     -10.423 -23.653 -97.196  1.00  0.00     0.088 A
HETATM   39  N5  UNL     1      -9.773 -23.936 -96.057  1.00  0.00    -0.369 N
ATOM     40  H5  UNL     1     -10.209 -23.956 -95.134  1.00  0.00     0.165 HD
ENDBRANCH  34  35
ENDBRANCH   5  34
ENDBRANCH   1   5
TORSDOF 13
ENDMDL