MODEL 4
REMARK VINA RESULT: -7.150666026      2.019      3.477
REMARK  17 active torsions:
REMARK  status: ('A' for Active; 'I' for Inactive)
REMARK    1  A    between atoms: C2_2  and  C3_3
REMARK    2  A    between atoms: C3_3  and  C4_4
REMARK    3  A    between atoms: C8_8  and  C9_9
REMARK    4  A    between atoms: C9_9  and  C10_10
REMARK    5  A    between atoms: C9_9  and  O2_13
REMARK    6  A    between atoms: C10_10  and  O1_11
REMARK    7  A    between atoms: O2_13  and  C11_14
REMARK    8  A    between atoms: C11_14  and  O3_15
REMARK    9  A    between atoms: C11_14  and  C12_17
REMARK   10  A    between atoms: C12_17  and  N1_18
REMARK   11  A    between atoms: N1_18  and  C13_21
REMARK   12  A    between atoms: C14_22  and  O4_23
REMARK   13  A    between atoms: C15_25  and  N2_26
REMARK       I    between atoms: N2_26  and  C16_28
REMARK   14  A    between atoms: C18_31  and  O6_32
REMARK   15  A    between atoms: C19_34  and  N3_35
REMARK   16  A    between atoms: N3_35  and  N4_37
REMARK   17  A    between atoms: N4_37  and  N5_38
ROOT
HETATM    1  N1  UNL     1      -7.806 -23.480 -91.790  1.00  0.00    -0.062 N
ATOM      2  H11 UNL     1      -8.741 -23.274 -91.436  1.00  0.00     0.277 HD
ATOM      3  H12 UNL     1      -7.612 -22.595 -92.258  1.00  0.00     0.277 HD
ENDROOT
BRANCH   1   4
HETATM    4  C12 UNL     1      -7.833 -24.576 -92.731  1.00  0.00     0.293 C
BRANCH   4   5
HETATM    5  C11 UNL     1      -8.673 -24.096 -93.915  1.00  0.00     0.283 C
BRANCH   5   6
HETATM    6  O2  UNL     1      -7.981 -23.306 -94.794  1.00  0.00    -0.350 OA
BRANCH   6   7
HETATM    7  C9  UNL     1      -6.803 -23.844 -95.239  1.00  0.00     0.177 C
BRANCH   7   8
HETATM    8  C8  UNL     1      -5.628 -22.844 -95.173  1.00  0.00     0.153 C
HETATM    9  C7  UNL     1      -4.442 -23.514 -95.764  1.00  0.00     0.035 C
HETATM   10  C6  UNL     1      -3.128 -23.115 -95.217  1.00  0.00     0.005 C
HETATM   11  C5  UNL     1      -3.155 -22.556 -93.826  1.00  0.00     0.032 C
HETATM   12  C4  UNL     1      -4.397 -21.841 -93.445  1.00  0.00     0.122 C
HETATM   13  O7  UNL     1      -5.552 -22.437 -93.888  1.00  0.00    -0.378 OA
BRANCH  12  14
HETATM   14  C3  UNL     1      -4.343 -20.352 -93.569  1.00  0.00     0.032 C
BRANCH  14  15
HETATM   15  C2  UNL     1      -3.320 -19.621 -92.811  1.00  0.00    -0.002 C
HETATM   16  C1  UNL     1      -4.035 -18.731 -91.779  1.00  0.00     0.005 C
ENDBRANCH  14  15
ENDBRANCH  12  14
ENDBRANCH   7   8
BRANCH   7  17
HETATM   17  C10 UNL     1      -6.993 -24.262 -96.698  1.00  0.00     0.198 C
BRANCH  17  18
HETATM   18  O1  UNL     1      -7.727 -23.221 -97.295  1.00  0.00    -0.398 OA
ATOM     19  H1  UNL     1      -7.354 -23.112 -98.161  1.00  0.00     0.209 HD
ENDBRANCH  17  18
ENDBRANCH   7  17
ENDBRANCH   6   7
ENDBRANCH   5   6
BRANCH   5  20
HETATM   20  O3  UNL     1      -9.801 -23.480 -93.369  1.00  0.00    -0.370 OA
ATOM     21  H3  UNL     1     -10.623 -23.790 -93.732  1.00  0.00     0.212 HD
ENDBRANCH   5  20
ENDBRANCH   4   5
ENDBRANCH   1   4
BRANCH   1  22
HETATM   22  C13 UNL     1      -6.875 -23.716 -90.706  1.00  0.00     0.244 C
HETATM   23  C14 UNL     1      -7.508 -24.730 -89.777  1.00  0.00     0.176 C
HETATM   24  C15 UNL     1      -7.462 -24.135 -88.388  1.00  0.00     0.146 C
HETATM   25  C18 UNL     1      -6.446 -23.015 -88.456  1.00  0.00     0.170 C
HETATM   26  C19 UNL     1      -6.637 -22.504 -89.870  1.00  0.00     0.178 C
BRANCH  23  27
HETATM   27  O4  UNL     1      -6.849 -25.949 -89.841  1.00  0.00    -0.391 OA
ATOM     28  H4  UNL     1      -7.448 -26.652 -90.064  1.00  0.00     0.210 HD
ENDBRANCH  23  27
BRANCH  24  29
HETATM   29  N2  UNL     1      -7.107 -25.155 -87.454  1.00  0.00    -0.352 N
HETATM   30  C16 UNL     1      -8.117 -25.874 -86.772  1.00  0.00     0.214 C
HETATM   31  C17 UNL     1      -7.769 -26.936 -85.799  1.00  0.00     0.117 C
HETATM   32  O5  UNL     1      -9.335 -25.631 -86.972  1.00  0.00    -0.274 OA
ATOM     33  H2  UNL     1      -6.125 -25.365 -87.278  1.00  0.00     0.163 HD
ENDBRANCH  24  29
BRANCH  25  34
HETATM   34  O6  UNL     1      -6.851 -22.029 -87.549  1.00  0.00    -0.391 OA
ATOM     35  H6  UNL     1      -6.714 -21.187 -87.967  1.00  0.00     0.210 HD
ENDBRANCH  25  34
BRANCH  26  36
HETATM   36  N3  UNL     1      -5.423 -21.796 -90.254  1.00  0.00    -0.243 N
ATOM     37  H3  UNL     1      -5.111 -21.750 -91.224  1.00  0.00     0.197 HD
BRANCH  36  38
HETATM   38  N4  UNL     1      -4.795 -21.256 -89.345  1.00  0.00    -0.248 NA
BRANCH  38  39
HETATM   39  N5  UNL     1      -4.177 -20.507 -88.557  1.00  0.00    -0.261 N
ATOM     40  H52 UNL     1      -5.053 -20.295 -88.079  1.00  0.00     0.193 HD
ATOM     41  H51 UNL     1      -3.513 -19.950 -88.018  1.00  0.00     0.193 HD
ENDBRANCH  38  39
ENDBRANCH  36  38
ENDBRANCH  26  36
ENDBRANCH   1  22
TORSDOF 17
ENDMDL