MODEL 4
REMARK VINA RESULT: -7.361239882      1.191      1.590
REMARK  11 active torsions:
REMARK  status: ('A' for Active; 'I' for Inactive)
REMARK    1  A    between atoms: C2_2  and  C4_4
REMARK    2  A    between atoms: C4_4  and  N1_5
REMARK    3  A    between atoms: C4_4  and  C11_28
REMARK       I    between atoms: N1_5  and  C5_6
REMARK    4  A    between atoms: C5_6  and  C6_8
REMARK    5  A    between atoms: C6_8  and  N2_9
REMARK    6  A    between atoms: C6_8  and  C7_13
REMARK    7  A    between atoms: C7_13  and  C8_14
REMARK    8  A    between atoms: C8_14  and  C9_15
REMARK    9  A    between atoms: C9_15  and  N3_16
REMARK       I    between atoms: N3_16  and  C10_19
REMARK       I    between atoms: C10_19  and  N4_20
REMARK       I    between atoms: C10_19  and  N5_24
REMARK   10  A    between atoms: C11_28  and  C13_30
REMARK   11  A    between atoms: C18_39  and  O3_40
ROOT
HETATM    1  O3  UNL     1      -7.405 -25.452 -95.137  1.00  0.00    -0.273 OA
HETATM    2  C19 UNL     1      -8.173 -25.699 -94.059  1.00  0.00     0.229 C
HETATM    3  N7  UNL     1      -8.842 -25.905 -93.126  1.00  0.00    -0.164 NA
ENDROOT
BRANCH   1   4
HETATM    4  C18 UNL     1      -7.493 -24.232 -95.880  1.00  0.00     0.203 C
HETATM    5  C16 UNL     1      -7.575 -24.531 -97.398  1.00  0.00     0.153 C
HETATM    6  O2  UNL     1      -6.384 -24.137 -97.966  1.00  0.00    -0.349 OA
HETATM    7  C17 UNL     1      -8.781 -23.854 -97.992  1.00  0.00     0.042 C
HETATM    8  C15 UNL     1      -5.465 -24.291 -96.967  1.00  0.00     0.353 C
HETATM    9  N6  UNL     1      -4.254 -23.573 -97.108  1.00  0.00    -0.044 N
HETATM   10  C20 UNL     1      -6.164 -23.538 -95.813  1.00  0.00     0.211 C
HETATM   11  C14 UNL     1      -3.453 -24.005 -95.980  1.00  0.00     0.267 C
ATOM     12  H62 UNL     1      -4.373 -22.562 -97.175  1.00  0.00     0.280 HD
ATOM     13  H61 UNL     1      -3.801 -23.691 -98.014  1.00  0.00     0.280 HD
HETATM   14  C13 UNL     1      -4.129 -23.598 -94.657  1.00  0.00     0.154 C
HETATM   15  O4  UNL     1      -5.468 -23.565 -94.684  1.00  0.00    -0.371 OA
BRANCH  14  16
HETATM   16  C11 UNL     1      -3.342 -22.431 -94.220  1.00  0.00     0.048 C
HETATM   17  C12 UNL     1      -1.859 -22.837 -94.477  1.00  0.00     0.016 C
BRANCH  16  18
HETATM   18  C4  UNL     1      -3.385 -21.932 -92.818  1.00  0.00     0.176 C
BRANCH  18  19
HETATM   19  C2  UNL     1      -3.726 -20.467 -92.980  1.00  0.00     0.014 C
HETATM   20  C1  UNL     1      -4.497 -19.825 -91.894  1.00  0.00     0.012 C
HETATM   21  C3  UNL     1      -4.541 -20.256 -94.248  1.00  0.00     0.012 C
ENDBRANCH  18  19
BRANCH  18  22
HETATM   22  N1  UNL     1      -4.032 -22.586 -91.786  1.00  0.00    -0.407 NA
HETATM   23  C5  UNL     1      -4.689 -23.228 -90.763  1.00  0.00     0.317 C
HETATM   24  O1  UNL     1      -5.868 -22.989 -90.446  1.00  0.00    -0.255 OA
BRANCH  23  25
HETATM   25  C6  UNL     1      -4.003 -24.300 -89.933  1.00  0.00     0.289 C
BRANCH  25  26
HETATM   26  N2  UNL     1      -3.799 -23.856 -88.593  1.00  0.00    -0.065 N
ATOM     27  H23 UNL     1      -2.879 -24.125 -88.244  1.00  0.00     0.275 HD
ATOM     28  H22 UNL     1      -3.693 -22.843 -88.545  1.00  0.00     0.275 HD
ATOM     29  H21 UNL     1      -4.545 -24.186 -87.982  1.00  0.00     0.275 HD
ENDBRANCH  25  26
BRANCH  25  30
HETATM   30  C7  UNL     1      -4.797 -25.552 -90.049  1.00  0.00     0.045 C
BRANCH  30  31
HETATM   31  C8  UNL     1      -5.372 -25.998 -88.709  1.00  0.00     0.030 C
BRANCH  31  32
HETATM   32  C9  UNL     1      -6.868 -26.239 -88.965  1.00  0.00     0.237 C
BRANCH  32  33
HETATM   33  N3  UNL     1      -7.403 -25.548 -90.067  1.00  0.00    -0.022 N
HETATM   34  C10 UNL     1      -8.571 -24.741 -89.717  1.00  0.00     0.575 C
HETATM   35  N4  UNL     1      -8.171 -23.760 -88.705  1.00  0.00    -0.026 N
HETATM   36  N5  UNL     1      -8.968 -24.007 -90.890  1.00  0.00    -0.026 N
ATOM     37  H43 UNL     1      -7.736 -24.192 -87.891  1.00  0.00     0.278 HD
ATOM     38  H42 UNL     1      -7.378 -23.192 -89.003  1.00  0.00     0.278 HD
ATOM     39  H41 UNL     1      -8.985 -23.197 -88.461  1.00  0.00     0.278 HD
ATOM     40  H53 UNL     1      -8.209 -23.452 -91.286  1.00  0.00     0.278 HD
ATOM     41  H52 UNL     1      -9.131 -24.609 -91.698  1.00  0.00     0.278 HD
ATOM     42  H51 UNL     1      -9.782 -23.444 -90.646  1.00  0.00     0.278 HD
ATOM     43  H32 UNL     1      -6.690 -24.980 -90.524  1.00  0.00     0.281 HD
ATOM     44  H31 UNL     1      -7.618 -26.189 -90.831  1.00  0.00     0.281 HD
ENDBRANCH  32  33
ENDBRANCH  31  32
ENDBRANCH  30  31
ENDBRANCH  25  30
ENDBRANCH  23  25
ENDBRANCH  18  22
ENDBRANCH  16  18
ENDBRANCH  14  16
ENDBRANCH   1   4
TORSDOF 11
ENDMDL