MODEL 1
REMARK VINA RESULT: -7.260555449      0.000      0.000
REMARK  14 active torsions:
REMARK  status: ('A' for Active; 'I' for Inactive)
REMARK    1  A    between atoms: C2_2  and  C3_3
REMARK       I    between atoms: C3_3  and  N1_5
REMARK    2  A    between atoms: N1_5  and  C4_7
REMARK    3  A    between atoms: C5_8  and  O2_9
REMARK    4  A    between atoms: O2_9  and  C6_10
REMARK    5  A    between atoms: C6_10  and  C7_12
REMARK    6  A    between atoms: C7_12  and  N2_13
REMARK    7  A    between atoms: N2_13  and  C8_15
REMARK    8  A    between atoms: C8_15  and  C9_16
REMARK    9  A    between atoms: C8_15  and  C12_19
REMARK   10  A    between atoms: C12_19  and  O4_20
REMARK   11  A    between atoms: C12_19  and  C13_22
REMARK   12  A    between atoms: C16_26  and  C17_27
REMARK   13  A    between atoms: C18_30  and  O8_31
REMARK   14  A    between atoms: C19_33  and  O9_34
ROOT
HETATM    1  C4  UNL     1      -8.956 -25.221 -90.063  1.00  0.00     0.171 C
HETATM    2  C5  UNL     1      -7.803 -24.763 -89.163  1.00  0.00     0.296 C
HETATM    3  O5  UNL     1      -7.223 -25.773 -88.493  1.00  0.00    -0.340 OA
HETATM    4  C16 UNL     1      -7.994 -26.558 -87.678  1.00  0.00     0.256 C
HETATM    5  C18 UNL     1      -9.342 -26.867 -88.198  1.00  0.00     0.188 C
HETATM    6  C19 UNL     1      -9.827 -26.219 -89.423  1.00  0.00     0.177 C
ENDROOT
BRANCH   2   7
HETATM    7  O2  UNL     1      -8.245 -23.753 -88.275  1.00  0.00    -0.283 OA
BRANCH   7   8
HETATM    8  C6  UNL     1      -7.447 -22.769 -87.770  1.00  0.00     0.300 C
HETATM    9  O3  UNL     1      -7.450 -22.525 -86.550  1.00  0.00    -0.259 OA
BRANCH   8  10
HETATM   10  C7  UNL     1      -6.532 -21.949 -88.677  1.00  0.00     0.166 C
BRANCH  10  11
HETATM   11  N2  UNL     1      -5.267 -22.535 -88.786  1.00  0.00    -0.387 N
ATOM     12  H2  UNL     1      -4.794 -22.981 -88.000  1.00  0.00     0.159 HD
BRANCH  11  13
HETATM   13  C8  UNL     1      -4.685 -22.457 -90.111  1.00  0.00     0.113 C
BRANCH  13  14
HETATM   14  C9  UNL     1      -4.161 -23.816 -90.474  1.00  0.00     0.003 C
HETATM   15  C10 UNL     1      -3.890 -24.618 -89.185  1.00  0.00     0.011 C
HETATM   16  C11 UNL     1      -2.862 -23.840 -91.223  1.00  0.00     0.011 C
ENDBRANCH  13  14
BRANCH  13  17
HETATM   17  C12 UNL     1      -5.528 -21.761 -91.089  1.00  0.00     0.144 C
BRANCH  17  18
HETATM   18  O4  UNL     1      -6.063 -22.614 -92.041  1.00  0.00    -0.393 OA
ATOM     19  H4  UNL     1      -7.009 -22.679 -91.988  1.00  0.00     0.210 HD
ENDBRANCH  17  18
BRANCH  17  20
HETATM   20  C13 UNL     1      -5.057 -20.509 -91.733  1.00  0.00     0.008 C
HETATM   21  C14 UNL     1      -4.111 -19.786 -90.731  1.00  0.00     0.012 C
HETATM   22  C15 UNL     1      -4.180 -20.809 -92.954  1.00  0.00     0.012 C
ENDBRANCH  17  20
ENDBRANCH  13  17
ENDBRANCH  11  13
ENDBRANCH  10  11
ENDBRANCH   8  10
ENDBRANCH   7   8
ENDBRANCH   2   7
BRANCH   1  23
HETATM   23  N1  UNL     1      -8.417 -25.667 -91.329  1.00  0.00    -0.349 N
HETATM   24  C3  UNL     1      -8.464 -24.983 -92.546  1.00  0.00     0.217 C
HETATM   25  O1  UNL     1      -9.014 -23.859 -92.617  1.00  0.00    -0.274 OA
ATOM     26  H1  UNL     1      -7.955 -26.576 -91.335  1.00  0.00     0.163 HD
BRANCH  24  27
HETATM   27  C2  UNL     1      -7.871 -25.566 -93.764  1.00  0.00     0.098 C
HETATM   28  C1  UNL     1      -8.017 -24.608 -94.916  1.00  0.00     0.014 C
ENDBRANCH  24  27
ENDBRANCH   1  23
BRANCH   6  29
HETATM   29  O9  UNL     1     -11.123 -25.687 -89.181  1.00  0.00    -0.391 OA
ATOM     30  H9  UNL     1     -11.090 -24.745 -89.064  1.00  0.00     0.210 HD
ENDBRANCH   6  29
BRANCH   4  31
HETATM   31  C17 UNL     1      -8.001 -26.116 -86.265  1.00  0.00     0.206 C
HETATM   32  O6  UNL     1      -8.931 -25.441 -85.819  1.00  0.00    -0.646 OA
HETATM   33  O7  UNL     1      -6.953 -26.467 -85.451  1.00  0.00    -0.646 OA
ENDBRANCH   4  31
BRANCH   5  34
HETATM   34  O8  UNL     1      -9.471 -28.277 -88.304  1.00  0.00    -0.390 OA
ATOM     35  H8  UNL     1     -10.381 -28.508 -88.160  1.00  0.00     0.210 HD
ENDBRANCH   5  34
TORSDOF 14
ENDMDL