MODEL 3
REMARK VINA RESULT: -6.085328706      4.058      7.987
REMARK  13 active torsions:
REMARK  status: ('A' for Active; 'I' for Inactive)
REMARK    1  A    between atoms: O1_2  and  C2_3
REMARK    2  A    between atoms: C5_7  and  O3_8
REMARK    3  A    between atoms: C6_10  and  N1_11
REMARK       I    between atoms: N1_11  and  C7_13
REMARK    4  A    between atoms: C7_13  and  C8_15
REMARK    5  A    between atoms: C8_15  and  N2_16
REMARK    6  A    between atoms: C8_15  and  C14_28
REMARK       I    between atoms: N2_16  and  C9_18
REMARK    7  A    between atoms: C9_18  and  C10_20
REMARK    8  A    between atoms: C10_20  and  N3_21
REMARK    9  A    between atoms: C10_20  and  C11_25
REMARK   10  A    between atoms: C14_28  and  C15_29
REMARK   11  A    between atoms: C14_28  and  C17_32
REMARK   12  A    between atoms: C15_29  and  S1_30
REMARK   13  A    between atoms: C18_35  and  O8_36
ROOT
HETATM    1  C8  UNL     1      -7.713 -24.488 -90.402  1.00  0.00     0.191 C
ENDROOT
BRANCH   1   2
HETATM    2  C7  UNL     1      -7.883 -24.787 -91.835  1.00  0.00     0.241 C
HETATM    3  N1  UNL     1      -6.949 -24.419 -92.827  1.00  0.00    -0.349 N
ATOM      4  H1  UNL     1      -6.098 -23.921 -92.564  1.00  0.00     0.163 HD
HETATM    5  O4  UNL     1      -8.954 -25.422 -92.158  1.00  0.00    -0.271 OA
BRANCH   3   6
HETATM    6  C6  UNL     1      -7.193 -24.744 -94.216  1.00  0.00     0.149 C
HETATM    7  C5  UNL     1      -5.924 -25.009 -94.989  1.00  0.00     0.172 C
HETATM    8  C3  UNL     1      -6.339 -25.604 -96.317  1.00  0.00     0.151 C
HETATM    9  O2  UNL     1      -7.398 -24.959 -96.892  1.00  0.00    -0.351 OA
HETATM   10  C4  UNL     1      -5.160 -25.775 -97.246  1.00  0.00     0.042 C
HETATM   11  C2  UNL     1      -7.646 -23.691 -96.439  1.00  0.00     0.290 C
HETATM   12  C18 UNL     1      -7.938 -23.649 -94.946  1.00  0.00     0.198 C
BRANCH   7  13
HETATM   13  O3  UNL     1      -5.078 -25.880 -94.307  1.00  0.00    -0.391 OA
ATOM     14  H3  UNL     1      -4.808 -26.593 -94.874  1.00  0.00     0.210 HD
ENDBRANCH   7  13
BRANCH  11  15
HETATM   15  O1  UNL     1      -8.778 -23.195 -97.077  1.00  0.00    -0.363 OA
HETATM   16  C1  UNL     1      -9.157 -23.915 -98.181  1.00  0.00     0.204 C
ENDBRANCH  11  15
BRANCH  12  17
HETATM   17  O8  UNL     1      -9.315 -23.769 -94.788  1.00  0.00    -0.388 OA
ATOM     18  H8  UNL     1      -9.513 -23.596 -93.876  1.00  0.00     0.210 HD
ENDBRANCH  12  17
ENDBRANCH   3   6
ENDBRANCH   1   2
BRANCH   1  19
HETATM   19  N2  UNL     1      -6.334 -24.038 -90.140  1.00  0.00    -0.345 N
HETATM   20  C9  UNL     1      -5.991 -22.678 -89.978  1.00  0.00     0.249 C
HETATM   21  O5  UNL     1      -6.955 -21.856 -90.074  1.00  0.00    -0.271 OA
ATOM     22  H2  UNL     1      -5.596 -24.739 -90.074  1.00  0.00     0.163 HD
BRANCH  20  23
HETATM   23  C10 UNL     1      -4.616 -22.280 -89.717  1.00  0.00     0.278 C
BRANCH  23  24
HETATM   24  N3  UNL     1      -4.602 -21.700 -88.358  1.00  0.00    -0.066 N
ATOM     25  H33 UNL     1      -4.625 -22.401 -87.617  1.00  0.00     0.275 HD
ATOM     26  H32 UNL     1      -3.708 -21.280 -88.106  1.00  0.00     0.275 HD
ATOM     27  H31 UNL     1      -5.382 -21.043 -88.320  1.00  0.00     0.275 HD
ENDBRANCH  23  24
BRANCH  23  28
HETATM   28  C11 UNL     1      -4.010 -21.258 -90.598  1.00  0.00     0.017 C
HETATM   29  C12 UNL     1      -4.287 -19.833 -90.297  1.00  0.00     0.012 C
HETATM   30  C13 UNL     1      -4.487 -21.552 -92.027  1.00  0.00     0.012 C
ENDBRANCH  23  28
ENDBRANCH  20  23
ENDBRANCH   1  19
BRANCH   1  31
HETATM   31  C14 UNL     1      -7.921 -25.706 -89.503  1.00  0.00     0.128 C
BRANCH  31  32
HETATM   32  C15 UNL     1      -9.308 -26.126 -89.272  1.00  0.00     0.091 C
BRANCH  32  33
HETATM   33  S1  UNL     1      -9.418 -27.913 -89.093  1.00  0.00    -0.172 SA
HETATM   34  C16 UNL     1      -9.013 -28.585 -87.503  1.00  0.00     0.089 C
ENDBRANCH  32  33
ENDBRANCH  31  32
BRANCH  31  35
HETATM   35  C17 UNL     1      -7.342 -25.238 -88.179  1.00  0.00     0.180 C
HETATM   36  O6  UNL     1      -6.378 -25.896 -87.736  1.00  0.00    -0.648 OA
HETATM   37  O7  UNL     1      -7.825 -24.173 -87.488  1.00  0.00    -0.648 OA
ENDBRANCH  31  35
ENDBRANCH   1  31
TORSDOF 13
ENDMDL