MODEL 1
REMARK VINA RESULT: -7.310212073      0.000      0.000
REMARK  13 active torsions:
REMARK  status: ('A' for Active; 'I' for Inactive)
REMARK    1  A    between atoms: C2_2  and  C3_3
REMARK    2  A    between atoms: C3_3  and  C4_4
REMARK    3  A    between atoms: C4_4  and  S1_5
REMARK    4  A    between atoms: S1_5  and  C5_6
REMARK    5  A    between atoms: C5_6  and  C6_7
REMARK    6  A    between atoms: C6_7  and  N1_8
REMARK    7  A    between atoms: N1_8  and  C7_10
REMARK    8  A    between atoms: C7_10  and  C8_14
REMARK    9  A    between atoms: C9_15  and  C10_16
REMARK       I    between atoms: C10_16  and  N3_18
REMARK   10  A    between atoms: N3_18  and  C11_20
REMARK   11  A    between atoms: C11_20  and  C12_21
REMARK   12  A    between atoms: C13_23  and  O3_24
REMARK   13  A    between atoms: C14_26  and  O4_27
ROOT
HETATM    1  C8  UNL     1      -8.060 -25.126 -89.539  1.00  0.00     0.082 C
HETATM    2  C9  UNL     1      -7.255 -25.294 -90.778  1.00  0.00     0.151 C
HETATM    3  S2  UNL     1      -7.034 -27.101 -90.807  1.00  0.00    -0.147 SA
HETATM    4  C15 UNL     1      -8.552 -27.511 -89.922  1.00  0.00     0.080 C
HETATM    5  C16 UNL     1      -8.344 -28.511 -88.825  1.00  0.00     0.247 C
HETATM    6  N4  UNL     1      -9.339 -28.097 -87.854  1.00  0.00    -0.074 N
ATOM      7  H41 UNL     1      -9.287 -28.558 -86.945  1.00  0.00     0.277 HD
ATOM      8  H42 UNL     1     -10.295 -28.395 -88.046  1.00  0.00     0.277 HD
HETATM    9  C17 UNL     1      -9.113 -26.641 -87.844  1.00  0.00     0.239 C
HETATM   10  C18 UNL     1      -8.984 -26.226 -89.295  1.00  0.00     0.039 C
ENDROOT
BRANCH   1  11
HETATM   11  C7  UNL     1      -7.166 -24.738 -88.400  1.00  0.00     0.076 C
HETATM   12  N2  UNL     1      -6.155 -25.451 -88.184  1.00  0.00    -0.389 N
ATOM     13  H22 UNL     1      -5.547 -25.188 -87.409  1.00  0.00     0.157 HD
ATOM     14  H21 UNL     1      -5.935 -26.259 -88.767  1.00  0.00     0.157 HD
BRANCH  11  15
HETATM   15  N1  UNL     1      -7.471 -23.618 -87.592  1.00  0.00    -0.379 N
ATOM     16  H1  UNL     1      -7.977 -23.853 -86.738  1.00  0.00     0.160 HD
BRANCH  15  17
HETATM   17  C6  UNL     1      -7.210 -22.240 -87.738  1.00  0.00     0.131 C
BRANCH  17  18
HETATM   18  C5  UNL     1      -6.027 -21.756 -88.471  1.00  0.00     0.093 C
BRANCH  18  19
HETATM   19  S1  UNL     1      -6.027 -21.768 -90.241  1.00  0.00    -0.168 SA
BRANCH  19  20
HETATM   20  C4  UNL     1      -4.544 -21.082 -90.992  1.00  0.00     0.074 C
BRANCH  20  21
HETATM   21  C3  UNL     1      -4.114 -19.773 -90.379  1.00  0.00     0.010 C
BRANCH  21  22
HETATM   22  C2  UNL     1      -3.631 -18.876 -91.521  1.00  0.00    -0.004 C
HETATM   23  C1  UNL     1      -3.594 -19.741 -92.769  1.00  0.00     0.005 C
ENDBRANCH  21  22
ENDBRANCH  20  21
ENDBRANCH  19  20
ENDBRANCH  18  19
ENDBRANCH  17  18
ENDBRANCH  15  17
ENDBRANCH  11  15
ENDBRANCH   1  11
BRANCH   2  24
HETATM   24  C10 UNL     1      -8.060 -24.886 -91.969  1.00  0.00     0.232 C
HETATM   25  O1  UNL     1      -9.012 -24.084 -91.857  1.00  0.00    -0.272 OA
HETATM   26  N3  UNL     1      -7.752 -25.412 -93.240  1.00  0.00    -0.358 N
ATOM     27  H3  UNL     1      -6.973 -26.064 -93.324  1.00  0.00     0.162 HD
BRANCH  26  28
HETATM   28  C11 UNL     1      -8.501 -25.059 -94.441  1.00  0.00     0.157 C
BRANCH  28  29
HETATM   29  C12 UNL     1      -7.516 -24.516 -95.453  1.00  0.00     0.176 C
HETATM   30  O2  UNL     1      -7.487 -25.152 -96.685  1.00  0.00    -0.349 OA
HETATM   31  C13 UNL     1      -7.053 -23.912 -97.212  1.00  0.00     0.288 C
HETATM   32  C14 UNL     1      -8.024 -23.283 -96.203  1.00  0.00     0.203 C
BRANCH  31  33
HETATM   33  O3  UNL     1      -7.409 -23.662 -98.513  1.00  0.00    -0.369 OA
ATOM     34  H3  UNL     1      -8.272 -23.285 -98.638  1.00  0.00     0.212 HD
ENDBRANCH  31  33
BRANCH  32  35
HETATM   35  O4  UNL     1      -9.314 -23.391 -96.695  1.00  0.00    -0.388 OA
ATOM     36  H4  UNL     1      -9.974 -23.594 -96.042  1.00  0.00     0.210 HD
ENDBRANCH  32  35
ENDBRANCH  28  29
ENDBRANCH  26  28
ENDBRANCH   2  24
TORSDOF 13
ENDMDL