MODEL 5
REMARK VINA RESULT: -7.314626785      2.332      4.961
REMARK  13 active torsions:
REMARK  status: ('A' for Active; 'I' for Inactive)
REMARK    1  A    between atoms: C2_2  and  C4_4
REMARK       I    between atoms: C4_4  and  N1_6
REMARK    2  A    between atoms: N1_6  and  S1_8
REMARK    3  A    between atoms: S1_8  and  O4_11
REMARK    4  A    between atoms: O4_11  and  C5_12
REMARK    5  A    between atoms: C9_16  and  N2_17
REMARK    6  A    between atoms: C10_21  and  O5_22
REMARK    7  A    between atoms: O5_22  and  C11_23
REMARK    8  A    between atoms: C11_23  and  N3_24
REMARK    9  A    between atoms: C11_23  and  C12_28
REMARK   10  A    between atoms: C12_28  and  C13_29
REMARK   11  A    between atoms: C12_28  and  C16_34
REMARK   12  A    between atoms: C13_29  and  C14_30
REMARK   13  A    between atoms: C14_30  and  C15_31
ROOT
HETATM    1  C5  UNL     1      -6.807 -24.994 -93.030  1.00  0.00     0.175 C
HETATM    2  C6  UNL     1      -6.309 -25.773 -94.222  1.00  0.00     0.036 C
HETATM    3  C7  UNL     1      -6.443 -24.998 -95.497  1.00  0.00     0.005 C
HETATM    4  C8  UNL     1      -7.374 -23.839 -95.421  1.00  0.00     0.035 C
HETATM    5  C9  UNL     1      -8.469 -23.899 -94.410  1.00  0.00     0.215 C
HETATM    6  C10 UNL     1      -8.322 -24.802 -93.269  1.00  0.00     0.185 C
ENDROOT
BRANCH   6   7
HETATM    7  O5  UNL     1      -8.762 -24.255 -92.063  1.00  0.00    -0.348 OA
BRANCH   7   8
HETATM    8  C11 UNL     1      -8.298 -24.911 -90.965  1.00  0.00     0.333 C
BRANCH   8   9
HETATM    9  N3  UNL     1      -8.221 -23.861 -89.841  1.00  0.00    -0.052 N
ATOM     10  H33 UNL     1      -7.322 -23.382 -89.793  1.00  0.00     0.277 HD
ATOM     11  H32 UNL     1      -8.794 -23.035 -90.016  1.00  0.00     0.277 HD
ATOM     12  H31 UNL     1      -8.468 -24.351 -88.980  1.00  0.00     0.277 HD
ENDBRANCH   8   9
BRANCH   8  13
HETATM   13  C12 UNL     1      -9.231 -25.957 -90.436  1.00  0.00     0.143 C
BRANCH  13  14
HETATM   14  C13 UNL     1      -8.588 -27.287 -90.302  1.00  0.00     0.028 C
BRANCH  14  15
HETATM   15  C14 UNL     1      -9.169 -28.400 -91.083  1.00  0.00     0.100 C
BRANCH  15  16
HETATM   16  C15 UNL     1      -9.679 -28.186 -92.418  1.00  0.00     0.231 C
HETATM   17  N4  UNL     1      -8.858 -28.380 -93.586  1.00  0.00    -0.062 NA
HETATM   18  O6  UNL     1     -10.881 -27.824 -92.598  1.00  0.00    -0.277 OA
ENDBRANCH  15  16
ENDBRANCH  14  15
ENDBRANCH  13  14
BRANCH  13  19
HETATM   19  C16 UNL     1     -10.063 -25.518 -89.325  1.00  0.00     0.181 C
HETATM   20  O7  UNL     1     -11.155 -24.864 -89.549  1.00  0.00    -0.648 OA
HETATM   21  O8  UNL     1      -9.815 -25.724 -87.985  1.00  0.00    -0.648 OA
ENDBRANCH  13  19
ENDBRANCH   8  13
ENDBRANCH   7   8
ENDBRANCH   6   7
BRANCH   1  22
HETATM   22  O4  UNL     1      -6.159 -23.771 -93.048  1.00  0.00    -0.251 OA
BRANCH  22  23
HETATM   23  S1  UNL     1      -4.755 -23.728 -92.148  1.00  0.00     0.364 S
HETATM   24  O2  UNL     1      -4.821 -24.889 -91.177  1.00  0.00    -0.175 OA
HETATM   25  O3  UNL     1      -3.520 -23.901 -92.990  1.00  0.00    -0.175 OA
BRANCH  23  26
HETATM   26  N1  UNL     1      -4.584 -22.293 -91.217  1.00  0.00    -0.231 N
HETATM   27  C4  UNL     1      -4.633 -21.007 -91.796  1.00  0.00     0.236 C
HETATM   28  O1  UNL     1      -4.808 -20.931 -93.043  1.00  0.00    -0.272 OA
ATOM     29  H1  UNL     1      -4.443 -22.374 -90.210  1.00  0.00     0.183 HD
BRANCH  27  30
HETATM   30  C2  UNL     1      -4.492 -19.796 -90.989  1.00  0.00     0.071 C
HETATM   31  C1  UNL     1      -3.477 -18.839 -91.593  1.00  0.00     0.019 C
HETATM   32  C3  UNL     1      -4.206 -20.045 -89.530  1.00  0.00     0.019 C
ENDBRANCH  27  30
ENDBRANCH  23  26
ENDBRANCH  22  23
ENDBRANCH   1  22
BRANCH   5  33
HETATM   33  N2  UNL     1      -9.726 -24.228 -95.139  1.00  0.00    -0.072 N
ATOM     34  H23 UNL     1     -10.146 -23.419 -95.598  1.00  0.00     0.274 HD
ATOM     35  H22 UNL     1      -9.566 -24.786 -95.978  1.00  0.00     0.274 HD
ATOM     36  H21 UNL     1     -10.353 -24.679 -94.473  1.00  0.00     0.274 HD
ENDBRANCH   5  33
TORSDOF 13
ENDMDL