MODEL 1
REMARK VINA RESULT: -6.083727935      0.000      0.000
REMARK  6 active torsions:
REMARK  status: ('A' for Active; 'I' for Inactive)
REMARK    1  A    between atoms: N2_5  and  C4_6
REMARK    2  A    between atoms: C5_9  and  S1_10
REMARK    3  A    between atoms: S1_10  and  C6_11
REMARK    4  A    between atoms: C8_21  and  N8_22
REMARK    5  A    between atoms: C9_25  and  C10_26
REMARK    6  A    between atoms: C10_26  and  N9_27
ROOT
HETATM    1  C4  UNL     1      22.279  16.992  15.462  1.00  0.00     0.117 A
HETATM    2  N3  UNL     1      21.554  17.010  14.317  1.00  0.00    -0.322 N
ATOM      3  H3  UNL     1      20.563  17.246  14.374  1.00  0.00     0.169 HD
HETATM    4  C5  UNL     1      22.072  16.736  13.121  1.00  0.00     0.155 A
HETATM    5  N7  UNL     1      23.378  16.428  13.051  1.00  0.00    -0.322 N
ATOM      6  H7  UNL     1      23.787  16.215  12.141  1.00  0.00     0.169 HD
HETATM    7  C8  UNL     1      24.168  16.390  14.148  1.00  0.00     0.112 A
HETATM    8  C9  UNL     1      23.598  16.682  15.398  1.00  0.00     0.055 A
ENDROOT
BRANCH   4   9
HETATM    9  S1  UNL     1      21.036  16.777  11.656  1.00  0.00    -0.016 SA
BRANCH   9  10
HETATM   10  C6  UNL     1      21.790  17.804  10.404  1.00  0.00     0.167 A
HETATM   11  N4  UNL     1      22.716  17.437   9.509  1.00  0.00    -0.331 N
HETATM   12  C7  UNL     1      23.007  18.512   8.763  1.00  0.00     0.199 A
ATOM     13  H4  UNL     1      23.126  16.507   9.412  1.00  0.00     0.168 HD
HETATM   14  N5  UNL     1      22.252  19.544   9.206  1.00  0.00    -0.294 N
HETATM   15  N6  UNL     1      21.525  19.100  10.194  1.00  0.00    -0.279 N
ATOM     16  H5  UNL     1      22.251  20.494   8.836  1.00  0.00     0.187 HD
ATOM     17  H6  UNL     1      20.855  19.655  10.726  1.00  0.00     0.189 HD
ENDBRANCH   9  10
ENDBRANCH   4   9
BRANCH   1  18
HETATM   18  N2  UNL     1      21.678  17.285  16.725  1.00  0.00    -0.364 N
HETATM   19  C3  UNL     1      20.363  16.733  16.989  1.00  0.00     0.143 C
HETATM   20  C2  UNL     1      20.356  16.148  18.368  1.00  0.00     0.136 C
HETATM   21  N1  UNL     1      20.758  17.061  19.371  1.00  0.00    -0.414 N
HETATM   22  C1  UNL     1      19.723  17.742  20.073  1.00  0.00     0.143 C
HETATM   23  C12 UNL     1      21.955  17.775  19.133  1.00  0.00     0.136 C
HETATM   24  C11 UNL     1      22.286  18.099  17.726  1.00  0.00     0.143 C
ENDBRANCH   1  18
BRANCH   7  25
HETATM   25  N8  UNL     1      25.421  16.093  14.096  1.00  0.00    -0.385 N
ATOM     26  H82 UNL     1      25.733  15.418  13.398  1.00  0.00     0.157 HD
ATOM     27  H81 UNL     1      26.113  16.506  14.721  1.00  0.00     0.157 HD
ENDBRANCH   7  25
BRANCH   8  28
HETATM   28  C10 UNL     1      24.448  16.648  16.584  1.00  0.00     0.275 C
BRANCH  28  29
HETATM   29  N9  UNL     1      24.234  15.458  17.395  1.00  0.00    -0.075 N
ATOM     30  H93 UNL     1      24.312  15.674  18.389  1.00  0.00     0.274 HD
ATOM     31  H92 UNL     1      23.257  15.165  17.365  1.00  0.00     0.274 HD
ATOM     32  H91 UNL     1      24.854  14.688  17.139  1.00  0.00     0.274 HD
ENDBRANCH  28  29
ENDBRANCH   8  28
TORSDOF 6
ENDMDL