MODEL 4
REMARK VINA RESULT: -6.608962892      0.967      1.008
REMARK  6 active torsions:
REMARK  status: ('A' for Active; 'I' for Inactive)
REMARK    1  A    between atoms: C4_6  and  N2_7
REMARK    2  A    between atoms: N2_7  and  C5_9
REMARK    3  A    between atoms: C5_9  and  C6_10
REMARK    4  A    between atoms: C6_10  and  N3_11
REMARK    5  A    between atoms: N3_11  and  C7_13
REMARK    6  A    between atoms: C9_19  and  N6_20
ROOT
HETATM    1  C1  UNL     1      18.576  15.987  12.575  1.00  0.00     0.021 C
HETATM    2  C2  UNL     1      19.739  16.257  12.397  1.00  0.00    -0.041 C
HETATM    3  C3  UNL     1      21.145  16.565  12.166  1.00  0.00     0.163 A
HETATM    4  N1  UNL     1      22.079  16.291  13.082  1.00  0.00    -0.320 N
ATOM      5  H1  UNL     1      21.776  15.857  13.953  1.00  0.00     0.169 HD
HETATM    6  C4  UNL     1      23.389  16.547  12.936  1.00  0.00     0.134 A
HETATM    7  C10 UNL     1      23.792  17.130  11.764  1.00  0.00     0.122 A
HETATM    8  N8  UNL     1      24.974  17.517  11.285  1.00  0.00    -0.346 N
ATOM      9  H8  UNL     1      25.863  17.428  11.776  1.00  0.00     0.167 HD
HETATM   10  C11 UNL     1      24.818  18.042  10.058  1.00  0.00     0.184 A
HETATM   11  N9  UNL     1      23.510  17.987   9.755  1.00  0.00    -0.332 N
HETATM   12  C12 UNL     1      22.878  18.439   8.536  1.00  0.00     0.158 C
HETATM   13  C13 UNL     1      22.843  17.426  10.796  1.00  0.00     0.141 A
HETATM   14  N10 UNL     1      21.548  17.137  11.018  1.00  0.00    -0.319 N
ATOM     15  H10 UNL     1      20.857  17.356  10.301  1.00  0.00     0.169 HD
ENDROOT
BRANCH   6  16
HETATM   16  N2  UNL     1      24.353  16.245  13.928  1.00  0.00    -0.373 N
ATOM     17  H2  UNL     1      24.938  15.414  13.842  1.00  0.00     0.161 HD
BRANCH  16  18
HETATM   18  C5  UNL     1      24.501  17.139  15.078  1.00  0.00     0.141 C
BRANCH  18  19
HETATM   19  C6  UNL     1      24.326  16.355  16.373  1.00  0.00     0.157 C
BRANCH  19  20
HETATM   20  N3  UNL     1      23.646  17.148  17.344  1.00  0.00    -0.224 N
ATOM     21  H3  UNL     1      24.217  17.651  18.022  1.00  0.00     0.177 HD
BRANCH  20  22
HETATM   22  C7  UNL     1      22.378  17.277  17.432  1.00  0.00     0.693 A
HETATM   23  N4  UNL     1      21.652  17.550  16.337  1.00  0.00    -0.187 N
HETATM   24  C8  UNL     1      20.313  17.696  16.370  1.00  0.00     0.215 A
ATOM     25  H4  UNL     1      22.133  17.649  15.443  1.00  0.00     0.185 HD
HETATM   26  N5  UNL     1      19.675  17.565  17.546  1.00  0.00    -0.187 N
HETATM   27  C9  UNL     1      20.372  17.294  18.656  1.00  0.00     0.691 A
ATOM     28  H5  UNL     1      18.661  17.674  17.593  1.00  0.00     0.185 HD
HETATM   29  N7  UNL     1      21.727  17.149  18.599  1.00  0.00    -0.023 N
ATOM     30  H7  UNL     1      22.250  16.941  19.450  1.00  0.00     0.203 HD
BRANCH  27  31
HETATM   31  N6  UNL     1      19.773  17.168  19.773  1.00  0.00    -0.234 N
ATOM     32  H62 UNL     1      18.834  17.550  19.886  1.00  0.00     0.174 HD
ATOM     33  H61 UNL     1      20.230  16.689  20.548  1.00  0.00     0.174 HD
ENDBRANCH  27  31
ENDBRANCH  20  22
ENDBRANCH  19  20
ENDBRANCH  18  19
ENDBRANCH  16  18
ENDBRANCH   6  16
TORSDOF 6
ENDMDL