MODEL 5
REMARK VINA RESULT: -6.035879734      1.502      3.479
REMARK  7 active torsions:
REMARK  status: ('A' for Active; 'I' for Inactive)
REMARK    1  A    between atoms: C2_2  and  N1_4
REMARK    2  A    between atoms: C5_8  and  C6_9
REMARK    3  A    between atoms: C6_9  and  N3_10
REMARK    4  A    between atoms: N3_10  and  C7_12
REMARK    5  A    between atoms: C8_15  and  N5_16
REMARK    6  A    between atoms: C11_21  and  N7_22
REMARK    7  A    between atoms: C13_28  and  O1_29
ROOT
HETATM    1  N7  UNL     1      25.132  16.769  15.058  1.00  0.00    -0.125 N
ATOM      2  H7  UNL     1      26.085  17.062  14.842  1.00  0.00     0.197 HD
HETATM    3  C12 UNL     1      24.791  16.546  16.379  1.00  0.00     0.196 C
HETATM    4  N8  UNL     1      24.512  16.306  17.503  1.00  0.00    -0.171 NA
ENDROOT
BRANCH   1   5
HETATM    5  C11 UNL     1      24.283  16.621  14.070  1.00  0.00     0.720 A
HETATM    6  N6  UNL     1      24.562  17.183  12.868  1.00  0.00    -0.021 N
HETATM    7  C8  UNL     1      23.540  17.187  11.941  1.00  0.00     0.708 A
ATOM      8  H6  UNL     1      25.477  17.581  12.660  1.00  0.00     0.203 HD
HETATM    9  N4  UNL     1      22.389  16.644  12.292  1.00  0.00    -0.021 N
HETATM   10  C7  UNL     1      22.080  16.094  13.430  1.00  0.00     0.707 A
ATOM     11  H4  UNL     1      21.653  16.657  11.586  1.00  0.00     0.203 HD
HETATM   12  N9  UNL     1      23.089  16.078  14.366  1.00  0.00    -0.021 N
ATOM     13  H9  UNL     1      22.931  15.657  15.282  1.00  0.00     0.203 HD
BRANCH   7  14
HETATM   14  N5  UNL     1      23.779  17.672  10.596  1.00  0.00    -0.225 N
HETATM   15  C9  UNL     1      25.167  17.800  10.137  1.00  0.00     0.168 C
HETATM   16  C10 UNL     1      22.695  18.008   9.749  1.00  0.00     0.168 C
ENDBRANCH   7  14
BRANCH  10  17
HETATM   17  N3  UNL     1      20.982  15.717  13.754  1.00  0.00    -0.219 N
ATOM     18  H3  UNL     1      20.814  14.776  13.398  1.00  0.00     0.178 HD
BRANCH  17  19
HETATM   19  C6  UNL     1      19.857  16.177  14.474  1.00  0.00     0.199 C
BRANCH  19  20
HETATM   20  C5  UNL     1      20.351  15.912  15.929  1.00  0.00     0.080 A
HETATM   21  N2  UNL     1      20.595  14.799  16.543  1.00  0.00    -0.351 N
HETATM   22  C4  UNL     1      21.029  15.121  17.792  1.00  0.00     0.185 A
ATOM     23  H2  UNL     1      20.485  13.860  16.162  1.00  0.00     0.166 HD
HETATM   24  N1  UNL     1      21.045  16.489  17.939  1.00  0.00    -0.318 N
HETATM   25  C13 UNL     1      20.625  16.958  16.761  1.00  0.00     0.168 A
BRANCH  24  26
HETATM   26  C2  UNL     1      21.319  17.287  19.116  1.00  0.00     0.084 C
HETATM   27  C1  UNL     1      20.045  17.603  19.805  1.00  0.00     0.032 C
HETATM   28  C3  UNL     1      22.373  16.606  19.926  1.00  0.00     0.032 C
ENDBRANCH  24  26
BRANCH  25  29
HETATM   29  O1  UNL     1      20.494  18.323  16.445  1.00  0.00    -0.344 OA
ATOM     30  H1  UNL     1      19.680  18.810  16.489  1.00  0.00     0.219 HD
ENDBRANCH  25  29
ENDBRANCH  19  20
ENDBRANCH  17  19
ENDBRANCH  10  17
ENDBRANCH   1   5
TORSDOF 7
ENDMDL