MODEL 3
REMARK VINA RESULT: -4.568335214      1.587      4.971
REMARK  6 active torsions:
REMARK  status: ('A' for Active; 'I' for Inactive)
REMARK    1  A    between atoms: C2_2  and  O1_3
REMARK    2  A    between atoms: O1_3  and  C3_4
REMARK    3  A    between atoms: C3_4  and  N1_5
REMARK    4  A    between atoms: C5_12  and  N4_13
REMARK    5  A    between atoms: C8_18  and  O2_19
REMARK    6  A    between atoms: C9_21  and  O3_22
ROOT
HETATM    1  N4  UNL     1      19.564  16.382  13.177  1.00  0.00    -0.278 N
ATOM      2  H4  UNL     1      20.037  16.814  12.384  1.00  0.00     0.179 HD
HETATM    3  C6  UNL     1      18.222  16.077  13.045  1.00  0.00     0.183 C
HETATM    4  N5  UNL     1      17.104  15.805  12.933  1.00  0.00    -0.172 NA
ENDROOT
BRANCH   1   5
HETATM    5  C5  UNL     1      20.245  16.158  14.229  1.00  0.00     0.145 A
HETATM    6  N3  UNL     1      19.613  15.656  15.302  1.00  0.00    -0.175 N
HETATM    7  C4  UNL     1      20.284  15.408  16.421  1.00  0.00     0.682 A
ATOM      8  H3  UNL     1      18.612  15.466  15.259  1.00  0.00     0.186 HD
HETATM    9  N1  UNL     1      21.627  15.632  16.568  1.00  0.00    -0.155 N
HETATM   10  N2  UNL     1      19.689  14.916  17.474  1.00  0.00    -0.234 N
HETATM   11  C13 UNL     1      22.279  16.138  15.486  1.00  0.00     0.139 A
HETATM   12  C7  UNL     1      21.586  16.412  14.288  1.00  0.00     0.080 A
HETATM   13  C12 UNL     1      23.632  16.387  15.550  1.00  0.00     0.278 A
HETATM   14  C8  UNL     1      22.297  16.921  13.221  1.00  0.00     0.134 A
HETATM   15  C9  UNL     1      23.690  17.159  13.339  1.00  0.00     0.181 A
HETATM   16  N6  UNL     1      24.286  16.885  14.481  1.00  0.00    -0.295 N
HETATM   17  C11 UNL     1      25.728  17.118  14.638  1.00  0.00     0.162 C
HETATM   18  O4  UNL     1      24.258  16.149  16.601  1.00  0.00    -0.265 OA
ATOM     19  H22 UNL     1      20.205  14.725  18.333  1.00  0.00     0.174 HD
ATOM     20  H21 UNL     1      18.689  14.749  17.365  1.00  0.00     0.174 HD
BRANCH   9  21
HETATM   21  C3  UNL     1      22.294  15.349  17.789  1.00  0.00     0.324 C
BRANCH  21  22
HETATM   22  O1  UNL     1      21.773  16.026  18.918  1.00  0.00    -0.344 OA
BRANCH  22  23
HETATM   23  C2  UNL     1      21.945  17.362  19.190  1.00  0.00     0.126 C
HETATM   24  C1  UNL     1      23.157  17.861  19.215  1.00  0.00     0.037 C
ENDBRANCH  22  23
ENDBRANCH  21  22
ENDBRANCH   9  21
BRANCH  14  25
HETATM   25  O2  UNL     1      21.734  17.212  12.045  1.00  0.00    -0.356 OA
ATOM     26  H2  UNL     1      20.944  17.732  11.965  1.00  0.00     0.218 HD
ENDBRANCH  14  25
BRANCH  15  27
HETATM   27  O3  UNL     1      24.386  17.658  12.292  1.00  0.00    -0.338 OA
HETATM   28  C10 UNL     1      24.941  17.013  11.198  1.00  0.00     0.211 C
ENDBRANCH  15  27
ENDBRANCH   1   5
TORSDOF 6
ENDMDL