MODEL 4
REMARK VINA RESULT: -6.282888238      1.281      1.312
REMARK  6 active torsions:
REMARK  status: ('A' for Active; 'I' for Inactive)
REMARK    1  A    between atoms: S1_2  and  C2_3
REMARK    2  A    between atoms: C3_6  and  N2_7
REMARK    3  A    between atoms: N3_13  and  C9_14
REMARK    4  A    between atoms: C9_14  and  C10_15
REMARK    5  A    between atoms: C10_15  and  O1_16
REMARK    6  A    between atoms: C12_22  and  N6_23
ROOT
HETATM    1  C2  UNL     1      20.803  16.516  17.965  1.00  0.00     0.174 A
HETATM    2  N1  UNL     1      21.524  16.725  16.854  1.00  0.00    -0.169 N
ATOM      3  H1  UNL     1      22.229  17.462  16.845  1.00  0.00     0.186 HD
HETATM    4  C3  UNL     1      21.334  15.979  15.745  1.00  0.00     0.696 A
HETATM    5  N5  UNL     1      20.392  15.025  15.823  1.00  0.00    -0.022 N
ATOM      6  H5  UNL     1      20.224  14.441  15.004  1.00  0.00     0.203 HD
HETATM    7  C12 UNL     1      19.663  14.803  16.926  1.00  0.00     0.692 A
HETATM    8  N7  UNL     1      19.854  15.544  18.018  1.00  0.00    -0.170 N
ATOM      9  H7  UNL     1      19.306  15.386  18.864  1.00  0.00     0.186 HD
ENDROOT
BRANCH   4  10
HETATM   10  N2  UNL     1      22.089  16.185  14.555  1.00  0.00    -0.215 N
HETATM   11  C4  UNL     1      22.582  15.109  13.717  1.00  0.00     0.143 C
HETATM   12  C5  UNL     1      22.497  15.743  12.325  1.00  0.00     0.050 C
HETATM   13  C6  UNL     1      22.962  17.132  12.605  1.00  0.00     0.064 C
HETATM   14  C7  UNL     1      24.471  17.157  12.464  1.00  0.00     0.046 C
HETATM   15  N4  UNL     1      22.556  18.086  11.601  1.00  0.00    -0.153 NA
HETATM   16  C11 UNL     1      22.493  17.460  13.978  1.00  0.00     0.169 C
HETATM   17  C8  UNL     1      24.591  17.298  10.940  1.00  0.00     0.111 C
HETATM   18  N3  UNL     1      23.283  17.679  10.490  1.00  0.00    -0.232 NA
BRANCH  18  19
HETATM   19  C9  UNL     1      23.333  18.694   9.457  1.00  0.00     0.135 C
BRANCH  19  20
HETATM   20  C10 UNL     1      22.390  18.353   8.344  1.00  0.00     0.180 C
BRANCH  20  21
HETATM   21  O1  UNL     1      21.089  18.692   8.682  1.00  0.00    -0.400 OA
ATOM     22  H1  UNL     1      20.720  19.287   8.041  1.00  0.00     0.209 HD
ENDBRANCH  20  21
ENDBRANCH  19  20
ENDBRANCH  18  19
ENDBRANCH   4  10
BRANCH   1  23
HETATM   23  S1  UNL     1      21.130  17.556  19.375  1.00  0.00    -0.097 SA
HETATM   24  C1  UNL     1      19.614  18.111  20.171  1.00  0.00     0.099 C
ENDBRANCH   1  23
BRANCH   7  25
HETATM   25  N6  UNL     1      18.768  13.866  16.935  1.00  0.00    -0.234 N
ATOM     26  H62 UNL     1      17.789  14.104  17.095  1.00  0.00     0.174 HD
ATOM     27  H61 UNL     1      19.043  12.896  16.782  1.00  0.00     0.174 HD
ENDBRANCH   7  25
TORSDOF 6
ENDMDL