MODEL 1
REMARK VINA RESULT: -7.488236658      0.000      0.000
REMARK  5 active torsions:
REMARK  status: ('A' for Active; 'I' for Inactive)
REMARK    1  A    between atoms: C3_7  and  N3_8
REMARK    2  A    between atoms: N4_11  and  C6_12
REMARK    3  A    between atoms: C7_15  and  N6_16
REMARK    4  A    between atoms: C8_21  and  C9_22
REMARK    5  A    between atoms: C9_22  and  O1_23
ROOT
HETATM    1  C6  UNL     1      21.955  17.092  16.605  1.00  0.00     0.142 A
HETATM    2  N5  UNL     1      20.698  17.624  16.684  1.00  0.00    -0.175 N
ATOM      3  H5  UNL     1      20.229  17.882  15.815  1.00  0.00     0.186 HD
HETATM    4  C7  UNL     1      20.047  17.827  17.836  1.00  0.00     0.677 A
HETATM    5  N7  UNL     1      20.654  17.491  18.988  1.00  0.00    -0.192 N
ATOM      6  H7  UNL     1      20.170  17.638  19.874  1.00  0.00     0.184 HD
HETATM    7  C8  UNL     1      21.894  16.961  18.985  1.00  0.00     0.074 A
HETATM    8  C10 UNL     1      22.565  16.753  17.794  1.00  0.00     0.114 A
HETATM    9  C11 UNL     1      23.888  16.178  17.762  1.00  0.00     0.105 C
HETATM   10  N8  UNL     1      24.948  15.702  17.754  1.00  0.00    -0.191 NA
ENDROOT
BRANCH   1  11
HETATM   11  N4  UNL     1      22.550  16.934  15.326  1.00  0.00    -0.362 N
HETATM   12  C5  UNL     1      23.720  17.646  14.916  1.00  0.00     0.145 C
HETATM   13  C4  UNL     1      24.194  17.072  13.577  1.00  0.00     0.161 C
HETATM   14  N3  UNL     1      23.124  17.114  12.624  1.00  0.00    -0.213 N
HETATM   15  C13 UNL     1      21.770  16.779  13.076  1.00  0.00     0.161 C
HETATM   16  C12 UNL     1      21.930  16.002  14.386  1.00  0.00     0.145 C
BRANCH  14  17
HETATM   17  C3  UNL     1      23.311  17.465  11.245  1.00  0.00     0.696 A
HETATM   18  N2  UNL     1      24.502  17.405  10.635  1.00  0.00    -0.131 N
HETATM   19  N1  UNL     1      24.358  17.789   9.360  1.00  0.00    -0.275 N
ATOM     20  H2  UNL     1      25.377  17.113  11.071  1.00  0.00     0.205 HD
HETATM   21  C2  UNL     1      23.061  18.100   9.149  1.00  0.00     0.108 A
ATOM     22  H1  UNL     1      25.104  17.838   8.665  1.00  0.00     0.189 HD
HETATM   23  C1  UNL     1      22.447  18.572   7.882  1.00  0.00     0.091 C
HETATM   24  N9  UNL     1      22.433  17.893  10.328  1.00  0.00    -0.178 N
ATOM     25  H9  UNL     1      21.437  18.040  10.495  1.00  0.00     0.185 HD
ENDBRANCH  14  17
ENDBRANCH   1  11
BRANCH   7  26
HETATM   26  C9  UNL     1      22.573  16.585  20.251  1.00  0.00     0.223 C
BRANCH  26  27
HETATM   27  O1  UNL     1      23.785  17.301  20.324  1.00  0.00    -0.395 OA
ATOM     28  H1  UNL     1      23.840  17.697  21.186  1.00  0.00     0.209 HD
ENDBRANCH  26  27
ENDBRANCH   7  26
BRANCH   4  29
HETATM   29  N6  UNL     1      18.845  18.340  17.866  1.00  0.00    -0.234 N
ATOM     30  H62 UNL     1      18.043  17.757  17.626  1.00  0.00     0.174 HD
ATOM     31  H61 UNL     1      18.683  19.312  18.125  1.00  0.00     0.174 HD
ENDBRANCH   4  29
TORSDOF 5
ENDMDL