MODEL 4
REMARK VINA RESULT: -4.953527534      3.275      7.040
REMARK  8 active torsions:
REMARK  status: ('A' for Active; 'I' for Inactive)
REMARK    1  A    between atoms: C2_2  and  N1_3
REMARK    2  A    between atoms: C2_2  and  C6_10
REMARK    3  A    between atoms: C10_21  and  N7_22
REMARK    4  A    between atoms: N7_22  and  C11_24
REMARK    5  A    between atoms: C11_24  and  C12_25
REMARK    6  A    between atoms: C12_25  and  O1_26
REMARK    7  A    between atoms: C12_25  and  C13_28
REMARK    8  A    between atoms: C13_28  and  O2_29
ROOT
HETATM    1  C6  UNL     1      23.617  16.634  15.038  1.00  0.00     0.066 A
HETATM    2  N3  UNL     1      23.969  17.022  16.279  1.00  0.00    -0.298 N
ATOM      3  H3  UNL     1      24.926  17.206  16.579  1.00  0.00     0.187 HD
HETATM    4  N4  UNL     1      22.902  17.133  17.056  1.00  0.00    -0.280 N
HETATM    5  C7  UNL     1      22.813  17.521  18.449  1.00  0.00     0.179 C
HETATM    6  C8  UNL     1      21.827  16.809  16.301  1.00  0.00     0.139 A
HETATM    7  N5  UNL     1      20.522  16.760  16.611  1.00  0.00    -0.337 N
ATOM      8  H5  UNL     1      20.223  16.998  17.557  1.00  0.00     0.168 HD
HETATM    9  C9  UNL     1      19.592  16.399  15.688  1.00  0.00     0.183 A
HETATM   10  N6  UNL     1      20.021  16.094  14.453  1.00  0.00    -0.338 N
ATOM     11  H6  UNL     1      19.326  15.824  13.757  1.00  0.00     0.168 HD
HETATM   12  C10 UNL     1      21.312  16.121  14.077  1.00  0.00     0.118 A
HETATM   13  C14 UNL     1      22.240  16.492  15.034  1.00  0.00     0.079 A
ENDROOT
BRANCH   1  14
HETATM   14  C2  UNL     1      24.510  16.403  13.846  1.00  0.00     0.131 C
HETATM   15  C1  UNL     1      25.936  16.383  14.393  1.00  0.00     0.039 C
BRANCH  14  16
HETATM   16  N1  UNL     1      24.422  17.559  12.965  1.00  0.00    -0.370 N
HETATM   17  C3  UNL     1      24.989  17.523  11.810  1.00  0.00     0.074 C
HETATM   18  C4  UNL     1      25.791  16.624  10.950  1.00  0.00     0.095 C
HETATM   19  N2  UNL     1      25.057  18.503  10.785  1.00  0.00    -0.380 N
HETATM   20  C5  UNL     1      25.144  17.436   9.824  1.00  0.00     0.128 C
ATOM     21  H2  UNL     1      25.048  19.523  10.748  1.00  0.00     0.160 HD
ATOM     22  H1  UNL     1      23.914  18.392  13.261  1.00  0.00     0.161 HD
ENDBRANCH  14  16
ENDBRANCH   1  14
BRANCH  12  23
HETATM   23  N7  UNL     1      21.742  15.831  12.921  1.00  0.00    -0.373 N
ATOM     24  H7  UNL     1      22.602  15.284  12.872  1.00  0.00     0.161 HD
BRANCH  23  25
HETATM   25  C11 UNL     1      21.129  16.202  11.667  1.00  0.00     0.155 C
BRANCH  25  26
HETATM   26  C12 UNL     1      21.393  17.656  11.330  1.00  0.00     0.159 C
BRANCH  26  27
HETATM   27  O1  UNL     1      20.254  18.438  11.534  1.00  0.00    -0.392 OA
ATOM     28  H1  UNL     1      20.437  19.358  11.384  1.00  0.00     0.210 HD
ENDBRANCH  26  27
BRANCH  26  29
HETATM   29  C13 UNL     1      21.859  17.745   9.893  1.00  0.00     0.197 C
BRANCH  29  30
HETATM   30  O2  UNL     1      22.085  19.057   9.517  1.00  0.00    -0.398 OA
ATOM     31  H2  UNL     1      21.280  19.561   9.518  1.00  0.00     0.209 HD
ENDBRANCH  29  30
ENDBRANCH  26  29
ENDBRANCH  25  26
ENDBRANCH  23  25
ENDBRANCH  12  23
TORSDOF 8
ENDMDL