MODEL 1
REMARK VINA RESULT: -7.140474254      0.000      0.000
REMARK  7 active torsions:
REMARK  status: ('A' for Active; 'I' for Inactive)
REMARK    1  A    between atoms: N1_2  and  C2_4
REMARK    2  A    between atoms: C4_10  and  N4_11
REMARK    3  A    between atoms: N4_11  and  C5_13
REMARK    4  A    between atoms: C7_17  and  N6_18
REMARK    5  A    between atoms: N6_18  and  C9_20
REMARK    6  A    between atoms: C9_20  and  C10_21
REMARK    7  A    between atoms: C10_21  and  O1_22
ROOT
HETATM    1  C5  UNL     1      21.921  16.598  13.912  1.00  0.00     0.699 A
HETATM    2  N5  UNL     1      21.286  16.585  15.097  1.00  0.00    -0.183 N
ATOM      3  H5  UNL     1      20.272  16.594  15.204  1.00  0.00     0.184 HD
HETATM    4  C6  UNL     1      22.156  16.557  16.125  1.00  0.00     0.137 A
HETATM    5  C7  UNL     1      21.987  16.533  17.517  1.00  0.00     0.135 A
HETATM    6  N7  UNL     1      23.109  16.509  18.221  1.00  0.00    -0.337 N
ATOM      7  H7  UNL     1      23.026  16.493  19.238  1.00  0.00     0.168 HD
HETATM    8  C11 UNL     1      24.349  16.505  17.699  1.00  0.00     0.183 A
HETATM    9  N8  UNL     1      24.475  16.527  16.371  1.00  0.00    -0.336 N
ATOM     10  H8  UNL     1      25.410  16.525  15.963  1.00  0.00     0.168 HD
HETATM   11  C12 UNL     1      23.414  16.553  15.561  1.00  0.00     0.153 A
HETATM   12  N9  UNL     1      23.231  16.579  14.219  1.00  0.00    -0.173 N
ATOM     13  H9  UNL     1      23.986  16.583  13.534  1.00  0.00     0.186 HD
ENDROOT
BRANCH   1  14
HETATM   14  N4  UNL     1      21.406  16.627  12.608  1.00  0.00    -0.021 N
ATOM     15  H4  UNL     1      20.560  16.084  12.435  1.00  0.00     0.203 HD
BRANCH  14  16
HETATM   16  C4  UNL     1      21.890  17.264  11.623  1.00  0.00     0.712 A
HETATM   17  N3  UNL     1      21.122  18.145  10.959  1.00  0.00    -0.186 N
HETATM   18  C3  UNL     1      21.605  18.848   9.895  1.00  0.00     0.215 A
ATOM     19  H3  UNL     1      20.157  18.290  11.255  1.00  0.00     0.185 HD
HETATM   20  N2  UNL     1      22.892  18.646   9.510  1.00  0.00    -0.187 N
HETATM   21  C2  UNL     1      23.680  17.770  10.159  1.00  0.00     0.693 A
ATOM     22  H2  UNL     1      23.267  19.165   8.716  1.00  0.00     0.185 HD
HETATM   23  N10 UNL     1      23.155  17.102  11.199  1.00  0.00    -0.022 N
ATOM     24  H10 UNL     1      23.749  16.437  11.695  1.00  0.00     0.203 HD
BRANCH  21  25
HETATM   25  N1  UNL     1      24.902  17.578   9.791  1.00  0.00    -0.230 N
HETATM   26  C1  UNL     1      25.970  18.236  10.524  1.00  0.00     0.165 C
ATOM     27  H1  UNL     1      25.116  16.974   8.997  1.00  0.00     0.177 HD
ENDBRANCH  21  25
ENDBRANCH  14  16
ENDBRANCH   1  14
BRANCH   5  28
HETATM   28  N6  UNL     1      20.665  16.555  18.009  1.00  0.00    -0.368 N
HETATM   29  C8  UNL     1      20.025  15.229  18.111  1.00  0.00     0.151 C
BRANCH  28  30
HETATM   30  C9  UNL     1      19.885  17.657  18.426  1.00  0.00     0.150 C
BRANCH  30  31
HETATM   31  C10 UNL     1      19.681  17.859  19.879  1.00  0.00     0.183 C
BRANCH  31  32
HETATM   32  O1  UNL     1      18.413  18.267  20.259  1.00  0.00    -0.399 OA
ATOM     33  H1  UNL     1      17.785  17.572  20.419  1.00  0.00     0.209 HD
ENDBRANCH  31  32
ENDBRANCH  30  31
ENDBRANCH  28  30
ENDBRANCH   5  28
TORSDOF 7
ENDMDL