MODEL 5
REMARK VINA RESULT: -4.776107058      1.455      4.385
REMARK  5 active torsions:
REMARK  status: ('A' for Active; 'I' for Inactive)
REMARK    1  A    between atoms: C3_3  and  N1_4
REMARK    2  A    between atoms: N1_4  and  C5_6
REMARK    3  A    between atoms: C7_8  and  C8_9
REMARK    4  A    between atoms: C8_9  and  C9_10
REMARK    5  A    between atoms: C11_23  and  N7_24
ROOT
HETATM    1  C1  UNL     1      20.682  17.544  19.733  1.00  0.00     0.013 C
HETATM    2  C2  UNL     1      21.787  17.668  19.255  1.00  0.00    -0.087 C
HETATM    3  C3  UNL     1      23.154  17.824  18.690  1.00  0.00     0.365 C
ENDROOT
BRANCH   3   4
HETATM    4  N1  UNL     1      23.363  16.646  17.811  1.00  0.00     0.104 N
HETATM    5  C4  UNL     1      23.667  15.578  18.789  1.00  0.00     0.311 C
BRANCH   4   6
HETATM    6  C5  UNL     1      22.125  16.424  17.116  1.00  0.00     0.266 C
HETATM    7  C6  UNL     1      21.363  15.213  17.592  1.00  0.00     0.074 C
HETATM    8  C7  UNL     1      20.019  15.100  16.969  1.00  0.00     0.140 C
HETATM    9  O1  UNL     1      19.834  15.992  15.854  1.00  0.00    -0.329 OA
HETATM   10  C10 UNL     1      20.941  16.234  15.016  1.00  0.00     0.169 A
HETATM   11  N6  UNL     1      20.898  16.259  13.697  1.00  0.00    -0.170 N
HETATM   12  C13 UNL     1      22.167  16.464  15.656  1.00  0.00     0.068 A
HETATM   13  C11 UNL     1      21.976  16.495  12.907  1.00  0.00     0.679 A
ATOM     14  H6  UNL     1      20.001  16.089  13.243  1.00  0.00     0.186 HD
HETATM   15  N8  UNL     1      23.153  16.719  13.493  1.00  0.00    -0.178 N
HETATM   16  C12 UNL     1      23.257  16.704  14.860  1.00  0.00     0.144 A
ATOM     17  H8  UNL     1      23.979  16.900  12.923  1.00  0.00     0.185 HD
HETATM   18  N9  UNL     1      24.541  16.985  15.359  1.00  0.00    -0.081 NA
BRANCH   8  19
HETATM   19  C8  UNL     1      19.742  13.725  16.400  1.00  0.00     0.112 C
BRANCH  19  20
HETATM   20  C9  UNL     1      18.459  13.138  16.852  1.00  0.00     0.115 A
HETATM   21  N2  UNL     1      17.492  13.658  17.630  1.00  0.00    -0.272 N
HETATM   22  N3  UNL     1      16.523  12.769  17.752  1.00  0.00    -0.227 N
ATOM     23  H2  UNL     1      17.506  14.585  18.056  1.00  0.00     0.190 HD
HETATM   24  N4  UNL     1      16.819  11.692  17.083  1.00  0.00    -0.227 N
ATOM     25  H3  UNL     1      15.668  12.906  18.291  1.00  0.00     0.210 HD
HETATM   26  N5  UNL     1      17.998  11.902  16.528  1.00  0.00    -0.272 N
ATOM     27  H4  UNL     1      16.250  10.849  17.003  1.00  0.00     0.210 HD
ATOM     28  H5  UNL     1      18.493  11.232  15.939  1.00  0.00     0.190 HD
ENDBRANCH  19  20
ENDBRANCH   8  19
BRANCH  13  29
HETATM   29  N7  UNL     1      21.765  16.485  11.647  1.00  0.00    -0.234 N
ATOM     30  H72 UNL     1      21.015  16.985  11.167  1.00  0.00     0.174 HD
ATOM     31  H71 UNL     1      22.407  15.924  11.087  1.00  0.00     0.174 HD
ENDBRANCH  13  29
ENDBRANCH   4   6
ENDBRANCH   3   4
TORSDOF 5
ENDMDL