MODEL 3
REMARK VINA RESULT: -6.028764988      2.611      5.319
REMARK  7 active torsions:
REMARK  status: ('A' for Active; 'I' for Inactive)
REMARK    1  A    between atoms: O1_2  and  N1_3
REMARK    2  A    between atoms: N1_3  and  C2_5
REMARK    3  A    between atoms: C2_5  and  C3_6
REMARK    4  A    between atoms: C3_6  and  N2_7
REMARK    5  A    between atoms: N2_7  and  C4_9
REMARK    6  A    between atoms: C5_12  and  N4_13
REMARK    7  A    between atoms: C10_21  and  N6_22
REMARK       I    between atoms: N6_22  and  C11_24
ROOT
HETATM    1  C4  UNL     1      21.851  15.144  17.525  1.00  0.00     0.707 A
HETATM    2  N3  UNL     1      22.045  15.729  16.313  1.00  0.00    -0.021 N
ATOM      3  H3  UNL     1      22.946  16.152  16.091  1.00  0.00     0.203 HD
HETATM    4  C5  UNL     1      21.057  15.753  15.411  1.00  0.00     0.709 A
HETATM    5  N5  UNL     1      19.895  15.194  15.734  1.00  0.00    -0.021 N
ATOM      6  H5  UNL     1      19.149  15.218  15.039  1.00  0.00     0.203 HD
HETATM    7  C10 UNL     1      19.627  14.583  16.945  1.00  0.00     0.713 A
HETATM    8  N9  UNL     1      20.665  14.588  17.822  1.00  0.00    -0.021 N
ATOM      9  H9  UNL     1      20.539  14.154  18.737  1.00  0.00     0.203 HD
ENDROOT
BRANCH   1  10
HETATM   10  N2  UNL     1      22.834  15.152  18.318  1.00  0.00    -0.220 N
ATOM     11  H2  UNL     1      22.994  14.274  18.813  1.00  0.00     0.178 HD
BRANCH  10  12
HETATM   12  C3  UNL     1      23.752  16.191  18.628  1.00  0.00     0.184 C
BRANCH  12  13
HETATM   13  C2  UNL     1      23.096  17.001  19.716  1.00  0.00     0.107 C
BRANCH  13  14
HETATM   14  N1  UNL     1      21.994  17.583  19.449  1.00  0.00    -0.281 N
ATOM     15  H1  UNL     1      21.996  18.474  18.952  1.00  0.00     0.193 HD
BRANCH  14  16
HETATM   16  O1  UNL     1      20.810  17.013  19.830  1.00  0.00    -0.286 OA
HETATM   17  C1  UNL     1      19.673  17.878  19.831  1.00  0.00     0.237 C
ENDBRANCH  14  16
ENDBRANCH  13  14
ENDBRANCH  12  13
ENDBRANCH  10  12
ENDBRANCH   1  10
BRANCH   4  18
HETATM   18  N4  UNL     1      21.238  16.370  14.136  1.00  0.00    -0.213 N
HETATM   19  C6  UNL     1      22.438  17.148  13.935  1.00  0.00     0.167 C
HETATM   20  C7  UNL     1      22.979  16.962  12.531  1.00  0.00     0.188 C
HETATM   21  O2  UNL     1      22.145  16.130  11.780  1.00  0.00    -0.388 OA
HETATM   22  C8  UNL     1      20.846  16.638  11.802  1.00  0.00     0.188 C
HETATM   23  C9  UNL     1      20.224  16.170  13.128  1.00  0.00     0.167 C
ENDBRANCH   4  18
BRANCH   7  24
HETATM   24  N6  UNL     1      18.508  14.093  17.127  1.00  0.00    -0.163 N
HETATM   25  C11 UNL     1      17.786  12.970  17.062  1.00  0.00     0.200 C
HETATM   26  N7  UNL     1      18.101  11.872  16.528  1.00  0.00    -0.373 N
HETATM   27  N8  UNL     1      16.449  13.019  17.694  1.00  0.00    -0.063 NA
ATOM     28  H72 UNL     1      19.023  11.838  16.091  1.00  0.00     0.158 HD
ATOM     29  H71 UNL     1      17.550  11.015  16.478  1.00  0.00     0.158 HD
ATOM     30  H6  UNL     1      17.893  14.837  17.456  1.00  0.00     0.187 HD
ENDBRANCH   7  24
TORSDOF 7
ENDMDL