MODEL 5
REMARK VINA RESULT: -4.254648545      3.242      5.050
REMARK  7 active torsions:
REMARK  status: ('A' for Active; 'I' for Inactive)
REMARK    1  A    between atoms: N1_2  and  C2_3
REMARK    2  A    between atoms: N1_2  and  C4_7
REMARK    3  A    between atoms: C2_3  and  C3_4
REMARK    4  A    between atoms: C3_4  and  O1_5
REMARK    5  A    between atoms: C5_10  and  N3_11
REMARK    6  A    between atoms: C11_22  and  N6_23
REMARK    7  A    between atoms: C12_28  and  N8_29
ROOT
HETATM    1  C4  UNL     1      50.343  42.195 174.686  1.00  0.00     0.136 A
HETATM    2  N2  UNL     1      51.186  41.152 175.056  1.00  0.00    -0.176 N
ATOM      3  H2  UNL     1      52.145  41.389 175.309  1.00  0.00     0.186 HD
HETATM    4  C5  UNL     1      50.840  39.892 175.103  1.00  0.00     0.683 A
HETATM    5  N4  UNL     1      49.572  39.579 174.770  1.00  0.00    -0.175 N
ATOM      6  H4  UNL     1      49.282  38.602 174.799  1.00  0.00     0.186 HD
HETATM    7  C10 UNL     1      48.690  40.501 174.405  1.00  0.00     0.154 A
HETATM    8  N5  UNL     1      47.437  40.156 174.089  1.00  0.00    -0.175 N
ATOM      9  H5  UNL     1      47.155  39.177 174.121  1.00  0.00     0.186 HD
HETATM   10  C11 UNL     1      46.563  41.085 173.735  1.00  0.00     0.679 A
HETATM   11  N7  UNL     1      46.905  42.367 173.686  1.00  0.00    -0.176 N
ATOM     12  H7  UNL     1      46.214  43.065 173.412  1.00  0.00     0.186 HD
HETATM   13  C12 UNL     1      48.154  42.752 173.996  1.00  0.00     0.132 A
HETATM   14  C13 UNL     1      49.090  41.833 174.364  1.00  0.00     0.098 A
ENDROOT
BRANCH   1  15
HETATM   15  N1  UNL     1      50.980  43.446 174.683  1.00  0.00    -0.368 N
HETATM   16  C1  UNL     1      50.715  44.377 175.734  1.00  0.00     0.151 C
BRANCH  15  17
HETATM   17  C2  UNL     1      51.798  43.829 173.575  1.00  0.00     0.150 C
BRANCH  17  18
HETATM   18  C3  UNL     1      51.316  43.549 172.198  1.00  0.00     0.183 C
BRANCH  18  19
HETATM   19  O1  UNL     1      52.240  42.808 171.460  1.00  0.00    -0.399 OA
ATOM     20  H1  UNL     1      52.242  41.891 171.707  1.00  0.00     0.209 HD
ENDBRANCH  18  19
ENDBRANCH  17  18
ENDBRANCH  15  17
ENDBRANCH   1  15
BRANCH   4  21
HETATM   21  N3  UNL     1      51.698  38.820 175.478  1.00  0.00    -0.213 N
HETATM   22  C6  UNL     1      53.068  39.057 175.908  1.00  0.00     0.167 C
HETATM   23  C7  UNL     1      53.936  38.300 174.899  1.00  0.00     0.188 C
HETATM   24  O2  UNL     1      53.562  36.967 174.802  1.00  0.00    -0.388 OA
HETATM   25  C8  UNL     1      52.553  36.615 175.682  1.00  0.00     0.188 C
HETATM   26  C9  UNL     1      51.277  37.429 175.460  1.00  0.00     0.167 C
ENDBRANCH   4  21
BRANCH  13  27
HETATM   27  N8  UNL     1      48.416  43.975 173.950  1.00  0.00    -0.384 N
ATOM     28  H82 UNL     1      49.304  44.319 173.583  1.00  0.00     0.157 HD
ATOM     29  H81 UNL     1      47.717  44.626 174.308  1.00  0.00     0.157 HD
ENDBRANCH  13  27
BRANCH  10  30
HETATM   30  N6  UNL     1      45.327  40.793 173.418  1.00  0.00    -0.234 N
ATOM     31  H62 UNL     1      44.608  41.043 174.096  1.00  0.00     0.174 HD
ATOM     32  H61 UNL     1      45.087  40.338 172.538  1.00  0.00     0.174 HD
ENDBRANCH  10  30
TORSDOF 7
ENDMDL