MODEL 4
REMARK VINA RESULT: -6.399473401      1.062      1.951
REMARK  6 active torsions:
REMARK  status: ('A' for Active; 'I' for Inactive)
REMARK    1  A    between atoms: C2_3  and  N2_4
REMARK    2  A    between atoms: C5_15  and  S1_16
REMARK    3  A    between atoms: S1_16  and  C6_17
REMARK    4  A    between atoms: C6_17  and  C7_18
REMARK    5  A    between atoms: C7_18  and  N6_19
REMARK    6  A    between atoms: C11_26  and  N8_27
ROOT
HETATM    1  C1  UNL     1      57.319  40.486 165.634  1.00  0.00     0.176 C
HETATM    2  N1  UNL     1      56.966  39.105 165.322  1.00  0.00    -0.181 N
HETATM    3  C2  UNL     1      57.642  38.248 164.533  1.00  0.00     0.680 A
HETATM    4  N3  UNL     1      57.002  37.060 164.493  1.00  0.00    -0.174 N
ATOM      5  H3  UNL     1      57.302  36.237 163.970  1.00  0.00     0.186 HD
HETATM    6  C3  UNL     1      55.887  37.149 165.273  1.00  0.00     0.152 A
HETATM    7  N4  UNL     1      54.917  36.244 165.569  1.00  0.00    -0.336 N
ATOM      8  H4  UNL     1      54.939  35.300 165.184  1.00  0.00     0.168 HD
HETATM    9  C4  UNL     1      53.927  36.639 166.387  1.00  0.00     0.183 A
HETATM   10  N5  UNL     1      53.937  37.874 166.868  1.00  0.00    -0.345 N
ATOM     11  H5  UNL     1      53.167  38.129 167.486  1.00  0.00     0.167 HD
HETATM   12  C5  UNL     1      54.845  38.820 166.629  1.00  0.00     0.102 A
HETATM   13  C13 UNL     1      55.888  38.421 165.773  1.00  0.00     0.129 A
ENDROOT
BRANCH  12  14
HETATM   14  S1  UNL     1      54.888  40.443 167.236  1.00  0.00    -0.108 SA
BRANCH  14  15
HETATM   15  C6  UNL     1      54.165  41.778 166.375  1.00  0.00     0.100 C
BRANCH  15  16
HETATM   16  C7  UNL     1      52.889  41.566 165.637  1.00  0.00     0.127 C
BRANCH  16  17
HETATM   17  N6  UNL     1      51.734  42.170 166.184  1.00  0.00    -0.408 N
HETATM   18  C8  UNL     1      51.408  41.690 167.514  1.00  0.00     0.144 C
HETATM   19  C9  UNL     1      51.870  42.634 168.593  1.00  0.00     0.251 C
HETATM   20  N7  UNL     1      51.268  43.930 168.503  1.00  0.00    -0.072 N
HETATM   21  C10 UNL     1      52.154  44.930 167.938  1.00  0.00     0.266 C
ATOM     22  H72 UNL     1      50.390  43.887 167.987  1.00  0.00     0.277 HD
ATOM     23  H71 UNL     1      50.913  44.229 169.412  1.00  0.00     0.277 HD
HETATM   24  C11 UNL     1      52.730  44.310 166.657  1.00  0.00     0.226 C
HETATM   25  C12 UNL     1      51.604  43.570 166.000  1.00  0.00     0.151 C
BRANCH  24  26
HETATM   26  N8  UNL     1      53.247  45.349 165.784  1.00  0.00    -0.072 N
ATOM     27  H83 UNL     1      52.511  45.767 165.214  1.00  0.00     0.274 HD
ATOM     28  H82 UNL     1      53.525  46.181 166.305  1.00  0.00     0.274 HD
ATOM     29  H81 UNL     1      54.009  44.985 165.214  1.00  0.00     0.274 HD
ENDBRANCH  24  26
ENDBRANCH  16  17
ENDBRANCH  15  16
ENDBRANCH  14  15
ENDBRANCH  12  14
BRANCH   3  30
HETATM   30  N2  UNL     1      58.739  38.461 163.885  1.00  0.00    -0.234 N
ATOM     31  H22 UNL     1      59.302  39.299 164.031  1.00  0.00     0.174 HD
ATOM     32  H21 UNL     1      59.176  37.868 163.181  1.00  0.00     0.174 HD
ENDBRANCH   3  30
TORSDOF 6
ENDMDL