MODEL 3
REMARK VINA RESULT: -7.041212625      2.900      7.335
REMARK  5 active torsions:
REMARK  status: ('A' for Active; 'I' for Inactive)
REMARK    1  A    between atoms: N2_6  and  C4_8
REMARK    2  A    between atoms: C10_20  and  N7_21
REMARK    3  A    between atoms: N7_21  and  C11_23
REMARK    4  A    between atoms: C11_23  and  C12_24
REMARK    5  A    between atoms: C12_24  and  O1_26
ROOT
HETATM    1  C1  UNL     1      55.234  43.583 164.770  1.00  0.00     0.089 C
HETATM    2  C2  UNL     1      54.849  42.247 165.297  1.00  0.00     0.095 A
HETATM    3  N1  UNL     1      53.744  42.102 166.050  1.00  0.00    -0.179 N
ATOM      4  H1  UNL     1      53.164  42.914 166.263  1.00  0.00     0.185 HD
HETATM    5  C3  UNL     1      53.398  40.891 166.525  1.00  0.00     0.703 A
HETATM    6  N2  UNL     1      52.335  40.707 167.258  1.00  0.00    -0.220 N
ATOM      7  H2  UNL     1      52.122  39.767 167.591  1.00  0.00     0.178 HD
HETATM    8  N3  UNL     1      54.126  39.780 166.276  1.00  0.00    -0.064 N
HETATM    9  N4  UNL     1      53.764  38.597 166.757  1.00  0.00    -0.250 N
ATOM     10  H4  UNL     1      52.919  38.536 167.324  1.00  0.00     0.191 HD
HETATM   11  C9  UNL     1      54.470  37.473 166.525  1.00  0.00     0.209 A
HETATM   12  N5  UNL     1      54.082  36.209 167.038  1.00  0.00    -0.062 NA
HETATM   13  N6  UNL     1      55.583  37.595 165.771  1.00  0.00    -0.312 N
ATOM     14  H6  UNL     1      56.142  36.763 165.577  1.00  0.00     0.170 HD
HETATM   15  C10 UNL     1      55.982  38.784 165.266  1.00  0.00     0.151 A
HETATM   16  C14 UNL     1      55.231  39.930 165.523  1.00  0.00     0.191 A
HETATM   17  N8  UNL     1      55.586  41.141 165.042  1.00  0.00    -0.327 N
ATOM     18  H8  UNL     1      56.429  41.223 164.474  1.00  0.00     0.169 HD
ENDROOT
BRANCH   6  19
HETATM   19  C4  UNL     1      51.445  41.798 167.616  1.00  0.00     0.099 C
HETATM   20  C5  UNL     1      51.157  42.674 166.416  1.00  0.00     0.026 C
HETATM   21  C6  UNL     1      50.915  44.026 167.070  1.00  0.00     0.002 C
HETATM   22  C7  UNL     1      52.014  44.106 168.086  1.00  0.00     0.002 C
HETATM   23  C8  UNL     1      52.077  42.716 168.640  1.00  0.00     0.026 C
ENDBRANCH   6  19
BRANCH  15  24
HETATM   24  N7  UNL     1      57.025  38.931 164.553  1.00  0.00    -0.371 N
ATOM     25  H7  UNL     1      56.968  39.597 163.782  1.00  0.00     0.161 HD
BRANCH  24  26
HETATM   26  C11 UNL     1      58.276  38.248 164.731  1.00  0.00     0.152 C
BRANCH  26  27
HETATM   27  C12 UNL     1      58.953  38.055 163.388  1.00  0.00     0.132 C
HETATM   28  C13 UNL     1      60.150  38.973 163.254  1.00  0.00     0.041 C
BRANCH  27  29
HETATM   29  O1  UNL     1      59.398  36.760 163.222  1.00  0.00    -0.394 OA
ATOM     30  H1  UNL     1      59.241  36.443 162.340  1.00  0.00     0.210 HD
ENDBRANCH  27  29
ENDBRANCH  26  27
ENDBRANCH  24  26
ENDBRANCH  15  24
TORSDOF 5
ENDMDL