MODEL 1
REMARK VINA RESULT: -7.914528370      0.000      0.000
REMARK  5 active torsions:
REMARK  status: ('A' for Active; 'I' for Inactive)
REMARK    1  A    between atoms: C2_2  and  C3_3
REMARK    2  A    between atoms: N3_11  and  N4_13
REMARK       I    between atoms: N4_13  and  C7_15
REMARK       I    between atoms: C7_15  and  N5_17
REMARK    3  A    between atoms: N5_17  and  C8_19
REMARK    4  A    between atoms: N6_22  and  N7_23
REMARK    5  A    between atoms: N7_23  and  C11_25
ROOT
HETATM    1  C3  UNL     1      52.419  42.751 166.111  1.00  0.00     0.122 A
HETATM    2  N1  UNL     1      51.439  43.581 165.720  1.00  0.00    -0.333 N
ATOM      3  H1  UNL     1      51.279  43.718 164.722  1.00  0.00     0.168 HD
HETATM    4  C4  UNL     1      50.666  44.233 166.588  1.00  0.00     0.095 A
HETATM    5  C5  UNL     1      49.561  45.159 166.197  1.00  0.00     0.089 C
HETATM    6  N2  UNL     1      50.905  44.029 167.879  1.00  0.00    -0.178 N
ATOM      7  H2  UNL     1      50.329  44.514 168.567  1.00  0.00     0.185 HD
HETATM    8  C6  UNL     1      51.881  43.203 168.317  1.00  0.00     0.721 A
HETATM    9  N3  UNL     1      52.054  43.056 169.553  1.00  0.00    -0.126 N
ATOM     10  H3  UNL     1      52.808  42.415 169.801  1.00  0.00     0.206 HD
HETATM   11  N6  UNL     1      52.666  42.540 167.412  1.00  0.00    -0.070 N
ENDROOT
BRANCH   9  12
HETATM   12  N4  UNL     1      51.413  43.601 170.605  1.00  0.00    -0.237 N
HETATM   13  C7  UNL     1      51.523  43.321 171.975  1.00  0.00     0.335 C
HETATM   14  O1  UNL     1      52.313  42.444 172.393  1.00  0.00    -0.246 OA
HETATM   15  N5  UNL     1      50.751  44.011 172.937  1.00  0.00    -0.338 N
ATOM     16  H5  UNL     1      50.107  44.725 172.597  1.00  0.00     0.164 HD
ATOM     17  H4  UNL     1      50.742  44.332 170.369  1.00  0.00     0.192 HD
BRANCH  15  18
HETATM   18  C8  UNL     1      50.800  43.787 174.359  1.00  0.00     0.078 C
HETATM   19  C9  UNL     1      51.705  44.882 174.951  1.00  0.00     0.032 C
HETATM   20  C10 UNL     1      49.395  43.957 174.926  1.00  0.00     0.032 C
ENDBRANCH  15  18
ENDBRANCH   9  12
BRANCH  11  21
HETATM   21  N7  UNL     1      53.657  41.697 167.810  1.00  0.00    -0.249 N
ATOM     22  H7  UNL     1      54.356  42.090 168.441  1.00  0.00     0.191 HD
BRANCH  21  23
HETATM   23  C11 UNL     1      53.836  40.327 167.449  1.00  0.00     0.191 C
HETATM   24  N8  UNL     1      52.902  39.409 167.389  1.00  0.00    -0.360 N
HETATM   25  C12 UNL     1      53.471  38.143 166.987  1.00  0.00     0.142 C
ATOM     26  H8  UNL     1      51.916  39.566 167.597  1.00  0.00     0.162 HD
HETATM   27  C13 UNL     1      54.842  38.484 166.480  1.00  0.00     0.142 C
HETATM   28  N9  UNL     1      55.094  39.779 167.094  1.00  0.00    -0.360 N
ATOM     29  H9  UNL     1      56.006  40.211 167.242  1.00  0.00     0.162 HD
ENDBRANCH  21  23
ENDBRANCH  11  21
BRANCH   1  30
HETATM   30  C2  UNL     1      53.223  42.081 165.047  1.00  0.00     0.075 C
HETATM   31  C1  UNL     1      54.471  42.865 164.777  1.00  0.00     0.013 C
ENDBRANCH   1  30
TORSDOF 5
ENDMDL