MODEL 1
REMARK VINA RESULT: -7.875041584      0.000      0.000
REMARK  7 active torsions:
REMARK  status: ('A' for Active; 'I' for Inactive)
REMARK    1  A    between atoms: N1_2  and  C2_4
REMARK    2  A    between atoms: N3_8  and  C4_9
REMARK    3  A    between atoms: C4_9  and  C5_10
REMARK    4  A    between atoms: C5_10  and  C6_11
REMARK    5  A    between atoms: C6_11  and  N4_12
REMARK    6  A    between atoms: N4_12  and  C7_14
REMARK    7  A    between atoms: C10_21  and  N7_22
ROOT
HETATM    1  C7  UNL     1      52.516  41.828 167.518  1.00  0.00     0.131 A
HETATM    2  N5  UNL     1      51.677  42.503 168.361  1.00  0.00    -0.337 N
ATOM      3  H5  UNL     1      51.162  41.985 169.073  1.00  0.00     0.168 HD
HETATM    4  C8  UNL     1      51.518  43.830 168.273  1.00  0.00     0.182 A
HETATM    5  N6  UNL     1      52.154  44.594 167.371  1.00  0.00    -0.347 N
ATOM      6  H6  UNL     1      52.008  45.602 167.334  1.00  0.00     0.167 HD
HETATM    7  C9  UNL     1      52.986  43.985 166.523  1.00  0.00     0.108 A
HETATM    8  C10 UNL     1      53.648  44.753 165.588  1.00  0.00     0.129 A
HETATM    9  N8  UNL     1      54.480  44.134 164.742  1.00  0.00    -0.337 N
ATOM     10  H8  UNL     1      54.983  44.677 164.040  1.00  0.00     0.168 HD
HETATM   11  C11 UNL     1      54.661  42.792 164.807  1.00  0.00     0.182 A
HETATM   12  N9  UNL     1      54.008  42.075 165.719  1.00  0.00    -0.347 N
ATOM     13  H9  UNL     1      54.163  41.068 165.744  1.00  0.00     0.167 HD
HETATM   14  C12 UNL     1      53.170  42.599 166.592  1.00  0.00     0.108 A
ENDROOT
BRANCH   1  15
HETATM   15  N4  UNL     1      52.605  40.605 167.667  1.00  0.00    -0.374 N
ATOM     16  H4  UNL     1      53.425  40.355 168.219  1.00  0.00     0.161 HD
BRANCH  15  17
HETATM   17  C6  UNL     1      51.884  39.466 167.281  1.00  0.00     0.123 C
BRANCH  17  18
HETATM   18  C5  UNL     1      52.897  38.421 166.793  1.00  0.00     0.041 C
BRANCH  18  19
HETATM   19  C4  UNL     1      54.268  38.663 167.327  1.00  0.00     0.152 C
BRANCH  19  20
HETATM   20  N3  UNL     1      55.306  38.619 166.345  1.00  0.00    -0.273 N
HETATM   21  C3  UNL     1      56.204  39.553 165.990  1.00  0.00     0.218 A
HETATM   22  N2  UNL     1      56.993  39.081 165.020  1.00  0.00    -0.185 N
HETATM   23  C2  UNL     1      56.590  37.819 164.752  1.00  0.00     0.693 A
ATOM     24  H2  UNL     1      57.758  39.580 164.567  1.00  0.00     0.185 HD
HETATM   25  N10 UNL     1      55.561  37.575 165.580  1.00  0.00    -0.129 N
ATOM     26  H10 UNL     1      55.043  36.697 165.613  1.00  0.00     0.206 HD
BRANCH  23  27
HETATM   27  N1  UNL     1      57.133  37.052 163.861  1.00  0.00    -0.229 N
HETATM   28  C1  UNL     1      58.592  37.062 163.788  1.00  0.00     0.165 C
ATOM     29  H1  UNL     1      56.569  36.470 163.240  1.00  0.00     0.177 HD
ENDBRANCH  23  27
ENDBRANCH  19  20
ENDBRANCH  18  19
ENDBRANCH  17  18
ENDBRANCH  15  17
ENDBRANCH   1  15
BRANCH   8  30
HETATM   30  N7  UNL     1      53.483  46.047 165.514  1.00  0.00    -0.384 N
ATOM     31  H72 UNL     1      54.160  46.675 165.949  1.00  0.00     0.157 HD
ATOM     32  H71 UNL     1      52.688  46.463 165.029  1.00  0.00     0.157 HD
ENDBRANCH   8  30
TORSDOF 7
ENDMDL