MODEL 4
REMARK VINA RESULT: -7.725101750      1.813      7.817
REMARK  5 active torsions:
REMARK  status: ('A' for Active; 'I' for Inactive)
REMARK    1  A    between atoms: C3_3  and  N1_4
REMARK    2  A    between atoms: N1_4  and  C4_6
REMARK    3  A    between atoms: C6_10  and  C7_11
REMARK    4  A    between atoms: C7_11  and  O1_12
REMARK    5  A    between atoms: O1_12  and  C8_13
ROOT
HETATM    1  C1  UNL     1      52.627  45.705 165.146  1.00  0.00     0.014 C
HETATM    2  C2  UNL     1      51.546  45.331 165.535  1.00  0.00    -0.097 C
HETATM    3  C3  UNL     1      50.238  44.874 166.028  1.00  0.00     0.231 C
ENDROOT
BRANCH   3   4
HETATM    4  N1  UNL     1      50.442  43.956 167.128  1.00  0.00    -0.216 N
ATOM      5  H1  UNL     1      49.763  43.945 167.890  1.00  0.00     0.178 HD
BRANCH   4   6
HETATM    6  C4  UNL     1      51.441  43.157 167.182  1.00  0.00     0.678 A
HETATM    7  N2  UNL     1      52.308  43.252 168.205  1.00  0.00    -0.201 N
HETATM    8  C5  UNL     1      53.379  42.431 168.305  1.00  0.00     0.116 A
ATOM      9  H2  UNL     1      52.155  43.960 168.922  1.00  0.00     0.183 HD
HETATM   10  C6  UNL     1      53.571  41.476 167.324  1.00  0.00    -0.002 A
HETATM   11  C13 UNL     1      52.673  41.396 166.285  1.00  0.00     0.116 A
HETATM   12  N9  UNL     1      51.603  42.242 166.215  1.00  0.00    -0.201 N
ATOM     13  H9  UNL     1      50.939  42.178 165.443  1.00  0.00     0.183 HD
BRANCH  10  14
HETATM   14  C7  UNL     1      54.748  40.577 167.438  1.00  0.00     0.220 C
BRANCH  14  15
HETATM   15  O1  UNL     1      55.625  40.703 166.354  1.00  0.00    -0.317 OA
BRANCH  15  16
HETATM   16  C8  UNL     1      56.138  39.555 165.769  1.00  0.00     0.227 A
HETATM   17  N3  UNL     1      55.510  38.379 165.871  1.00  0.00    -0.306 N
HETATM   18  C9  UNL     1      55.984  37.245 165.313  1.00  0.00     0.134 A
ATOM     19  H3  UNL     1      54.634  38.337 166.392  1.00  0.00     0.171 HD
HETATM   20  N4  UNL     1      55.337  36.142 165.442  1.00  0.00    -0.383 N
HETATM   21  C10 UNL     1      57.166  37.292 164.608  1.00  0.00     0.139 A
ATOM     22  H42 UNL     1      54.463  36.107 165.964  1.00  0.00     0.157 HD
ATOM     23  H41 UNL     1      55.696  35.286 165.020  1.00  0.00     0.157 HD
HETATM   24  N5  UNL     1      57.908  36.391 163.942  1.00  0.00    -0.279 N
HETATM   25  C12 UNL     1      57.828  38.500 164.494  1.00  0.00     0.158 A
HETATM   26  N6  UNL     1      58.963  37.014 163.451  1.00  0.00    -0.239 N
ATOM     27  H5  UNL     1      57.694  35.399 163.835  1.00  0.00     0.189 HD
HETATM   28  N7  UNL     1      58.955  38.292 163.760  1.00  0.00    -0.264 N
ATOM     29  H6  UNL     1      59.694  36.561 162.901  1.00  0.00     0.208 HD
HETATM   30  C11 UNL     1      59.907  39.342 163.433  1.00  0.00     0.181 C
HETATM   31  N8  UNL     1      57.288  39.585 165.079  1.00  0.00    -0.305 N
ATOM     32  H8  UNL     1      57.778  40.475 164.994  1.00  0.00     0.171 HD
ENDBRANCH  15  16
ENDBRANCH  14  15
ENDBRANCH  10  14
ENDBRANCH   4   6
ENDBRANCH   3   4
TORSDOF 5
ENDMDL