MODEL 3
REMARK VINA RESULT: -6.844504223      1.781      7.660
REMARK  4 active torsions:
REMARK  status: ('A' for Active; 'I' for Inactive)
REMARK    1  A    between atoms: C2_2  and  C3_3
REMARK    2  A    between atoms: C3_3  and  C4_4
REMARK    3  A    between atoms: C4_4  and  C5_5
REMARK    4  A    between atoms: C8_13  and  N3_14
ROOT
HETATM    1  C5  UNL     1      52.615  44.142 166.125  1.00  0.00     0.098 A
HETATM    2  N1  UNL     1      52.378  43.106 166.936  1.00  0.00    -0.324 N
ATOM      3  H1  UNL     1      51.632  43.045 167.629  1.00  0.00     0.169 HD
HETATM    4  C6  UNL     1      53.283  42.171 166.681  1.00  0.00     0.216 A
HETATM    5  C7  UNL     1      53.368  40.932 167.318  1.00  0.00     0.306 C
HETATM    6  O1  UNL     1      52.396  40.674 168.063  1.00  0.00    -0.263 OA
HETATM    7  N2  UNL     1      54.353  40.007 167.225  1.00  0.00    -0.152 N
ATOM      8  H2  UNL     1      54.481  39.407 168.040  1.00  0.00     0.187 HD
HETATM    9  C8  UNL     1      55.191  39.779 166.178  1.00  0.00     0.698 C
HETATM   10  N5  UNL     1      55.669  40.716 165.352  1.00  0.00    -0.021 N
ATOM     11  H5  UNL     1      56.501  40.469 164.816  1.00  0.00     0.203 HD
HETATM   12  C14 UNL     1      55.164  41.970 165.148  1.00  0.00     0.713 C
HETATM   13  N6  UNL     1      55.805  42.661 164.276  1.00  0.00    -0.232 N
ATOM     14  H61 UNL     1      55.428  43.597 164.123  1.00  0.00     0.174 HD
ATOM     15  H62 UNL     1      56.603  42.187 163.853  1.00  0.00     0.174 HD
HETATM   16  N7  UNL     1      54.107  42.599 165.709  1.00  0.00    -0.062 N
HETATM   17  N8  UNL     1      53.695  43.816 165.364  1.00  0.00    -0.266 N
ATOM     18  H8  UNL     1      54.119  44.407 164.649  1.00  0.00     0.189 HD
ENDROOT
BRANCH   9  19
HETATM   19  N3  UNL     1      55.592  38.441 165.946  1.00  0.00    -0.215 N
HETATM   20  C9  UNL     1      54.614  37.402 166.046  1.00  0.00     0.143 C
HETATM   21  C10 UNL     1      55.336  36.085 166.260  1.00  0.00     0.048 C
HETATM   22  C11 UNL     1      56.200  35.692 165.100  1.00  0.00     0.234 C
HETATM   23  N4  UNL     1      56.210  36.627 164.013  1.00  0.00    -0.074 N
HETATM   24  C12 UNL     1      57.137  37.725 164.220  1.00  0.00     0.252 C
ATOM     25  H42 UNL     1      56.395  36.155 163.129  1.00  0.00     0.277 HD
ATOM     26  H41 UNL     1      55.269  36.974 163.823  1.00  0.00     0.277 HD
HETATM   27  C13 UNL     1      57.001  38.304 165.616  1.00  0.00     0.168 C
ENDBRANCH   9  19
BRANCH   1  28
HETATM   28  C4  UNL     1      51.873  45.401 166.063  1.00  0.00     0.078 C
BRANCH  28  29
HETATM   29  C3  UNL     1      50.556  45.198 165.358  1.00  0.00     0.007 C
BRANCH  29  30
HETATM   30  C2  UNL     1      49.469  44.968 166.363  1.00  0.00    -0.004 C
HETATM   31  C1  UNL     1      48.137  45.349 165.712  1.00  0.00     0.005 C
ENDBRANCH  29  30
ENDBRANCH  28  29
ENDBRANCH   1  28
TORSDOF 4
ENDMDL