MODEL 1
REMARK VINA RESULT: -7.308595738      0.000      0.000
REMARK  7 active torsions:
REMARK  status: ('A' for Active; 'I' for Inactive)
REMARK    1  A    between atoms: C2_3  and  N2_4
REMARK    2  A    between atoms: N2_4  and  C3_6
REMARK    3  A    between atoms: C4_9  and  C5_10
REMARK    4  A    between atoms: C6_13  and  C7_14
REMARK    5  A    between atoms: C7_14  and  C8_15
REMARK    6  A    between atoms: C8_15  and  O1_16
REMARK    7  A    between atoms: C11_21  and  C12_22
ROOT
HETATM    1  N1  UNL     1      59.227  36.953 163.232  1.00  0.00    -0.196 NA
HETATM    2  C1  UNL     1      58.510  37.576 163.915  1.00  0.00     0.078 C
HETATM    3  C2  UNL     1      57.611  38.366 164.753  1.00  0.00     0.246 C
ENDROOT
BRANCH   3   4
HETATM    4  N2  UNL     1      56.487  37.535 165.143  1.00  0.00    -0.358 N
ATOM      5  H2  UNL     1      56.467  36.545 164.896  1.00  0.00     0.162 HD
BRANCH   4   6
HETATM    6  C3  UNL     1      55.490  38.075 165.820  1.00  0.00     0.145 A
HETATM    7  N3  UNL     1      55.179  39.364 165.907  1.00  0.00    -0.333 N
HETATM    8  C4  UNL     1      54.151  39.713 166.629  1.00  0.00     0.085 A
ATOM      9  H3  UNL     1      55.733  40.067 165.418  1.00  0.00     0.168 HD
HETATM   10  C13 UNL     1      53.450  38.715 167.261  1.00  0.00     0.086 A
HETATM   11  S1  UNL     1      54.306  37.318 166.783  1.00  0.00    -0.064 SA
BRANCH   8  12
HETATM   12  C5  UNL     1      53.733  41.137 166.785  1.00  0.00     0.134 A
HETATM   13  N4  UNL     1      54.012  42.047 165.815  1.00  0.00    -0.343 N
HETATM   14  C6  UNL     1      53.659  43.337 165.908  1.00  0.00     0.036 A
ATOM     15  H4  UNL     1      54.511  41.735 164.981  1.00  0.00     0.167 HD
HETATM   16  C9  UNL     1      52.977  43.703 167.076  1.00  0.00     0.097 A
HETATM   17  C10 UNL     1      52.589  45.073 167.187  1.00  0.00     0.104 C
HETATM   18  C11 UNL     1      52.691  42.788 168.061  1.00  0.00     0.098 A
HETATM   19  N5  UNL     1      52.276  46.184 167.251  1.00  0.00    -0.191 NA
HETATM   20  N8  UNL     1      53.081  41.519 167.885  1.00  0.00    -0.337 N
ATOM     21  H8  UNL     1      52.875  40.829 168.608  1.00  0.00     0.168 HD
BRANCH  14  22
HETATM   22  C7  UNL     1      53.976  44.332 164.851  1.00  0.00     0.084 C
BRANCH  22  23
HETATM   23  C8  UNL     1      52.734  44.784 164.118  1.00  0.00     0.170 C
BRANCH  23  24
HETATM   24  O1  UNL     1      52.597  46.165 164.241  1.00  0.00    -0.400 OA
ATOM     25  H1  UNL     1      51.810  46.363 164.736  1.00  0.00     0.209 HD
ENDBRANCH  23  24
ENDBRANCH  22  23
ENDBRANCH  14  22
BRANCH  18  26
HETATM   26  C12 UNL     1      51.984  43.149 169.284  1.00  0.00     0.138 C
HETATM   27  N6  UNL     1      50.928  43.916 169.148  1.00  0.00    -0.386 N
ATOM     28  H62 UNL     1      50.668  44.212 168.207  1.00  0.00     0.157 HD
ATOM     29  H61 UNL     1      50.433  44.169 170.003  1.00  0.00     0.157 HD
HETATM   30  N7  UNL     1      52.340  42.744 170.577  1.00  0.00    -0.081 NA
ENDBRANCH  18  26
ENDBRANCH   8  12
ENDBRANCH   4   6
ENDBRANCH   3   4
TORSDOF 7
ENDMDL