MODEL 4
REMARK VINA RESULT: -6.698330587      1.007      1.983
REMARK  6 active torsions:
REMARK  status: ('A' for Active; 'I' for Inactive)
REMARK    1  A    between atoms: C2_2  and  C3_3
REMARK    2  A    between atoms: C5_10  and  C6_11
REMARK    3  A    between atoms: C6_11  and  N4_13
REMARK    4  A    between atoms: N7_22  and  C10_23
REMARK    5  A    between atoms: C10_23  and  C12_25
REMARK    6  A    between atoms: C12_25  and  O1_26
ROOT
HETATM    1  N4  UNL     1      55.298  40.626 165.230  1.00  0.00    -0.214 N
ATOM      2  H4  UNL     1      55.536  40.558 164.240  1.00  0.00     0.178 HD
HETATM    3  C8  UNL     1      54.497  41.542 165.639  1.00  0.00     0.709 A
HETATM    4  N5  UNL     1      53.938  42.430 164.640  1.00  0.00    -0.020 N
ATOM      5  H5  UNL     1      54.168  42.316 163.652  1.00  0.00     0.203 HD
HETATM    6  C9  UNL     1      53.071  43.451 165.065  1.00  0.00     0.709 A
HETATM    7  N6  UNL     1      52.487  44.217 164.161  1.00  0.00    -0.233 N
ATOM      8  H61 UNL     1      51.858  44.958 164.470  1.00  0.00     0.174 HD
ATOM      9  H62 UNL     1      52.713  44.097 163.174  1.00  0.00     0.174 HD
HETATM   10  N7  UNL     1      52.754  43.619 166.459  1.00  0.00    -0.100 N
HETATM   11  N8  UNL     1      53.340  42.796 167.387  1.00  0.00    -0.207 N
HETATM   12  C13 UNL     1      52.649  42.565 168.605  1.00  0.00     0.201 C
HETATM   13  N9  UNL     1      54.134  41.773 166.975  1.00  0.00    -0.115 N
ATOM     14  H9  UNL     1      54.489  41.130 167.684  1.00  0.00     0.207 HD
ENDROOT
BRANCH   1  15
HETATM   15  C6  UNL     1      55.873  39.673 166.199  1.00  0.00     0.149 C
HETATM   16  C7  UNL     1      54.708  39.645 167.279  1.00  0.00     0.039 C
BRANCH  15  17
HETATM   17  C5  UNL     1      55.985  38.318 165.674  1.00  0.00     0.076 A
HETATM   18  C3  UNL     1      56.985  37.887 164.794  1.00  0.00     0.053 A
HETATM   19  N1  UNL     1      56.717  36.625 164.442  1.00  0.00    -0.288 N
HETATM   20  N2  UNL     1      55.626  36.277 165.054  1.00  0.00    -0.240 N
ATOM     21  H1  UNL     1      57.267  36.043 163.812  1.00  0.00     0.188 HD
HETATM   22  N3  UNL     1      55.157  37.291 165.812  1.00  0.00    -0.282 N
ATOM     23  H2  UNL     1      55.183  35.362 164.974  1.00  0.00     0.208 HD
HETATM   24  C4  UNL     1      53.921  37.090 166.533  1.00  0.00     0.179 C
BRANCH  18  25
HETATM   25  C2  UNL     1      58.179  38.598 164.301  1.00  0.00     0.056 C
HETATM   26  C1  UNL     1      59.056  37.636 163.533  1.00  0.00     0.011 C
ENDBRANCH  18  25
ENDBRANCH  15  17
ENDBRANCH   1  15
BRANCH  10  27
HETATM   27  C10 UNL     1      51.838  44.635 166.932  1.00  0.00     0.148 C
HETATM   28  C11 UNL     1      52.262  46.045 166.618  1.00  0.00     0.037 C
BRANCH  27  29
HETATM   29  C12 UNL     1      50.393  44.382 166.571  1.00  0.00     0.191 C
BRANCH  29  30
HETATM   30  O1  UNL     1      49.633  45.347 167.281  1.00  0.00    -0.399 OA
ATOM     31  H1  UNL     1      50.056  46.183 167.128  1.00  0.00     0.209 HD
ENDBRANCH  29  30
ENDBRANCH  27  29
ENDBRANCH  10  27
TORSDOF 6
ENDMDL