MODEL 2
REMARK VINA RESULT: -7.289228938      1.607      6.795
REMARK  5 active torsions:
REMARK  status: ('A' for Active; 'I' for Inactive)
REMARK    1  A    between atoms: C5_9  and  C6_10
REMARK    2  A    between atoms: C6_10  and  N3_11
REMARK    3  A    between atoms: N3_11  and  C7_14
REMARK    4  A    between atoms: C7_14  and  C9_16
REMARK    5  A    between atoms: N7_26  and  O2_27
ROOT
HETATM    1  C9  UNL     1      54.727  38.317 166.466  1.00  0.00     0.158 A
HETATM    2  N4  UNL     1      54.816  37.076 165.876  1.00  0.00    -0.284 N
ATOM      3  H4  UNL     1      54.075  36.393 166.034  1.00  0.00     0.188 HD
HETATM    4  N5  UNL     1      55.858  36.750 165.099  1.00  0.00    -0.285 N
ATOM      5  H5  UNL     1      55.887  35.821 164.676  1.00  0.00     0.188 HD
HETATM    6  C10 UNL     1      56.852  37.594 164.861  1.00  0.00     0.199 A
HETATM    7  C11 UNL     1      57.965  37.203 164.057  1.00  0.00     0.125 C
HETATM    8  N6  UNL     1      58.898  36.925 163.427  1.00  0.00    -0.190 NA
HETATM    9  C12 UNL     1      56.800  38.838 165.430  1.00  0.00     0.312 A
HETATM   10  O1  UNL     1      57.734  39.629 165.201  1.00  0.00    -0.262 OA
HETATM   11  N7  UNL     1      55.737  39.152 166.217  1.00  0.00    -0.169 N
ENDROOT
BRANCH  11  12
HETATM   12  O2  UNL     1      55.715  40.394 166.760  1.00  0.00    -0.278 OA
ATOM     13  H2  UNL     1      55.911  40.497 167.684  1.00  0.00     0.245 HD
ENDBRANCH  11  12
BRANCH   1  14
HETATM   14  C7  UNL     1      53.525  38.649 167.323  1.00  0.00     0.253 C
HETATM   15  C8  UNL     1      52.362  38.239 166.386  1.00  0.00     0.048 C
BRANCH  14  16
HETATM   16  N3  UNL     1      53.443  40.066 167.607  1.00  0.00    -0.059 N
ATOM     17  H32 UNL     1      54.174  40.599 167.134  1.00  0.00     0.278 HD
ATOM     18  H31 UNL     1      53.707  40.284 168.569  1.00  0.00     0.278 HD
BRANCH  16  19
HETATM   19  C6  UNL     1      52.113  40.542 167.278  1.00  0.00     0.292 C
BRANCH  19  20
HETATM   20  C5  UNL     1      52.063  41.938 166.815  1.00  0.00     0.074 A
HETATM   21  C3  UNL     1      52.258  43.017 167.658  1.00  0.00     0.047 A
HETATM   22  N2  UNL     1      52.361  44.145 166.952  1.00  0.00    -0.194 N
HETATM   23  C4  UNL     1      52.232  42.871 169.162  1.00  0.00     0.071 C
HETATM   24  C2  UNL     1      52.223  43.821 165.626  1.00  0.00     0.678 A
ATOM     25  H2  UNL     1      52.513  45.080 167.331  1.00  0.00     0.184 HD
HETATM   26  N1  UNL     1      52.265  44.666 164.674  1.00  0.00    -0.230 N
HETATM   27  N8  UNL     1      52.044  42.470 165.571  1.00  0.00    -0.192 N
HETATM   28  C1  UNL     1      52.465  46.085 165.027  1.00  0.00     0.165 C
ATOM     29  H1  UNL     1      52.164  44.373 163.703  1.00  0.00     0.177 HD
ATOM     30  H8  UNL     1      51.914  41.936 164.713  1.00  0.00     0.184 HD
ENDBRANCH  19  20
ENDBRANCH  16  19
ENDBRANCH  14  16
ENDBRANCH   1  14
TORSDOF 5
ENDMDL