MODEL 3
REMARK VINA RESULT: -5.691078367      1.748      6.854
REMARK  4 active torsions:
REMARK  status: ('A' for Active; 'I' for Inactive)
REMARK       I    between atoms: C1_2  and  N1_3
REMARK       I    between atoms: C1_2  and  N2_12
REMARK    1  A    between atoms: N1_3  and  C2_5
REMARK    2  A    between atoms: C2_5  and  C3_6
REMARK    3  A    between atoms: C2_5  and  C4_9
REMARK    4  A    between atoms: N2_12  and  C5_14
ROOT
HETATM    1  O1  UNL     1     -35.512   5.919  98.468  1.00  0.00    -0.247 OA
HETATM    2  C1  UNL     1     -35.999   5.717  97.328  1.00  0.00     0.317 C
HETATM    3  N1  UNL     1     -35.121   5.806  96.223  1.00  0.00    -0.320 N
ATOM      4  H1  UNL     1     -35.499   5.644  95.290  1.00  0.00     0.165 HD
HETATM    5  N2  UNL     1     -37.349   5.415  97.129  1.00  0.00    -0.338 N
ATOM      6  H2  UNL     1     -37.662   5.266  96.170  1.00  0.00     0.164 HD
ENDROOT
BRANCH   3   7
HETATM    7  C2  UNL     1     -33.713   6.115  96.351  1.00  0.00     0.289 C
BRANCH   7   8
HETATM    8  C3  UNL     1     -32.880   4.903  96.479  1.00  0.00     0.207 C
HETATM    9  O2  UNL     1     -31.637   5.020  96.454  1.00  0.00    -0.646 OA
HETATM   10  O3  UNL     1     -33.439   3.656  96.626  1.00  0.00    -0.646 OA
ENDBRANCH   7   8
BRANCH   7  11
HETATM   11  C4  UNL     1     -33.283   6.847  95.136  1.00  0.00     0.207 C
HETATM   12  O4  UNL     1     -33.566   6.459  93.983  1.00  0.00    -0.646 OA
HETATM   13  O5  UNL     1     -32.534   8.014  95.277  1.00  0.00    -0.646 OA
ENDBRANCH   7  11
ENDBRANCH   3   7
BRANCH   5  14
HETATM   14  C5  UNL     1     -38.334   5.297  98.176  1.00  0.00     0.098 C
HETATM   15  C6  UNL     1     -39.299   4.145  97.935  1.00  0.00     0.033 C
HETATM   16  C7  UNL     1     -40.220   4.724  96.857  1.00  0.00     0.009 C
HETATM   17  C11 UNL     1     -40.092   3.996  99.228  1.00  0.00     0.174 C
HETATM   18  C8  UNL     1     -40.234   6.217  97.088  1.00  0.00     0.009 C
HETATM   19  C9  UNL     1     -39.284   6.467  98.224  1.00  0.00     0.033 C
HETATM   20  C10 UNL     1     -40.102   6.295  99.512  1.00  0.00     0.174 C
HETATM   21  O6  UNL     1     -39.914   5.060 100.081  1.00  0.00    -0.390 OA
ENDBRANCH   5  14
TORSDOF 4
ENDMDL