MODEL 3
REMARK VINA RESULT: -5.880543574      0.783      1.261
REMARK  8 active torsions:
REMARK  status: ('A' for Active; 'I' for Inactive)
REMARK    1  A    between atoms: C2_2  and  N1_4
REMARK    2  A    between atoms: N1_4  and  C4_5
REMARK    3  A    between atoms: N1_4  and  N3_9
REMARK    4  A    between atoms: C4_5  and  C5_6
REMARK    5  A    between atoms: N3_9  and  C6_11
REMARK    6  A    between atoms: C6_11  and  N4_13
REMARK    7  A    between atoms: N4_13  and  N5_15
REMARK       I    between atoms: N5_15  and  C7_17
REMARK    8  A    between atoms: C7_17  and  C8_19
ROOT
HETATM    1  C6  UNL     1     -35.017   6.234  96.529  1.00  0.00     0.205 C
HETATM    2  S1  UNL     1     -34.353   5.322  97.692  1.00  0.00    -0.038 SA
ENDROOT
BRANCH   1   3
HETATM    3  N3  UNL     1     -34.492   6.243  95.195  1.00  0.00    -0.277 N
ATOM      4  H3  UNL     1     -35.148   6.046  94.439  1.00  0.00     0.189 HD
BRANCH   3   5
HETATM    5  N1  UNL     1     -33.192   6.491  94.838  1.00  0.00    -0.313 N
BRANCH   5   6
HETATM    6  C2  UNL     1     -32.483   5.372  94.319  1.00  0.00     0.094 C
HETATM    7  C1  UNL     1     -33.443   4.165  94.259  1.00  0.00     0.033 C
HETATM    8  C3  UNL     1     -31.308   4.924  95.129  1.00  0.00     0.033 C
ENDBRANCH   5   6
BRANCH   5   9
HETATM    9  C4  UNL     1     -32.993   7.712  94.140  1.00  0.00     0.242 C
BRANCH   9  10
HETATM   10  C5  UNL     1     -31.961   8.570  94.770  1.00  0.00     0.250 C
HETATM   11  N2  UNL     1     -31.343   9.631  94.067  1.00  0.00    -0.061 NA
HETATM   12  O1  UNL     1     -31.622   8.357  95.945  1.00  0.00    -0.275 OA
ENDBRANCH   9  10
ENDBRANCH   5   9
ENDBRANCH   3   5
ENDBRANCH   1   3
BRANCH   1  13
HETATM   13  N4  UNL     1     -36.154   7.058  96.808  1.00  0.00    -0.272 N
ATOM     14  H4  UNL     1     -36.045   8.066  96.926  1.00  0.00     0.189 HD
BRANCH  13  15
HETATM   15  N5  UNL     1     -37.392   6.476  96.916  1.00  0.00    -0.267 N
HETATM   16  C7  UNL     1     -38.030   6.306  98.154  1.00  0.00     0.243 C
HETATM   17  O2  UNL     1     -37.431   6.707  99.191  1.00  0.00    -0.271 OA
ATOM     18  H5  UNL     1     -37.863   6.157  96.069  1.00  0.00     0.190 HD
BRANCH  16  19
HETATM   19  C8  UNL     1     -39.388   5.668  98.263  1.00  0.00     0.032 C
HETATM   20  C9  UNL     1     -40.180   6.040  97.036  1.00  0.00     0.025 C
HETATM   21  C10 UNL     1     -40.111   6.281  99.470  1.00  0.00     0.025 C
HETATM   22  C11 UNL     1     -39.307   4.183  98.458  1.00  0.00     0.025 C
ENDBRANCH  16  19
ENDBRANCH  13  15
ENDBRANCH   1  13
TORSDOF 8
ENDMDL