MODEL 5
REMARK VINA RESULT: -4.676644341      6.884     10.313
REMARK  4 active torsions:
REMARK  status: ('A' for Active; 'I' for Inactive)
REMARK       I    between atoms: C2_4  and  N3_6
REMARK    1  A    between atoms: C3_8  and  C4_9
REMARK    2  A    between atoms: C3_8  and  C10_19
REMARK    3  A    between atoms: C4_9  and  C5_10
REMARK    4  A    between atoms: C5_10  and  N4_11
REMARK       I    between atoms: C10_19  and  N5_21
REMARK       I    between atoms: N5_21  and  C11_23
REMARK       I    between atoms: C11_23  and  N6_25
ROOT
HETATM    1  C1  UNL     1     -37.221   6.570  97.365  1.00  0.00     0.148 C
HETATM    2  N1  UNL     1     -38.015   5.400  97.577  1.00  0.00    -0.369 N
ATOM      3  H1  UNL     1     -37.850   4.575  97.001  1.00  0.00     0.161 HD
HETATM    4  C2  UNL     1     -38.940   5.364  98.485  1.00  0.00     0.188 C
HETATM    5  N2  UNL     1     -39.150   6.542  99.279  1.00  0.00    -0.064 NA
HETATM    6  N3  UNL     1     -39.669   4.200  98.649  1.00  0.00    -0.330 N
ATOM      7  H3  UNL     1     -39.123   3.403  98.979  1.00  0.00     0.168 HD
HETATM    8  C3  UNL     1     -40.907   3.950  98.460  1.00  0.00     0.082 C
ENDROOT
BRANCH   8   9
HETATM    9  C4  UNL     1     -41.830   4.975  97.988  1.00  0.00     0.101 C
BRANCH   9  10
HETATM   10  C5  UNL     1     -42.219   5.052  96.583  1.00  0.00     0.129 C
HETATM   11  C6  UNL     1     -43.437   4.319  96.110  1.00  0.00     0.039 C
HETATM   12  C7  UNL     1     -43.358   4.725  94.617  1.00  0.00     0.002 C
HETATM   13  C8  UNL     1     -41.942   4.340  94.291  1.00  0.00     0.002 C
HETATM   14  C9  UNL     1     -41.172   4.620  95.563  1.00  0.00     0.039 C
BRANCH  10  15
HETATM   15  N4  UNL     1     -42.506   6.489  96.305  1.00  0.00    -0.070 N
ATOM     16  H43 UNL     1     -42.156   7.119  97.027  1.00  0.00     0.275 HD
ATOM     17  H42 UNL     1     -41.960   6.869  95.531  1.00  0.00     0.275 HD
ATOM     18  H41 UNL     1     -43.513   6.558  96.162  1.00  0.00     0.275 HD
ENDBRANCH  10  15
ENDBRANCH   9  10
ENDBRANCH   8   9
BRANCH   8  19
HETATM   19  C10 UNL     1     -41.351   2.573  98.720  1.00  0.00     0.272 C
HETATM   20  O1  UNL     1     -42.530   2.309  99.038  1.00  0.00    -0.266 OA
HETATM   21  N5  UNL     1     -40.397   1.542  98.600  1.00  0.00    -0.274 N
HETATM   22  C11 UNL     1     -40.519   0.172  98.781  1.00  0.00     0.322 C
ATOM     23  H5  UNL     1     -39.463   1.854  98.336  1.00  0.00     0.173 HD
HETATM   24  O2  UNL     1     -39.494  -0.597  98.614  1.00  0.00    -0.247 OA
HETATM   25  N6  UNL     1     -41.707  -0.480  99.144  1.00  0.00    -0.347 N
HETATM   26  C12 UNL     1     -41.772  -1.935  99.320  1.00  0.00     0.151 C
ATOM     27  H6  UNL     1     -42.551   0.075  99.289  1.00  0.00     0.163 HD
ENDBRANCH   8  19
TORSDOF 4
ENDMDL