MODEL 4
REMARK VINA RESULT: -6.078837087      1.327      1.673
REMARK  5 active torsions:
REMARK  status: ('A' for Active; 'I' for Inactive)
REMARK    1  A    between atoms: C2_2  and  N1_5
REMARK       I    between atoms: N1_5  and  C5_7
REMARK       I    between atoms: C5_7  and  N2_9
REMARK    2  A    between atoms: N2_9  and  C6_11
REMARK    3  A    between atoms: C6_11  and  C7_12
REMARK       I    between atoms: C7_12  and  N3_14
REMARK       I    between atoms: N3_14  and  C8_16
REMARK    4  A    between atoms: C8_16  and  C9_18
REMARK    5  A    between atoms: C9_18  and  O4_19
ROOT
HETATM    1  C6  UNL     1     -33.284   5.930  95.337  1.00  0.00     0.116 A
HETATM    2  C10 UNL     1     -33.167   4.779  94.362  1.00  0.00     0.041 A
HETATM    3  C11 UNL     1     -32.440   3.989  95.407  1.00  0.00     0.006 A
HETATM    4  C12 UNL     1     -32.650   5.087  96.387  1.00  0.00     0.041 A
ENDROOT
BRANCH   1   5
HETATM    5  N2  UNL     1     -34.653   6.315  95.526  1.00  0.00    -0.325 N
HETATM    6  C5  UNL     1     -35.462   5.978  96.628  1.00  0.00     0.317 C
HETATM    7  N1  UNL     1     -36.828   6.424  96.696  1.00  0.00    -0.335 N
HETATM    8  O1  UNL     1     -34.985   5.282  97.555  1.00  0.00    -0.247 OA
ATOM      9  H1  UNL     1     -37.202   6.989  95.933  1.00  0.00     0.165 HD
ATOM     10  H2  UNL     1     -35.080   6.885  94.796  1.00  0.00     0.165 HD
BRANCH   7  11
HETATM   11  C2  UNL     1     -37.685   6.101  97.805  1.00  0.00     0.023 C
HETATM   12  C1  UNL     1     -39.106   6.418  97.460  1.00  0.00     0.037 C
HETATM   13  C3  UNL     1     -37.586   4.623  98.138  1.00  0.00     0.037 C
HETATM   14  C4  UNL     1     -37.192   6.888  99.003  1.00  0.00     0.037 C
ENDBRANCH   7  11
ENDBRANCH   1   5
BRANCH   1  15
HETATM   15  C7  UNL     1     -32.415   7.094  94.958  1.00  0.00     0.252 C
HETATM   16  O2  UNL     1     -32.140   7.274  93.751  1.00  0.00    -0.270 OA
HETATM   17  N3  UNL     1     -31.907   7.981  95.924  1.00  0.00    -0.294 N
HETATM   18  C8  UNL     1     -31.090   9.066  95.526  1.00  0.00     0.247 C
ATOM     19  H3  UNL     1     -32.127   7.842  96.910  1.00  0.00     0.171 HD
HETATM   20  O3  UNL     1     -30.843   9.201  94.300  1.00  0.00    -0.271 OA
BRANCH  18  21
HETATM   21  C9  UNL     1     -30.544  10.017  96.541  1.00  0.00     0.267 C
BRANCH  21  22
HETATM   22  O4  UNL     1     -29.293   9.566  96.947  1.00  0.00    -0.392 OA
ATOM     23  H4  UNL     1     -29.040  10.037  97.732  1.00  0.00     0.210 HD
ENDBRANCH  21  22
ENDBRANCH  18  21
ENDBRANCH   1  15
TORSDOF 5
ENDMDL