MODEL 1
REMARK VINA RESULT: -7.448493365      0.000      0.000
REMARK  7 active torsions:
REMARK  status: ('A' for Active; 'I' for Inactive)
REMARK    1  A    between atoms: O1_2  and  C2_3
REMARK    2  A    between atoms: C7_8  and  C8_9
REMARK    3  A    between atoms: C8_9  and  O2_10
REMARK    4  A    between atoms: C8_9  and  N1_12
REMARK    5  A    between atoms: N1_12  and  N2_14
REMARK       I    between atoms: N2_14  and  C9_16
REMARK    6  A    between atoms: C9_16  and  C10_18
REMARK    7  A    between atoms: C10_18  and  N3_20
REMARK       I    between atoms: N3_20  and  C12_22
ROOT
HETATM    1  N1  UNL     1     -32.836   4.599  96.586  1.00  0.00    -0.277 N
ATOM      2  H1  UNL     1     -32.830   3.585  96.474  1.00  0.00     0.189 HD
ENDROOT
BRANCH   1   3
HETATM    3  C8  UNL     1     -31.918   5.396  95.911  1.00  0.00     0.168 C
BRANCH   3   4
HETATM    4  C7  UNL     1     -32.201   6.482  95.007  1.00  0.00     0.049 A
HETATM    5  C2  UNL     1     -31.816   7.767  95.206  1.00  0.00     0.082 A
HETATM    6  C3  UNL     1     -32.117   8.784  94.296  1.00  0.00     0.038 A
HETATM    7  C4  UNL     1     -32.823   8.498  93.154  1.00  0.00     0.003 A
HETATM    8  C5  UNL     1     -33.218   7.205  92.938  1.00  0.00     0.001 A
HETATM    9  C6  UNL     1     -32.920   6.230  93.830  1.00  0.00     0.018 A
BRANCH   5  10
HETATM   10  O1  UNL     1     -31.107   8.131  96.326  1.00  0.00    -0.355 OA
HETATM   11  C1  UNL     1     -30.750   9.472  96.547  1.00  0.00     0.210 C
ENDBRANCH   5  10
ENDBRANCH   3   4
BRANCH   3  12
HETATM   12  O2  UNL     1     -30.671   5.099  96.147  1.00  0.00    -0.344 OA
ATOM     13  H2  UNL     1     -30.105   4.917  95.407  1.00  0.00     0.219 HD
ENDBRANCH   3  12
ENDBRANCH   1   3
BRANCH   1  14
HETATM   14  N2  UNL     1     -33.785   5.235  97.436  1.00  0.00    -0.266 N
HETATM   15  C9  UNL     1     -35.101   5.445  96.983  1.00  0.00     0.258 C
HETATM   16  O3  UNL     1     -35.426   5.073  95.840  1.00  0.00    -0.269 OA
ATOM     17  H2  UNL     1     -33.511   5.537  98.371  1.00  0.00     0.190 HD
BRANCH  15  18
HETATM   18  C10 UNL     1     -36.077   6.103  97.870  1.00  0.00     0.174 C
HETATM   19  C11 UNL     1     -35.542   7.437  98.272  1.00  0.00     0.042 C
BRANCH  18  20
HETATM   20  N3  UNL     1     -37.397   6.175  97.281  1.00  0.00    -0.348 N
HETATM   21  C12 UNL     1     -38.569   6.060  98.051  1.00  0.00     0.214 C
HETATM   22  C13 UNL     1     -39.909   6.137  97.422  1.00  0.00     0.117 C
HETATM   23  O4  UNL     1     -38.494   5.890  99.288  1.00  0.00    -0.274 OA
ATOM     24  H3  UNL     1     -37.481   6.312  96.274  1.00  0.00     0.163 HD
ENDBRANCH  18  20
ENDBRANCH  15  18
ENDBRANCH   1  14
TORSDOF 7
ENDMDL