MODEL 1
REMARK VINA RESULT: -6.686229904      0.000      0.000
REMARK  6 active torsions:
REMARK  status: ('A' for Active; 'I' for Inactive)
REMARK    1  A    between atoms: C1_2  and  N1_3
REMARK    2  A    between atoms: N1_3  and  N2_5
REMARK    3  A    between atoms: N2_5  and  C2_7
REMARK    4  A    between atoms: C2_7  and  N3_9
REMARK    5  A    between atoms: N3_9  and  C3_11
REMARK    6  A    between atoms: C3_11  and  C4_12
ROOT
HETATM    1  C4  UNL     1     -32.177   4.964  95.437  1.00  0.00     0.206 C
HETATM    2  C5  UNL     1     -32.510   5.566  96.793  1.00  0.00     0.072 C
HETATM    3  C6  UNL     1     -33.961   5.199  97.066  1.00  0.00     0.064 C
HETATM    4  C7  UNL     1     -34.788   5.830  95.978  1.00  0.00     0.040 C
HETATM    5  C8  UNL     1     -36.027   6.281  96.708  1.00  0.00     0.029 C
HETATM    6  C9  UNL     1     -35.660   6.191  98.145  1.00  0.00     0.168 C
HETATM    7  O2  UNL     1     -34.380   5.698  98.265  1.00  0.00    -0.380 OA
HETATM    8  C10 UNL     1     -34.085   3.698  97.059  1.00  0.00     0.065 C
HETATM    9  C11 UNL     1     -33.383   3.029  95.929  1.00  0.00     0.235 C
HETATM   10  N4  UNL     1     -32.075   3.550  95.625  1.00  0.00    -0.069 N
ATOM     11  H41 UNL     1     -31.382   3.298  96.329  1.00  0.00     0.277 HD
ATOM     12  H42 UNL     1     -31.644   3.081  94.829  1.00  0.00     0.277 HD
ENDROOT
BRANCH   1  13
HETATM   13  C3  UNL     1     -31.027   5.624  94.772  1.00  0.00     0.155 C
BRANCH  13  14
HETATM   14  N3  UNL     1     -31.325   6.398  93.613  1.00  0.00    -0.364 N
ATOM     15  H3  UNL     1     -31.225   5.989  92.684  1.00  0.00     0.162 HD
BRANCH  14  16
HETATM   16  C2  UNL     1     -31.759   7.737  93.756  1.00  0.00     0.186 C
HETATM   17  S1  UNL     1     -33.261   8.134  93.275  1.00  0.00    -0.040 SA
BRANCH  16  18
HETATM   18  N2  UNL     1     -30.893   8.700  94.314  1.00  0.00    -0.274 N
ATOM     19  H2  UNL     1     -29.946   8.795  93.948  1.00  0.00     0.189 HD
BRANCH  18  20
HETATM   20  N1  UNL     1     -31.314   9.533  95.368  1.00  0.00    -0.275 N
ATOM     21  H1  UNL     1     -32.159  10.086  95.227  1.00  0.00     0.189 HD
BRANCH  20  22
HETATM   22  C1  UNL     1     -30.655   9.654  96.594  1.00  0.00     0.368 C
HETATM   23  O1  UNL     1     -29.411   9.691  96.732  1.00  0.00    -0.282 OA
ENDBRANCH  20  22
ENDBRANCH  18  20
ENDBRANCH  16  18
ENDBRANCH  14  16
ENDBRANCH  13  14
ENDBRANCH   1  13
TORSDOF 6
ENDMDL