MODEL 1
REMARK VINA RESULT: -8.413015989      0.000      0.000
REMARK  4 active torsions:
REMARK  status: ('A' for Active; 'I' for Inactive)
REMARK    1  A    between atoms: C2_2  and  N1_3
REMARK    2  A    between atoms: C2_2  and  C12_22
REMARK       I    between atoms: N1_3  and  C3_5
REMARK       I    between atoms: C3_5  and  N4_10
REMARK    3  A    between atoms: N4_10  and  N5_12
REMARK       I    between atoms: N5_12  and  C5_14
REMARK    4  A    between atoms: C5_14  and  C6_16
ROOT
HETATM    1  N1  UNL     1     -33.192   7.456  95.271  1.00  0.00    -0.210 N
ATOM      2  H1  UNL     1     -33.714   8.201  95.735  1.00  0.00     0.178 HD
HETATM    3  C3  UNL     1     -33.351   6.104  95.671  1.00  0.00     0.702 C
HETATM    4  N2  UNL     1     -33.117   5.147  94.888  1.00  0.00    -0.125 N
ATOM      5  H2  UNL     1     -32.805   5.390  93.947  1.00  0.00     0.197 HD
HETATM    6  C4  UNL     1     -33.238   3.812  95.172  1.00  0.00     0.196 C
HETATM    7  N3  UNL     1     -33.355   2.671  95.408  1.00  0.00    -0.171 NA
HETATM    8  N4  UNL     1     -33.793   5.843  97.004  1.00  0.00    -0.129 N
ATOM      9  H4  UNL     1     -33.137   5.801  97.784  1.00  0.00     0.205 HD
ENDROOT
BRANCH   1  10
HETATM   10  C2  UNL     1     -32.281   7.756  94.198  1.00  0.00     0.196 C
HETATM   11  C1  UNL     1     -32.989   7.764  92.864  1.00  0.00     0.044 C
BRANCH  10  12
HETATM   12  C12 UNL     1     -31.546   9.005  94.471  1.00  0.00     0.196 C
HETATM   13  O2  UNL     1     -31.758  10.022  93.727  1.00  0.00    -0.646 OA
HETATM   14  O3  UNL     1     -30.635   9.140  95.494  1.00  0.00    -0.646 OA
ENDBRANCH  10  12
ENDBRANCH   1  10
BRANCH   8  15
HETATM   15  N5  UNL     1     -35.158   5.652  97.193  1.00  0.00    -0.251 N
HETATM   16  C5  UNL     1     -35.967   6.537  97.930  1.00  0.00     0.270 C
HETATM   17  O1  UNL     1     -35.448   7.570  98.447  1.00  0.00    -0.266 OA
ATOM     18  H5  UNL     1     -35.593   4.829  96.778  1.00  0.00     0.191 HD
BRANCH  16  19
HETATM   19  C6  UNL     1     -37.409   6.276  98.106  1.00  0.00     0.033 A
HETATM   20  C7  UNL     1     -38.188   5.826  97.063  1.00  0.00     0.017 A
HETATM   21  C8  UNL     1     -39.542   5.591  97.225  1.00  0.00     0.001 A
HETATM   22  C9  UNL     1     -40.172   5.795  98.435  1.00  0.00     0.000 A
HETATM   23  C10 UNL     1     -39.385   6.244  99.478  1.00  0.00     0.001 A
HETATM   24  C11 UNL     1     -38.025   6.482  99.318  1.00  0.00     0.017 A
ENDBRANCH  16  19
ENDBRANCH   8  15
TORSDOF 4
ENDMDL