MODEL 1
REMARK VINA RESULT: -7.054418556      0.000      0.000
REMARK  5 active torsions:
REMARK  status: ('A' for Active; 'I' for Inactive)
REMARK    1  A    between atoms: C2_2  and  N1_4
REMARK    2  A    between atoms: N1_4  and  N2_5
REMARK       I    between atoms: N2_5  and  C4_7
REMARK    3  A    between atoms: C4_7  and  C5_9
REMARK    4  A    between atoms: C5_9  and  C6_10
REMARK    5  A    between atoms: C5_9  and  N3_13
ROOT
HETATM    1  C5  UNL     1     -32.955   5.567  96.054  1.00  0.00     0.203 C
ENDROOT
BRANCH   1   2
HETATM    2  C4  UNL     1     -34.180   5.351  96.777  1.00  0.00     0.258 C
HETATM    3  N2  UNL     1     -35.474   5.561  96.279  1.00  0.00    -0.272 N
ATOM      4  H2  UNL     1     -35.569   5.890  95.319  1.00  0.00     0.185 HD
HETATM    5  O1  UNL     1     -34.103   4.934  97.986  1.00  0.00    -0.270 OA
BRANCH   3   6
HETATM    6  N1  UNL     1     -36.634   5.350  97.011  1.00  0.00    -0.135 NA
BRANCH   6   7
HETATM    7  C2  UNL     1     -37.312   6.548  97.397  1.00  0.00     0.091 C
HETATM    8  C1  UNL     1     -38.779   6.176  97.648  1.00  0.00     0.029 C
HETATM    9  C3  UNL     1     -36.734   7.167  98.645  1.00  0.00     0.029 C
ENDBRANCH   6   7
ENDBRANCH   3   6
ENDBRANCH   1   2
BRANCH   1  10
HETATM   10  C6  UNL     1     -32.653   4.515  94.976  1.00  0.00     0.011 C
HETATM   11  C7  UNL     1     -31.155   4.552  94.679  1.00  0.00     0.012 C
HETATM   12  C8  UNL     1     -32.990   3.132  95.457  1.00  0.00     0.012 C
ENDBRANCH   1  10
BRANCH   1  13
HETATM   13  N3  UNL     1     -32.676   6.816  95.487  1.00  0.00    -0.287 N
HETATM   14  C9  UNL     1     -32.287   7.915  96.273  1.00  0.00     0.109 C
HETATM   15  C10 UNL     1     -31.109   8.596  95.575  1.00  0.00     0.122 C
HETATM   16  C11 UNL     1     -31.016  10.042  96.009  1.00  0.00     0.038 C
HETATM   17  N4  UNL     1     -31.293   8.612  94.145  1.00  0.00    -0.333 N
HETATM   18  C12 UNL     1     -32.510   8.142  93.532  1.00  0.00     0.335 C
ATOM     19  H4  UNL     1     -30.543   8.965  93.551  1.00  0.00     0.165 HD
HETATM   20  O2  UNL     1     -32.913   8.625  92.451  1.00  0.00    -0.246 OA
HETATM   21  N5  UNL     1     -33.182   7.113  94.249  1.00  0.00    -0.249 N
ATOM     22  H5  UNL     1     -33.991   6.626  93.864  1.00  0.00     0.192 HD
ENDBRANCH   1  13
TORSDOF 5
ENDMDL