MODEL 1
REMARK VINA RESULT: -7.593636490      0.000      0.000
REMARK  3 active torsions:
REMARK  status: ('A' for Active; 'I' for Inactive)
REMARK       I    between atoms: C2_4  and  N2_5
REMARK       I    between atoms: C2_4  and  N3_13
REMARK    1  A    between atoms: N2_5  and  C3_7
REMARK    2  A    between atoms: N3_13  and  S1_15
REMARK    3  A    between atoms: S1_15  and  N4_18
REMARK       I    between atoms: N4_18  and  C9_19
ROOT
HETATM    1  C1  UNL     1     -33.172   3.127  95.440  1.00  0.00     0.165 C
HETATM    2  N1  UNL     1     -33.042   4.508  95.220  1.00  0.00    -0.230 N
ATOM      3  H1  UNL     1     -32.119   4.777  94.879  1.00  0.00     0.177 HD
HETATM    4  C2  UNL     1     -33.817   5.476  95.354  1.00  0.00     0.685 C
HETATM    5  N2  UNL     1     -35.120   5.252  95.849  1.00  0.00    -0.221 N
ATOM      6  H2  UNL     1     -35.591   4.390  95.574  1.00  0.00     0.178 HD
HETATM    7  N3  UNL     1     -33.420   6.750  94.894  1.00  0.00    -0.089 N
ATOM      8  H3  UNL     1     -34.130   7.381  94.521  1.00  0.00     0.200 HD
ENDROOT
BRANCH   5   9
HETATM    9  C3  UNL     1     -35.823   6.150  96.707  1.00  0.00     0.099 C
HETATM   10  C4  UNL     1     -35.157   6.193  98.092  1.00  0.00     0.026 C
HETATM   11  C5  UNL     1     -35.897   7.250  98.848  1.00  0.00     0.002 C
HETATM   12  C6  UNL     1     -37.321   6.853  99.125  1.00  0.00     0.000 C
HETATM   13  C7  UNL     1     -37.981   5.982  98.121  1.00  0.00     0.002 C
HETATM   14  C8  UNL     1     -37.258   5.660  96.842  1.00  0.00     0.026 C
ENDBRANCH   5   9
BRANCH   7  15
HETATM   15  S1  UNL     1     -31.796   7.272  94.940  1.00  0.00     0.407 S
HETATM   16  O1  UNL     1     -31.092   6.328  95.965  1.00  0.00    -0.169 OA
HETATM   17  O2  UNL     1     -31.127   6.795  93.644  1.00  0.00    -0.169 OA
BRANCH  15  18
HETATM   18  N4  UNL     1     -31.540   8.846  95.230  1.00  0.00    -0.267 NA
HETATM   19  C9  UNL     1     -31.321  10.183  95.481  1.00  0.00     0.301 C
HETATM   20  C10 UNL     1     -31.920  11.036  94.338  1.00  0.00     0.136 C
HETATM   21  O3  UNL     1     -30.774  10.713  96.464  1.00  0.00    -0.257 OA
ENDBRANCH  15  18
ENDBRANCH   7  15
TORSDOF 3
ENDMDL