MODEL 3
REMARK VINA RESULT: -6.354320512      1.178      1.239
REMARK  6 active torsions:
REMARK  status: ('A' for Active; 'I' for Inactive)
REMARK    1  A    between atoms: C2_2  and  N1_5
REMARK       I    between atoms: N1_5  and  C5_7
REMARK    2  A    between atoms: C5_7  and  C6_9
REMARK    3  A    between atoms: C6_9  and  N2_10
REMARK    4  A    between atoms: C6_9  and  N3_14
REMARK    5  A    between atoms: N2_10  and  C7_12
REMARK       I    between atoms: N3_14  and  C8_16
REMARK    6  A    between atoms: C8_16  and  C9_18
ROOT
HETATM    1  C6  UNL     1     -33.774   5.824  97.153  1.00  0.00     0.280 C
ENDROOT
BRANCH   1   2
HETATM    2  C5  UNL     1     -33.549   6.303  95.749  1.00  0.00     0.261 C
HETATM    3  N1  UNL     1     -32.622   7.365  95.605  1.00  0.00    -0.350 N
ATOM      4  H1  UNL     1     -32.199   7.724  96.460  1.00  0.00     0.163 HD
HETATM    5  O1  UNL     1     -34.104   5.803  94.767  1.00  0.00    -0.269 OA
BRANCH   3   6
HETATM    6  C2  UNL     1     -32.219   7.984  94.374  1.00  0.00     0.022 C
HETATM    7  C1  UNL     1     -31.585   9.359  94.703  1.00  0.00     0.037 C
HETATM    8  C3  UNL     1     -33.407   8.317  93.459  1.00  0.00     0.037 C
HETATM    9  C4  UNL     1     -31.269   7.136  93.635  1.00  0.00     0.037 C
ENDBRANCH   3   6
ENDBRANCH   1   2
BRANCH   1  10
HETATM   10  N2  UNL     1     -32.941   4.601  97.291  1.00  0.00    -0.339 N
ATOM     11  H2  UNL     1     -31.982   4.648  97.637  1.00  0.00     0.164 HD
BRANCH  10  12
HETATM   12  C7  UNL     1     -33.543   3.342  96.917  1.00  0.00     0.350 C
HETATM   13  O2  UNL     1     -33.310   2.860  95.798  1.00  0.00    -0.284 OA
ENDBRANCH  10  12
ENDBRANCH   1  10
BRANCH   1  14
HETATM   14  N3  UNL     1     -35.132   5.323  97.334  1.00  0.00    -0.332 N
HETATM   15  C8  UNL     1     -36.121   6.109  97.969  1.00  0.00     0.225 C
HETATM   16  O3  UNL     1     -35.800   7.261  98.451  1.00  0.00    -0.273 OA
ATOM     17  H3  UNL     1     -35.372   4.391  96.998  1.00  0.00     0.165 HD
BRANCH  15  18
HETATM   18  C9  UNL     1     -37.540   5.798  98.166  1.00  0.00     0.103 C
HETATM   19  C10 UNL     1     -38.346   6.502  97.075  1.00  0.00     0.017 C
HETATM   20  C11 UNL     1     -39.622   5.652  96.958  1.00  0.00     0.028 C
HETATM   21  C12 UNL     1     -40.207   5.554  98.326  1.00  0.00     0.232 C
HETATM   22  N4  UNL     1     -39.568   6.424  99.277  1.00  0.00    -0.074 N
HETATM   23  C13 UNL     1     -38.156   6.112  99.468  1.00  0.00     0.246 C
ATOM     24  H42 UNL     1     -39.693   7.403  99.018  1.00  0.00     0.277 HD
ATOM     25  H41 UNL     1     -40.067   6.423 100.166  1.00  0.00     0.277 HD
ENDBRANCH  15  18
ENDBRANCH   1  14
TORSDOF 6
ENDMDL