MODEL 1
REMARK VINA RESULT: -6.388016349      0.000      0.000
REMARK  5 active torsions:
REMARK  status: ('A' for Active; 'I' for Inactive)
REMARK    1  A    between atoms: N1_1  and  N2_4
REMARK       I    between atoms: N2_4  and  C1_6
REMARK    2  A    between atoms: C1_6  and  C2_8
REMARK    3  A    between atoms: C2_8  and  C5_18
REMARK    4  A    between atoms: N3_9  and  N4_11
REMARK       I    between atoms: N4_11  and  C3_13
REMARK    5  A    between atoms: C3_13  and  C4_15
ROOT
HETATM    1  C2  UNL     1      25.266   0.048  33.438  1.00  0.00     0.129 C
HETATM    2  N3  UNL     1      25.881  -1.114  33.392  1.00  0.00    -0.292 N
ATOM      3  H3  UNL     1      26.526  -1.236  32.611  1.00  0.00     0.187 HD
ENDROOT
BRANCH   1   4
HETATM    4  C1  UNL     1      25.682   0.892  32.308  1.00  0.00     0.288 C
HETATM    5  N2  UNL     1      25.742   0.299  30.976  1.00  0.00    -0.271 N
ATOM      6  H2  UNL     1      25.482  -0.683  30.878  1.00  0.00     0.189 HD
HETATM    7  O1  UNL     1      26.020   2.087  32.308  1.00  0.00    -0.264 OA
BRANCH   5   8
HETATM    8  N1  UNL     1      26.124   0.976  29.848  1.00  0.00    -0.342 N
ATOM      9  H12 UNL     1      26.607   1.864  29.985  1.00  0.00     0.176 HD
ATOM     10  H11 UNL     1      25.954   0.648  28.897  1.00  0.00     0.176 HD
ENDBRANCH   5   8
ENDBRANCH   1   4
BRANCH   1  11
HETATM   11  C5  UNL     1      24.522   0.528  34.573  1.00  0.00     0.009 A
HETATM   12  C6  UNL     1      25.238   1.409  35.439  1.00  0.00     0.015 A
HETATM   13  C7  UNL     1      24.575   2.152  36.358  1.00  0.00     0.002 A
HETATM   14  C8  UNL     1      23.214   2.076  36.478  1.00  0.00     0.012 A
HETATM   15  C9  UNL     1      22.498   1.210  35.638  1.00  0.00    -0.025 A
HETATM   16  C10 UNL     1      21.143   1.081  35.821  1.00  0.00     0.012 A
HETATM   17  C14 UNL     1      23.161   0.440  34.692  1.00  0.00    -0.013 A
HETATM   18  C11 UNL     1      20.429   0.176  35.072  1.00  0.00     0.001 A
HETATM   19  C12 UNL     1      21.068  -0.609  34.132  1.00  0.00     0.001 A
HETATM   20  C13 UNL     1      22.415  -0.480  33.945  1.00  0.00     0.013 A
ENDBRANCH   1  11
BRANCH   2  21
HETATM   21  N4  UNL     1      25.780  -2.172  34.233  1.00  0.00    -0.262 N
HETATM   22  C3  UNL     1      25.389  -3.479  33.881  1.00  0.00     0.325 C
HETATM   23  O2  UNL     1      25.097  -3.733  32.688  1.00  0.00    -0.261 OA
ATOM     24  H4  UNL     1      26.009  -2.007  35.213  1.00  0.00     0.190 HD
BRANCH  22  25
HETATM   25  C4  UNL     1      25.316  -4.541  34.872  1.00  0.00     0.324 C
HETATM   26  N5  UNL     1      24.140  -5.282  35.132  1.00  0.00    -0.053 NA
HETATM   27  O3  UNL     1      26.330  -4.864  35.573  1.00  0.00    -0.266 OA
ENDBRANCH  22  25
ENDBRANCH   2  21
TORSDOF 5
ENDMDL