MODEL 4
REMARK VINA RESULT: -5.984278228      1.552      2.152
REMARK  6 active torsions:
REMARK  status: ('A' for Active; 'I' for Inactive)
REMARK    1  A    between atoms: N1_3  and  N2_5
REMARK       I    between atoms: N2_5  and  C3_7
REMARK    2  A    between atoms: C3_7  and  C4_9
REMARK    3  A    between atoms: C4_9  and  N4_14
REMARK    4  A    between atoms: N3_10  and  O2_12
REMARK    5  A    between atoms: N4_14  and  C5_16
REMARK    6  A    between atoms: C5_16  and  C6_17
REMARK       I    between atoms: N5_21  and  C10_22
REMARK       I    between atoms: C10_22  and  N6_24
ROOT
HETATM    1  N4  UNL     1      17.100  -5.457  30.787  1.00  0.00    -0.370 N
ATOM      2  H4  UNL     1      17.558  -4.681  30.308  1.00  0.00     0.161 HD
ENDROOT
BRANCH   1   3
HETATM    3  C4  UNL     1      17.555  -5.892  32.049  1.00  0.00     0.192 C
HETATM    4  N3  UNL     1      16.815  -5.688  33.076  1.00  0.00    -0.248 N
ATOM      5  H3  UNL     1      17.128  -5.994  33.998  1.00  0.00     0.196 HD
BRANCH   3   6
HETATM    6  C3  UNL     1      18.854  -6.563  32.177  1.00  0.00     0.305 C
HETATM    7  N2  UNL     1      19.942  -5.983  32.857  1.00  0.00    -0.264 N
ATOM      8  H2  UNL     1      19.842  -5.062  33.283  1.00  0.00     0.190 HD
HETATM    9  O1  UNL     1      19.000  -7.698  31.660  1.00  0.00    -0.263 OA
BRANCH   7  10
HETATM   10  N1  UNL     1      21.154  -6.658  32.953  1.00  0.00    -0.313 N
HETATM   11  C2  UNL     1      22.300  -6.088  32.932  1.00  0.00     0.076 C
HETATM   12  C1  UNL     1      23.524  -6.906  33.042  1.00  0.00     0.056 C
ATOM     13  H1  UNL     1      21.129  -7.674  33.047  1.00  0.00     0.185 HD
ENDBRANCH   7  10
ENDBRANCH   3   6
BRANCH   4  14
HETATM   14  O2  UNL     1      15.606  -5.060  32.939  1.00  0.00    -0.288 OA
ATOM     15  H2  UNL     1      15.472  -4.196  33.309  1.00  0.00     0.244 HD
ENDBRANCH   4  14
ENDBRANCH   1   3
BRANCH   1  16
HETATM   16  C5  UNL     1      15.985  -6.124  30.191  1.00  0.00     0.127 C
BRANCH  16  17
HETATM   17  C6  UNL     1      16.135  -7.625  30.161  1.00  0.00     0.021 C
HETATM   18  C7  UNL     1      16.270  -7.981  28.675  1.00  0.00     0.009 C
HETATM   19  C8  UNL     1      16.435  -9.471  28.507  1.00  0.00     0.020 C
HETATM   20  C9  UNL     1      15.300 -10.218  29.101  1.00  0.00     0.127 C
HETATM   21  N5  UNL     1      14.740  -9.657  30.296  1.00  0.00    -0.334 N
HETATM   22  C10 UNL     1      13.844 -10.484  31.033  1.00  0.00     0.317 C
HETATM   23  C12 UNL     1      15.004  -8.347  30.803  1.00  0.00     0.133 C
HETATM   24  O3  UNL     1      13.550 -11.668  30.655  1.00  0.00    -0.247 OA
HETATM   25  N6  UNL     1      13.228 -10.022  32.240  1.00  0.00    -0.347 N
HETATM   26  C11 UNL     1      12.320 -10.859  32.988  1.00  0.00     0.151 C
ATOM     27  H6  UNL     1      13.435  -9.083  32.579  1.00  0.00     0.163 HD
ENDBRANCH  16  17
ENDBRANCH   1  16
TORSDOF 6
ENDMDL