MODEL 2
REMARK VINA RESULT: -7.546146640      1.844      6.671
REMARK  7 active torsions:
REMARK  status: ('A' for Active; 'I' for Inactive)
REMARK       I    between atoms: C2_2  and  N1_4
REMARK    1  A    between atoms: N1_4  and  N2_5
REMARK       I    between atoms: N2_5  and  C3_7
REMARK    2  A    between atoms: C3_7  and  C4_9
REMARK    3  A    between atoms: C6_16  and  C7_17
REMARK    4  A    between atoms: C7_17  and  C8_18
REMARK    5  A    between atoms: C8_18  and  C9_19
REMARK    6  A    between atoms: C9_19  and  O5_21
REMARK    7  A    between atoms: O5_21  and  C10_22
ROOT
HETATM    1  C4  UNL     1      17.121  -5.731  31.607  1.00  0.00     0.134 A
HETATM    2  N3  UNL     1      16.528  -4.504  31.624  1.00  0.00    -0.302 N
ATOM      3  H3  UNL     1      16.714  -3.768  32.305  1.00  0.00     0.171 HD
HETATM    4  C5  UNL     1      15.653  -4.418  30.597  1.00  0.00     0.325 A
HETATM    5  O3  UNL     1      14.908  -3.415  30.293  1.00  0.00    -0.247 OA
HETATM    6  N4  UNL     1      15.711  -5.588  29.954  1.00  0.00    -0.306 N
ATOM      7  H4  UNL     1      15.162  -5.822  29.127  1.00  0.00     0.171 HD
HETATM    8  C6  UNL     1      16.610  -6.430  30.558  1.00  0.00     0.069 A
ENDROOT
BRANCH   1   9
HETATM    9  C3  UNL     1      18.206  -6.098  32.487  1.00  0.00     0.299 C
HETATM   10  N2  UNL     1      19.588  -5.970  32.032  1.00  0.00    -0.194 N
ATOM     11  H2  UNL     1      19.788  -5.614  31.098  1.00  0.00     0.205 HD
HETATM   12  O2  UNL     1      18.113  -6.542  33.642  1.00  0.00    -0.263 OA
BRANCH  10  13
HETATM   13  N1  UNL     1      20.560  -6.309  32.821  1.00  0.00    -0.284 NA
HETATM   14  C2  UNL     1      21.569  -6.667  33.660  1.00  0.00     0.308 C
HETATM   15  C1  UNL     1      22.990  -6.697  33.099  1.00  0.00     0.137 C
HETATM   16  O1  UNL     1      21.492  -6.990  34.849  1.00  0.00    -0.256 OA
ENDBRANCH  10  13
ENDBRANCH   1   9
BRANCH   8  17
HETATM   17  C7  UNL     1      16.777  -7.813  30.184  1.00  0.00     0.038 C
BRANCH  17  18
HETATM   18  C8  UNL     1      16.189  -8.492  29.226  1.00  0.00     0.084 C
BRANCH  18  19
HETATM   19  C9  UNL     1      14.767  -8.799  29.249  1.00  0.00     0.283 C
HETATM   20  O4  UNL     1      13.934  -7.882  29.121  1.00  0.00    -0.260 OA
BRANCH  19  21
HETATM   21  O5  UNL     1      14.360 -10.101  29.425  1.00  0.00    -0.314 OA
BRANCH  21  22
HETATM   22  C10 UNL     1      14.778 -10.833  30.537  1.00  0.00     0.124 C
HETATM   23  C11 UNL     1      14.830 -12.291  30.063  1.00  0.00     0.040 C
HETATM   24  C12 UNL     1      13.784 -10.660  31.637  1.00  0.00     0.040 C
ENDBRANCH  21  22
ENDBRANCH  19  21
ENDBRANCH  18  19
ENDBRANCH  17  18
ENDBRANCH   8  17
TORSDOF 7
ENDMDL