MODEL 2
REMARK VINA RESULT: -6.521162484      0.877      1.130
REMARK  6 active torsions:
REMARK  status: ('A' for Active; 'I' for Inactive)
REMARK       I    between atoms: N2_3  and  C2_5
REMARK    1  A    between atoms: N4_7  and  N5_9
REMARK    2  A    between atoms: N5_9  and  C3_10
REMARK    3  A    between atoms: C3_10  and  O1_11
REMARK    4  A    between atoms: C3_10  and  C4_13
REMARK    5  A    between atoms: C7_16  and  C8_17
REMARK    6  A    between atoms: C9_18  and  C11_21
ROOT
HETATM    1  N1  UNL     1      23.969   0.616  32.555  1.00  0.00    -0.172 NA
HETATM    2  C1  UNL     1      24.194  -0.387  33.087  1.00  0.00     0.184 C
HETATM    3  N2  UNL     1      24.476  -1.606  33.708  1.00  0.00    -0.266 N
ATOM      4  H2  UNL     1      25.448  -1.824  33.927  1.00  0.00     0.180 HD
HETATM    5  C2  UNL     1      23.480  -2.559  34.051  1.00  0.00     0.227 C
HETATM    6  N3  UNL     1      22.163  -2.175  34.428  1.00  0.00    -0.060 NA
HETATM    7  N4  UNL     1      23.753  -3.804  34.029  1.00  0.00    -0.203 N
ATOM      8  H4  UNL     1      24.721  -3.962  33.747  1.00  0.00     0.205 HD
ENDROOT
BRANCH   7   9
HETATM    9  N5  UNL     1      23.161  -4.900  34.258  1.00  0.00    -0.297 NA
BRANCH   9  10
HETATM   10  C3  UNL     1      22.757  -5.982  34.434  1.00  0.00     0.248 C
BRANCH  10  11
HETATM   11  O1  UNL     1      23.492  -6.934  35.189  1.00  0.00    -0.333 OA
ATOM     12  H1  UNL     1      24.013  -7.606  34.766  1.00  0.00     0.220 HD
ENDBRANCH  10  11
BRANCH  10  13
HETATM   13  C4  UNL     1      21.456  -6.424  33.883  1.00  0.00     0.031 A
HETATM   14  C5  UNL     1      20.471  -6.949  34.669  1.00  0.00     0.018 A
HETATM   15  C6  UNL     1      19.263  -7.351  34.151  1.00  0.00     0.012 A
HETATM   16  C7  UNL     1      18.988  -7.245  32.808  1.00  0.00    -0.035 A
HETATM   17  C12 UNL     1      19.992  -6.709  32.000  1.00  0.00     0.012 A
HETATM   18  C13 UNL     1      21.185  -6.314  32.540  1.00  0.00     0.018 A
BRANCH  16  19
HETATM   19  C8  UNL     1      17.750  -7.668  32.176  1.00  0.00     0.039 C
HETATM   20  C9  UNL     1      16.794  -6.835  31.922  1.00  0.00     0.110 C
HETATM   21  C10 UNL     1      16.868  -5.458  32.237  1.00  0.00     0.104 C
HETATM   22  N6  UNL     1      16.900  -4.317  32.505  1.00  0.00    -0.191 NA
BRANCH  20  23
HETATM   23  C11 UNL     1      15.585  -7.392  31.269  1.00  0.00     0.275 C
HETATM   24  N7  UNL     1      14.405  -6.615  31.377  1.00  0.00    -0.057 NA
HETATM   25  O2  UNL     1      15.626  -8.489  30.659  1.00  0.00    -0.270 OA
ENDBRANCH  20  23
ENDBRANCH  16  19
ENDBRANCH  10  13
ENDBRANCH   9  10
ENDBRANCH   7   9
TORSDOF 6
ENDMDL