MODEL 3
REMARK VINA RESULT: -4.909598477     10.281     11.819
REMARK  8 active torsions:
REMARK  status: ('A' for Active; 'I' for Inactive)
REMARK       I    between atoms: C2_2  and  N1_4
REMARK    1  A    between atoms: C7_9  and  N2_10
REMARK    2  A    between atoms: N2_10  and  C8_12
REMARK    3  A    between atoms: C8_12  and  C9_13
REMARK    4  A    between atoms: C9_13  and  O2_14
REMARK    5  A    between atoms: C10_16  and  O3_17
REMARK    6  A    between atoms: C10_16  and  N3_19
REMARK       I    between atoms: N3_19  and  C11_20
REMARK       I    between atoms: C11_20  and  N5_22
REMARK    7  A    between atoms: N5_22  and  N6_24
REMARK    8  A    between atoms: N6_24  and  N7_25
ROOT
HETATM    1  C8  UNL     1      25.582  -1.558  32.940  1.00  0.00     0.099 C
HETATM    2  C10 UNL     1      25.154  -2.928  33.043  1.00  0.00     0.243 C
ENDROOT
BRANCH   1   3
HETATM    3  N2  UNL     1      25.705  -0.959  34.125  1.00  0.00    -0.359 N
ATOM      4  H2  UNL     1      26.242  -1.497  34.805  1.00  0.00     0.165 HD
BRANCH   3   5
HETATM    5  C7  UNL     1      25.239   0.266  34.612  1.00  0.00     0.005 C
HETATM    6  C6  UNL     1      25.528   0.849  35.881  1.00  0.00     0.054 C
HETATM    7  C5  UNL     1      24.999   2.295  35.831  1.00  0.00     0.007 C
HETATM    8  C4  UNL     1      23.752   2.436  36.622  1.00  0.00     0.020 C
HETATM    9  C3  UNL     1      22.586   1.670  36.108  1.00  0.00     0.126 C
HETATM   10  N1  UNL     1      22.853   0.766  35.053  1.00  0.00    -0.347 N
HETATM   11  C2  UNL     1      21.785  -0.190  34.803  1.00  0.00     0.216 C
HETATM   12  C12 UNL     1      23.893   0.622  34.083  1.00  0.00     0.178 C
HETATM   13  C1  UNL     1      20.400   0.137  35.411  1.00  0.00     0.117 C
HETATM   14  O1  UNL     1      21.922  -1.193  34.161  1.00  0.00    -0.274 OA
ENDBRANCH   3   5
ENDBRANCH   1   3
BRANCH   1  15
HETATM   15  C9  UNL     1      26.205  -1.160  31.672  1.00  0.00     0.226 C
BRANCH  15  16
HETATM   16  O2  UNL     1      25.704   0.045  31.077  1.00  0.00    -0.395 OA
ATOM     17  H2  UNL     1      25.285   0.658  31.670  1.00  0.00     0.209 HD
ENDBRANCH  15  16
ENDBRANCH   1  15
BRANCH   2  18
HETATM   18  O3  UNL     1      24.104  -2.915  34.091  1.00  0.00    -0.334 OA
ATOM     19  H3  UNL     1      24.339  -3.626  34.675  1.00  0.00     0.220 HD
ENDBRANCH   2  18
BRANCH   2  20
HETATM   20  N3  UNL     1      25.370  -4.112  32.525  1.00  0.00    -0.345 NA
HETATM   21  C11 UNL     1      25.591  -5.305  31.995  1.00  0.00     0.296 C
HETATM   22  N4  UNL     1      25.369  -6.491  32.716  1.00  0.00    -0.047 NA
HETATM   23  N5  UNL     1      25.963  -5.674  30.703  1.00  0.00    -0.175 N
ATOM     24  H5  UNL     1      26.744  -6.290  30.475  1.00  0.00     0.207 HD
BRANCH  23  25
HETATM   25  N6  UNL     1      25.191  -5.134  29.851  1.00  0.00    -0.240 NA
BRANCH  25  26
HETATM   26  N7  UNL     1      24.419  -4.413  29.251  1.00  0.00    -0.260 N
ATOM     27  H72 UNL     1      24.568  -4.910  28.372  1.00  0.00     0.193 HD
ATOM     28  H71 UNL     1      23.747  -3.698  28.971  1.00  0.00     0.193 HD
ENDBRANCH  25  26
ENDBRANCH  23  25
ENDBRANCH   2  20
TORSDOF 8
ENDMDL