MODEL 4
REMARK VINA RESULT: -5.356816032      3.417      6.762
REMARK  5 active torsions:
REMARK  status: ('A' for Active; 'I' for Inactive)
REMARK    1  A    between atoms: C1_2  and  C2_4
REMARK    2  A    between atoms: C5_7  and  C6_8
REMARK       I    between atoms: C6_8  and  N1_10
REMARK    3  A    between atoms: N1_10  and  C7_12
REMARK    4  A    between atoms: C13_18  and  O4_19
REMARK    5  A    between atoms: C13_18  and  C14_21
ROOT
HETATM    1  C7  UNL     1      17.681  -6.116  31.262  1.00  0.00     0.134 C
HETATM    2  C8  UNL     1      17.306  -7.578  31.376  1.00  0.00     0.012 C
HETATM    3  C9  UNL     1      16.575  -7.935  30.119  1.00  0.00     0.007 C
HETATM    4  C10 UNL     1      15.190  -7.303  30.291  1.00  0.00     0.009 C
HETATM    5  C11 UNL     1      15.327  -6.478  31.518  1.00  0.00     0.033 C
HETATM    6  C12 UNL     1      16.143  -7.480  32.377  1.00  0.00     0.015 C
HETATM    7  C13 UNL     1      16.333  -5.391  31.399  1.00  0.00     0.170 C
ENDROOT
BRANCH   1   8
HETATM    8  N1  UNL     1      18.611  -5.749  32.295  1.00  0.00    -0.352 N
HETATM    9  C6  UNL     1      19.795  -6.488  32.512  1.00  0.00     0.223 C
HETATM   10  O3  UNL     1      20.037  -7.484  31.786  1.00  0.00    -0.273 OA
ATOM     11  H1  UNL     1      18.412  -4.939  32.882  1.00  0.00     0.163 HD
BRANCH   9  12
HETATM   12  C5  UNL     1      20.788  -6.158  33.557  1.00  0.00     0.092 C
HETATM   13  C2  UNL     1      22.192  -6.714  33.282  1.00  0.00     0.100 C
HETATM   14  C3  UNL     1      22.270  -6.988  34.782  1.00  0.00     0.017 C
HETATM   15  C4  UNL     1      20.745  -7.124  34.735  1.00  0.00     0.016 C
BRANCH  13  16
HETATM   16  C1  UNL     1      23.164  -5.707  32.852  1.00  0.00     0.177 C
HETATM   17  O1  UNL     1      23.618  -5.752  31.683  1.00  0.00    -0.648 OA
HETATM   18  O2  UNL     1      23.604  -4.704  33.694  1.00  0.00    -0.648 OA
ENDBRANCH  13  16
ENDBRANCH   9  12
ENDBRANCH   1   8
BRANCH   7  19
HETATM   19  O4  UNL     1      16.354  -4.595  32.557  1.00  0.00    -0.377 OA
ATOM     20  H4  UNL     1      15.645  -3.964  32.515  1.00  0.00     0.211 HD
ENDBRANCH   7  19
BRANCH   7  21
HETATM   21  C14 UNL     1      16.102  -4.484  30.271  1.00  0.00     0.211 C
HETATM   22  O5  UNL     1      16.840  -4.392  29.263  1.00  0.00    -0.646 OA
HETATM   23  O6  UNL     1      14.976  -3.634  30.280  1.00  0.00    -0.646 OA
ENDBRANCH   7  21
TORSDOF 5
ENDMDL