MODEL 1
REMARK VINA RESULT: -5.844380147      0.000      0.000
REMARK  5 active torsions:
REMARK  status: ('A' for Active; 'I' for Inactive)
REMARK    1  A    between atoms: S1_2  and  N1_5
REMARK    2  A    between atoms: N1_5  and  C2_7
REMARK    3  A    between atoms: C2_7  and  C3_8
REMARK       I    between atoms: C3_8  and  N2_10
REMARK    4  A    between atoms: N2_10  and  N3_12
REMARK       I    between atoms: N3_12  and  C4_14
REMARK       I    between atoms: C4_14  and  N4_16
REMARK    5  A    between atoms: N4_16  and  C5_18
ROOT
HETATM    1  C3  UNL     1      17.198  -6.516  32.264  1.00  0.00     0.254 C
HETATM    2  O3  UNL     1      17.217  -5.422  32.897  1.00  0.00    -0.270 OA
HETATM    3  N2  UNL     1      18.101  -7.562  32.561  1.00  0.00    -0.265 N
ATOM      4  H2  UNL     1      18.074  -8.440  32.043  1.00  0.00     0.190 HD
ENDROOT
BRANCH   3   5
HETATM    5  N3  UNL     1      19.029  -7.359  33.583  1.00  0.00    -0.249 N
HETATM    6  C4  UNL     1      20.339  -6.869  33.328  1.00  0.00     0.339 C
HETATM    7  O4  UNL     1      20.631  -6.624  32.155  1.00  0.00    -0.245 OA
HETATM    8  N4  UNL     1      21.227  -6.685  34.391  1.00  0.00    -0.307 N
ATOM      9  H4  UNL     1      20.919  -6.914  35.336  1.00  0.00     0.170 HD
ATOM     10  H3  UNL     1      18.759  -7.570  34.544  1.00  0.00     0.192 HD
BRANCH   8  11
HETATM   11  C5  UNL     1      22.572  -6.179  34.196  1.00  0.00     0.043 A
HETATM   12  C6  UNL     1      23.552  -6.807  33.532  1.00  0.00     0.037 A
HETATM   13  C7  UNL     1      24.780  -6.195  33.468  1.00  0.00     0.052 A
HETATM   14  S2  UNL     1      24.535  -4.757  34.337  1.00  0.00    -0.111 SA
HETATM   15  C8  UNL     1      22.899  -4.958  34.760  1.00  0.00     0.079 A
ENDBRANCH   8  11
ENDBRANCH   3   5
BRANCH   1  16
HETATM   16  C2  UNL     1      16.201  -6.745  31.160  1.00  0.00     0.236 C
BRANCH  16  17
HETATM   17  N1  UNL     1      16.722  -7.778  30.291  1.00  0.00    -0.311 N
ATOM     18  H1  UNL     1      17.665  -8.162  30.345  1.00  0.00     0.172 HD
BRANCH  17  19
HETATM   19  S1  UNL     1      15.518  -8.270  29.148  1.00  0.00     0.223 S
HETATM   20  C1  UNL     1      15.140  -9.965  29.464  1.00  0.00     0.185 C
HETATM   21  O1  UNL     1      14.277  -7.442  29.317  1.00  0.00    -0.206 OA
HETATM   22  O2  UNL     1      16.045  -8.147  27.744  1.00  0.00    -0.206 OA
ENDBRANCH  17  19
ENDBRANCH  16  17
ENDBRANCH   1  16
TORSDOF 5
ENDMDL