MODEL 3
REMARK VINA RESULT: -5.949982113      1.285      1.665
REMARK  4 active torsions:
REMARK  status: ('A' for Active; 'I' for Inactive)
REMARK       I    between atoms: C1_4  and  N3_6
REMARK    1  A    between atoms: N3_6  and  S1_8
REMARK    2  A    between atoms: S1_8  and  C2_11
REMARK    3  A    between atoms: C5_14  and  N4_15
REMARK       I    between atoms: C6_17  and  N6_19
REMARK    4  A    between atoms: N6_19  and  N7_21
ROOT
HETATM    1  C2  UNL     1      20.969  -6.707  33.592  1.00  0.00     0.080 A
HETATM    2  C3  UNL     1      19.978  -7.110  34.443  1.00  0.00     0.027 A
HETATM    3  C4  UNL     1      18.686  -7.343  34.008  1.00  0.00     0.031 A
HETATM    4  C5  UNL     1      18.336  -7.167  32.664  1.00  0.00     0.034 A
HETATM    5  C7  UNL     1      19.362  -6.758  31.807  1.00  0.00     0.031 A
HETATM    6  C8  UNL     1      20.634  -6.535  32.251  1.00  0.00     0.027 A
ENDROOT
BRANCH   1   7
HETATM    7  S1  UNL     1      22.628  -6.423  34.040  1.00  0.00     0.265 S
HETATM    8  O1  UNL     1      23.010  -7.074  35.325  1.00  0.00    -0.200 OA
HETATM    9  O2  UNL     1      23.492  -6.958  32.897  1.00  0.00    -0.200 OA
BRANCH   7  10
HETATM   10  N3  UNL     1      23.019  -4.744  34.100  1.00  0.00    -0.254 N
HETATM   11  C1  UNL     1      24.338  -4.336  33.784  1.00  0.00     0.195 C
HETATM   12  N1  UNL     1      24.741  -4.221  32.538  1.00  0.00    -0.373 N
HETATM   13  N2  UNL     1      25.266  -4.020  34.772  1.00  0.00    -0.063 NA
ATOM     14  H12 UNL     1      25.691  -3.926  32.311  1.00  0.00     0.158 HD
ATOM     15  H11 UNL     1      24.061  -4.452  31.814  1.00  0.00     0.158 HD
ATOM     16  H3  UNL     1      22.312  -4.057  34.360  1.00  0.00     0.181 HD
ENDBRANCH   7  10
ENDBRANCH   1   7
BRANCH   4  17
HETATM   17  N4  UNL     1      17.035  -7.440  32.254  1.00  0.00    -0.329 N
HETATM   18  C6  UNL     1      16.138  -6.663  31.816  1.00  0.00     0.212 C
HETATM   19  N5  UNL     1      14.843  -7.067  31.421  1.00  0.00    -0.062 NA
HETATM   20  N6  UNL     1      16.401  -5.260  31.827  1.00  0.00    -0.213 N
ATOM     21  H6  UNL     1      16.629  -4.822  32.719  1.00  0.00     0.196 HD
ATOM     22  H4  UNL     1      16.761  -8.421  32.318  1.00  0.00     0.168 HD
BRANCH  20  23
HETATM   23  N7  UNL     1      16.363  -4.455  30.690  1.00  0.00    -0.036 N
HETATM   24  O3  UNL     1      15.618  -3.466  30.701  1.00  0.00    -0.516 OA
HETATM   25  O4  UNL     1      17.152  -4.783  29.605  1.00  0.00    -0.516 OA
ENDBRANCH  20  23
ENDBRANCH   4  17
TORSDOF 4
ENDMDL