MODEL 5
REMARK VINA RESULT: -6.477717989      1.685      2.217
REMARK  9 active torsions:
REMARK  status: ('A' for Active; 'I' for Inactive)
REMARK    1  A    between atoms: C2_2  and  O1_3
REMARK    2  A    between atoms: C2_2  and  N1_5
REMARK    3  A    between atoms: N1_5  and  C3_7
REMARK    4  A    between atoms: C3_7  and  O2_8
REMARK    5  A    between atoms: C4_10  and  N2_11
REMARK    6  A    between atoms: N2_11  and  C5_13
REMARK    7  A    between atoms: C5_13  and  N3_15
REMARK    8  A    between atoms: N3_15  and  N4_17
REMARK       I    between atoms: N4_17  and  C6_19
REMARK    9  A    between atoms: C6_19  and  C7_21
ROOT
HETATM    1  C5  UNL     1      17.065  -6.691  31.785  1.00  0.00     0.190 C
HETATM    2  S1  UNL     1      16.934  -5.131  32.213  1.00  0.00    -0.039 SA
ENDROOT
BRANCH   1   3
HETATM    3  N2  UNL     1      15.935  -7.305  31.093  1.00  0.00    -0.338 N
ATOM      4  H2  UNL     1      15.003  -7.345  31.505  1.00  0.00     0.167 HD
BRANCH   3   5
HETATM    5  C4  UNL     1      16.217  -7.836  29.824  1.00  0.00     0.146 C
HETATM    6  C3  UNL     1      15.736  -9.070  29.304  1.00  0.00     0.157 C
BRANCH   6   7
HETATM    7  N1  UNL     1      14.916 -10.127  29.598  1.00  0.00    -0.321 N
ATOM      8  H1  UNL     1      14.431 -10.443  28.758  1.00  0.00     0.169 HD
BRANCH   7   9
HETATM    9  C2  UNL     1      14.542 -10.901  30.696  1.00  0.00     0.113 C
HETATM   10  C1  UNL     1      13.803 -10.505  31.913  1.00  0.00     0.097 C
BRANCH   9  11
HETATM   11  O1  UNL     1      14.885 -12.159  30.657  1.00  0.00    -0.350 OA
ATOM     12  H1  UNL     1      15.797 -12.325  30.860  1.00  0.00     0.219 HD
ENDBRANCH   9  11
ENDBRANCH   7   9
ENDBRANCH   6   7
BRANCH   6  13
HETATM   13  O2  UNL     1      16.306  -9.252  28.063  1.00  0.00    -0.345 OA
ATOM     14  H2  UNL     1      15.877  -8.693  27.426  1.00  0.00     0.219 HD
ENDBRANCH   6  13
ENDBRANCH   3   5
ENDBRANCH   1   3
BRANCH   1  15
HETATM   15  N3  UNL     1      18.216  -7.415  32.087  1.00  0.00    -0.273 N
ATOM     16  H3  UNL     1      18.089  -8.409  32.279  1.00  0.00     0.189 HD
BRANCH  15  17
HETATM   17  N4  UNL     1      19.507  -6.938  32.155  1.00  0.00    -0.262 N
HETATM   18  C6  UNL     1      20.213  -6.931  33.381  1.00  0.00     0.293 C
HETATM   19  O3  UNL     1      19.741  -7.342  34.462  1.00  0.00    -0.264 OA
ATOM     20  H4  UNL     1      19.959  -6.586  31.312  1.00  0.00     0.190 HD
BRANCH  18  21
HETATM   21  C7  UNL     1      21.599  -6.399  33.349  1.00  0.00     0.144 A
HETATM   22  C8  UNL     1      22.620  -6.807  32.501  1.00  0.00     0.045 A
HETATM   23  C9  UNL     1      23.747  -6.072  32.792  1.00  0.00     0.027 A
HETATM   24  C10 UNL     1      23.346  -5.232  33.830  1.00  0.00     0.143 A
HETATM   25  O4  UNL     1      22.070  -5.463  34.122  1.00  0.00    -0.317 OA
ENDBRANCH  18  21
ENDBRANCH  15  17
ENDBRANCH   1  15
TORSDOF 9
ENDMDL