MODEL 1
REMARK VINA RESULT: -6.895232270      0.000      0.000
REMARK  5 active torsions:
REMARK  status: ('A' for Active; 'I' for Inactive)
REMARK    1  A    between atoms: N1_1  and  C1_5
REMARK    2  A    between atoms: C3_7  and  N2_8
REMARK       I    between atoms: N2_8  and  C4_10
REMARK    3  A    between atoms: C4_10  and  C5_12
REMARK    4  A    between atoms: C11_19  and  N3_20
REMARK    5  A    between atoms: N3_20  and  C12_22
ROOT
HETATM    1  C1  UNL     1      16.782  -6.693  30.533  1.00  0.00     0.207 C
HETATM    2  C2  UNL     1      17.953  -7.284  31.263  1.00  0.00     0.060 C
HETATM    3  C3  UNL     1      18.411  -6.593  32.487  1.00  0.00     0.086 C
HETATM    4  C9  UNL     1      17.470  -5.496  32.919  1.00  0.00     0.027 C
HETATM    5  C10 UNL     1      16.072  -6.134  32.869  1.00  0.00     0.029 C
HETATM    6  C11 UNL     1      15.706  -6.117  31.367  1.00  0.00     0.107 C
ENDROOT
BRANCH   3   7
HETATM    7  N2  UNL     1      19.775  -6.160  32.453  1.00  0.00    -0.356 N
HETATM    8  C4  UNL     1      20.693  -6.508  33.454  1.00  0.00     0.224 C
HETATM    9  O1  UNL     1      20.275  -7.238  34.418  1.00  0.00    -0.273 OA
ATOM     10  H2  UNL     1      20.089  -5.578  31.676  1.00  0.00     0.162 HD
BRANCH   8  11
HETATM   11  C5  UNL     1      22.104  -6.098  33.481  1.00  0.00     0.103 C
HETATM   12  C6  UNL     1      22.941  -6.906  32.477  1.00  0.00     0.042 C
HETATM   13  C7  UNL     1      24.312  -6.714  33.083  1.00  0.00     0.168 C
HETATM   14  O2  UNL     1      24.175  -6.577  34.433  1.00  0.00    -0.390 OA
HETATM   15  C8  UNL     1      22.827  -6.477  34.757  1.00  0.00     0.181 C
ENDBRANCH   8  11
ENDBRANCH   3   7
BRANCH   1  16
HETATM   16  N1  UNL     1      17.316  -5.738  29.545  1.00  0.00    -0.073 N
ATOM     17  H13 UNL     1      18.170  -5.277  29.858  1.00  0.00     0.274 HD
ATOM     18  H12 UNL     1      17.706  -6.194  28.720  1.00  0.00     0.274 HD
ATOM     19  H11 UNL     1      16.568  -5.081  29.321  1.00  0.00     0.274 HD
ENDBRANCH   1  16
BRANCH   6  20
HETATM   20  N3  UNL     1      14.455  -6.689  31.238  1.00  0.00    -0.409 N
ATOM     21  H3  UNL     1      13.659  -6.067  31.381  1.00  0.00     0.154 HD
BRANCH  20  22
HETATM   22  C12 UNL     1      14.157  -7.990  30.942  1.00  0.00     0.104 C
HETATM   23  C13 UNL     1      14.768  -9.147  31.624  1.00  0.00     0.054 C
HETATM   24  C14 UNL     1      14.040 -10.280  30.862  1.00  0.00     0.234 C
HETATM   25  N4  UNL     1      14.200  -9.861  29.491  1.00  0.00    -0.073 N
HETATM   26  C15 UNL     1      14.321  -8.403  29.482  1.00  0.00     0.256 C
ATOM     27  H42 UNL     1      14.978 -10.326  29.023  1.00  0.00     0.277 HD
ATOM     28  H41 UNL     1      13.454 -10.200  28.884  1.00  0.00     0.277 HD
ENDBRANCH  20  22
ENDBRANCH   6  20
TORSDOF 5
ENDMDL