MODEL 5
REMARK VINA RESULT: -5.953054980      4.670      8.519
REMARK  7 active torsions:
REMARK  status: ('A' for Active; 'I' for Inactive)
REMARK    1  A    between atoms: C2_2  and  C10_17
REMARK    2  A    between atoms: N1_3  and  N2_5
REMARK       I    between atoms: N2_5  and  C3_7
REMARK       I    between atoms: C3_7  and  N3_9
REMARK    3  A    between atoms: N3_9  and  C4_11
REMARK    4  A    between atoms: C10_17  and  C11_21
REMARK    5  A    between atoms: C11_21  and  C12_23
REMARK    6  A    between atoms: C12_23  and  N5_24
REMARK    7  A    between atoms: N5_24  and  S1_26
ROOT
HETATM    1  C1  UNL     1      69.066  19.231  48.553  1.00  0.00     0.072 C
HETATM    2  C2  UNL     1      68.113  18.238  47.993  1.00  0.00     0.052 C
HETATM    3  N1  UNL     1      68.020  18.185  46.719  1.00  0.00    -0.299 N
ATOM      4  H1  UNL     1      68.606  18.826  46.183  1.00  0.00     0.186 HD
ENDROOT
BRANCH   2   5
HETATM    5  C10 UNL     1      67.322  17.371  48.820  1.00  0.00     0.097 C
HETATM    6  N4  UNL     1      67.781  16.212  49.215  1.00  0.00    -0.395 N
ATOM      7  H42 UNL     1      68.718  15.935  48.922  1.00  0.00     0.156 HD
ATOM      8  H41 UNL     1      67.219  15.595  49.803  1.00  0.00     0.156 HD
BRANCH   5   9
HETATM    9  C11 UNL     1      65.993  17.765  49.236  1.00  0.00     0.195 C
HETATM   10  O2  UNL     1      65.381  18.651  48.609  1.00  0.00    -0.289 OA
BRANCH   9  11
HETATM   11  C12 UNL     1      65.367  17.110  50.405  1.00  0.00     0.217 C
BRANCH  11  12
HETATM   12  N5  UNL     1      65.382  18.016  51.534  1.00  0.00    -0.312 N
ATOM     13  H5  UNL     1      64.625  18.663  51.758  1.00  0.00     0.172 HD
BRANCH  12  14
HETATM   14  S1  UNL     1      66.833  17.867  52.454  1.00  0.00     0.223 S
HETATM   15  C13 UNL     1      66.413  18.109  54.164  1.00  0.00     0.185 C
HETATM   16  O3  UNL     1      67.476  16.545  52.294  1.00  0.00    -0.206 OA
HETATM   17  O4  UNL     1      67.793  18.934  52.013  1.00  0.00    -0.206 OA
ENDBRANCH  12  14
ENDBRANCH  11  12
ENDBRANCH   9  11
ENDBRANCH   5   9
ENDBRANCH   2   5
BRANCH   3  18
HETATM   18  N2  UNL     1      67.207  17.347  46.014  1.00  0.00    -0.251 N
HETATM   19  C3  UNL     1      67.431  17.149  44.608  1.00  0.00     0.339 C
HETATM   20  O1  UNL     1      68.382  17.780  44.118  1.00  0.00    -0.245 OA
HETATM   21  N3  UNL     1      66.583  16.284  43.906  1.00  0.00    -0.308 N
ATOM     22  H3  UNL     1      65.831  15.828  44.421  1.00  0.00     0.170 HD
ATOM     23  H2  UNL     1      66.443  16.861  46.484  1.00  0.00     0.191 HD
BRANCH  21  24
HETATM   24  C4  UNL     1      66.705  16.007  42.540  1.00  0.00     0.036 A
HETATM   25  C5  UNL     1      66.094  16.905  41.645  1.00  0.00     0.029 A
HETATM   26  C6  UNL     1      66.128  16.728  40.284  1.00  0.00     0.002 A
HETATM   27  C7  UNL     1      66.774  15.646  39.740  1.00  0.00     0.000 A
HETATM   28  C8  UNL     1      67.380  14.750  40.571  1.00  0.00     0.002 A
HETATM   29  C9  UNL     1      67.337  14.942  41.949  1.00  0.00     0.029 A
ENDBRANCH  21  24
ENDBRANCH   3  18
TORSDOF 7
ENDMDL