MODEL 4
REMARK VINA RESULT: -6.470758181      1.952      3.584
REMARK  10 active torsions:
REMARK  status: ('A' for Active; 'I' for Inactive)
REMARK    1  A    between atoms: O1_2  and  C2_3
REMARK       I    between atoms: C2_3  and  N1_5
REMARK    2  A    between atoms: N1_5  and  C3_7
REMARK    3  A    between atoms: C3_7  and  C4_8
REMARK    4  A    between atoms: C3_7  and  C11_15
REMARK    5  A    between atoms: C4_8  and  C5_9
REMARK    6  A    between atoms: C11_15  and  O3_16
REMARK    7  A    between atoms: C11_15  and  N2_18
REMARK    8  A    between atoms: N2_18  and  C12_20
REMARK    9  A    between atoms: C12_20  and  C13_21
REMARK   10  A    between atoms: C12_20  and  C14_24
ROOT
HETATM    1  C3  UNL     1      67.425  17.103  43.786  1.00  0.00     0.161 C
ENDROOT
BRANCH   1   2
HETATM    2  N1  UNL     1      67.063  15.651  43.949  1.00  0.00    -0.325 N
HETATM    3  C2  UNL     1      67.630  14.647  43.162  1.00  0.00     0.360 C
HETATM    4  O2  UNL     1      68.469  14.928  42.282  1.00  0.00    -0.239 OA
ATOM      5  H1  UNL     1      66.380  15.391  44.661  1.00  0.00     0.165 HD
BRANCH   3   6
HETATM    6  O1  UNL     1      67.269  13.332  43.350  1.00  0.00    -0.309 OA
HETATM    7  C1  UNL     1      66.437  12.601  42.506  1.00  0.00     0.215 C
ENDBRANCH   3   6
ENDBRANCH   1   2
BRANCH   1   8
HETATM    8  C4  UNL     1      66.834  17.885  44.873  1.00  0.00     0.038 C
BRANCH   8   9
HETATM    9  C5  UNL     1      67.110  17.470  46.268  1.00  0.00    -0.012 C
HETATM   10  C6  UNL     1      68.588  17.644  46.621  1.00  0.00     0.005 C
HETATM   11  C7  UNL     1      68.846  18.890  47.428  1.00  0.00     0.000 C
HETATM   12  C8  UNL     1      68.094  18.874  48.743  1.00  0.00     0.000 C
HETATM   13  C9  UNL     1      66.866  17.990  48.644  1.00  0.00     0.000 C
HETATM   14  C10 UNL     1      66.273  18.244  47.276  1.00  0.00     0.005 C
ENDBRANCH   8   9
ENDBRANCH   1   8
BRANCH   1  15
HETATM   15  C11 UNL     1      67.075  17.359  42.392  1.00  0.00     0.136 C
BRANCH  15  16
HETATM   16  O3  UNL     1      68.055  17.906  41.714  1.00  0.00    -0.348 OA
ATOM     17  H3  UNL     1      67.917  18.831  41.548  1.00  0.00     0.219 HD
ENDBRANCH  15  16
BRANCH  15  18
HETATM   18  N2  UNL     1      65.933  17.136  41.662  1.00  0.00    -0.350 N
ATOM     19  H2  UNL     1      65.030  17.149  42.137  1.00  0.00     0.162 HD
BRANCH  18  20
HETATM   20  C12 UNL     1      65.977  16.874  40.196  1.00  0.00     0.286 C
BRANCH  20  21
HETATM   21  C13 UNL     1      66.050  15.433  39.940  1.00  0.00     0.207 C
HETATM   22  O4  UNL     1      65.063  14.703  40.192  1.00  0.00    -0.646 OA
HETATM   23  O5  UNL     1      67.184  14.839  39.424  1.00  0.00    -0.646 OA
ENDBRANCH  20  21
BRANCH  20  24
HETATM   24  C14 UNL     1      64.785  17.463  39.558  1.00  0.00     0.207 C
HETATM   25  O6  UNL     1      64.868  18.106  38.488  1.00  0.00    -0.646 OA
HETATM   26  O7  UNL     1      63.525  17.326  40.120  1.00  0.00    -0.646 OA
ENDBRANCH  20  24
ENDBRANCH  18  20
ENDBRANCH  15  18
ENDBRANCH   1  15
TORSDOF 10
ENDMDL