MODEL 3
REMARK VINA RESULT: -5.487968778      0.290      1.110
REMARK  8 active torsions:
REMARK  status: ('A' for Active; 'I' for Inactive)
REMARK    1  A    between atoms: C2_2  and  C5_5
REMARK    2  A    between atoms: C5_5  and  N1_6
REMARK    3  A    between atoms: C5_5  and  C15_24
REMARK       I    between atoms: N1_6  and  C6_8
REMARK    4  A    between atoms: C6_8  and  C7_10
REMARK    5  A    between atoms: C7_10  and  C8_11
REMARK    6  A    between atoms: C7_10  and  N2_15
REMARK    7  A    between atoms: C8_11  and  C9_12
REMARK       I    between atoms: N2_15  and  C10_17
REMARK    8  A    between atoms: C10_17  and  C11_19
ROOT
HETATM    1  C7  UNL     1      66.806  16.270  51.978  1.00  0.00     0.187 C
ENDROOT
BRANCH   1   2
HETATM    2  C6  UNL     1      67.268  14.910  52.324  1.00  0.00     0.241 C
HETATM    3  N1  UNL     1      67.201  13.812  51.439  1.00  0.00    -0.344 N
ATOM      4  H1  UNL     1      66.811  13.980  50.512  1.00  0.00     0.163 HD
HETATM    5  O1  UNL     1      67.745  14.723  53.467  1.00  0.00    -0.271 OA
BRANCH   3   6
HETATM    6  C5  UNL     1      67.639  12.476  51.740  1.00  0.00     0.193 C
BRANCH   6   7
HETATM    7  C2  UNL     1      68.247  11.782  50.541  1.00  0.00    -0.021 C
HETATM    8  C1  UNL     1      68.603  12.848  49.531  1.00  0.00     0.017 C
HETATM    9  C3  UNL     1      69.494  11.020  50.868  1.00  0.00     0.017 C
HETATM   10  C4  UNL     1      67.210  10.888  49.857  1.00  0.00     0.017 C
ENDBRANCH   6   7
BRANCH   6  11
HETATM   11  C15 UNL     1      66.463  11.692  52.173  1.00  0.00     0.197 C
HETATM   12  O6  UNL     1      65.299  12.158  51.992  1.00  0.00    -0.646 OA
HETATM   13  O7  UNL     1      66.509  10.449  52.782  1.00  0.00    -0.646 OA
ENDBRANCH   6  11
ENDBRANCH   3   6
ENDBRANCH   1   2
BRANCH   1  14
HETATM   14  C8  UNL     1      65.449  16.578  52.559  1.00  0.00     0.147 C
BRANCH  14  15
HETATM   15  C9  UNL     1      64.541  17.215  51.604  1.00  0.00     0.175 C
HETATM   16  O2  UNL     1      63.688  16.588  50.918  1.00  0.00    -0.648 OA
HETATM   17  O3  UNL     1      64.589  18.593  51.410  1.00  0.00    -0.648 OA
ENDBRANCH  14  15
ENDBRANCH   1  14
BRANCH   1  18
HETATM   18  N2  UNL     1      66.836  16.517  50.558  1.00  0.00    -0.342 N
HETATM   19  C10 UNL     1      67.633  17.549  49.979  1.00  0.00     0.276 C
HETATM   20  O4  UNL     1      68.354  18.298  50.692  1.00  0.00    -0.265 OA
ATOM     21  H2  UNL     1      66.267  15.932  49.945  1.00  0.00     0.163 HD
BRANCH  19  22
HETATM   22  C11 UNL     1      67.639  17.772  48.550  1.00  0.00     0.142 A
HETATM   23  C12 UNL     1      66.545  17.864  47.734  1.00  0.00     0.045 A
HETATM   24  C13 UNL     1      66.991  18.080  46.447  1.00  0.00     0.027 A
HETATM   25  C14 UNL     1      68.363  18.109  46.548  1.00  0.00     0.143 A
HETATM   26  O5  UNL     1      68.711  17.923  47.806  1.00  0.00    -0.317 OA
ENDBRANCH  19  22
ENDBRANCH   1  18
TORSDOF 8
ENDMDL