MODEL 5
REMARK VINA RESULT: -6.460628348      1.106      5.667
REMARK  10 active torsions:
REMARK  status: ('A' for Active; 'I' for Inactive)
REMARK       I    between atoms: C1_2  and  N1_3
REMARK    1  A    between atoms: C1_2  and  C13_23
REMARK    2  A    between atoms: N1_3  and  C2_5
REMARK    3  A    between atoms: C2_5  and  C3_6
REMARK    4  A    between atoms: C2_5  and  C9_12
REMARK    5  A    between atoms: C9_12  and  O2_13
REMARK    6  A    between atoms: C9_12  and  C10_15
REMARK    7  A    between atoms: C10_15  and  O3_16
REMARK    8  A    between atoms: C10_15  and  C11_18
REMARK    9  A    between atoms: C11_18  and  C12_20
REMARK   10  A    between atoms: C12_20  and  O5_21
ROOT
HETATM    1  C2  UNL     1      66.407  16.454  43.099  1.00  0.00     0.149 C
ENDROOT
BRANCH   1   2
HETATM    2  N1  UNL     1      66.863  17.049  41.845  1.00  0.00    -0.346 N
HETATM    3  C1  UNL     1      65.952  17.356  40.799  1.00  0.00     0.252 C
HETATM    4  O1  UNL     1      64.723  17.088  41.008  1.00  0.00    -0.268 OA
ATOM      5  H1  UNL     1      67.856  17.248  41.718  1.00  0.00     0.163 HD
BRANCH   3   6
HETATM    6  C13 UNL     1      66.350  17.943  39.544  1.00  0.00     0.032 A
HETATM    7  C14 UNL     1      67.652  17.774  39.100  1.00  0.00     0.017 A
HETATM    8  C15 UNL     1      68.093  18.308  37.912  1.00  0.00     0.001 A
HETATM    9  C16 UNL     1      67.210  19.036  37.134  1.00  0.00     0.000 A
HETATM   10  C17 UNL     1      65.911  19.212  37.564  1.00  0.00     0.001 A
HETATM   11  C18 UNL     1      65.471  18.668  38.769  1.00  0.00     0.017 A
ENDBRANCH   3   6
ENDBRANCH   1   2
BRANCH   1  12
HETATM   12  C3  UNL     1      67.101  17.070  44.255  1.00  0.00    -0.033 A
HETATM   13  C4  UNL     1      66.594  17.014  45.552  1.00  0.00     0.009 A
HETATM   14  C5  UNL     1      67.217  17.575  46.626  1.00  0.00     0.001 A
HETATM   15  C6  UNL     1      68.404  18.228  46.432  1.00  0.00     0.000 A
HETATM   16  C7  UNL     1      68.958  18.319  45.181  1.00  0.00     0.001 A
HETATM   17  C8  UNL     1      68.303  17.742  44.114  1.00  0.00     0.009 A
ENDBRANCH   1  12
BRANCH   1  18
HETATM   18  C9  UNL     1      66.577  14.942  43.041  1.00  0.00     0.181 C
BRANCH  18  19
HETATM   19  O2  UNL     1      67.728  14.716  42.236  1.00  0.00    -0.390 OA
ATOM     20  H2  UNL     1      67.779  13.774  42.121  1.00  0.00     0.210 HD
ENDBRANCH  18  19
BRANCH  18  21
HETATM   21  C10 UNL     1      65.455  14.258  42.295  1.00  0.00     0.220 C
BRANCH  21  22
HETATM   22  O3  UNL     1      64.629  13.499  43.086  1.00  0.00    -0.385 OA
ATOM     23  H3  UNL     1      64.565  12.588  42.827  1.00  0.00     0.210 HD
ENDBRANCH  21  22
BRANCH  21  24
HETATM   24  C11 UNL     1      65.977  13.424  41.190  1.00  0.00     0.181 C
HETATM   25  O4  UNL     1      66.266  12.271  41.392  1.00  0.00    -0.293 OA
BRANCH  24  26
HETATM   26  C12 UNL     1      66.143  14.006  39.847  1.00  0.00     0.245 C
BRANCH  26  27
HETATM   27  O5  UNL     1      67.453  14.306  39.545  1.00  0.00    -0.393 OA
ATOM     28  H5  UNL     1      68.007  14.376  40.314  1.00  0.00     0.209 HD
ENDBRANCH  26  27
ENDBRANCH  24  26
ENDBRANCH  21  24
ENDBRANCH  18  21
ENDBRANCH   1  18
TORSDOF 10
ENDMDL