MODEL 4
REMARK VINA RESULT: -6.034931294      1.453      1.576
REMARK  9 active torsions:
REMARK  status: ('A' for Active; 'I' for Inactive)
REMARK    1  A    between atoms: C1_2  and  C2_4
REMARK    2  A    between atoms: C2_4  and  C3_6
REMARK    3  A    between atoms: C3_6  and  C9_13
REMARK    4  A    between atoms: C4_7  and  C5_8
REMARK    5  A    between atoms: C9_13  and  O4_14
REMARK    6  A    between atoms: C9_13  and  N2_16
REMARK    7  A    between atoms: N2_16  and  C10_18
REMARK    8  A    between atoms: C10_18  and  C11_19
REMARK    9  A    between atoms: C10_18  and  C12_22
ROOT
HETATM    1  C9  UNL     1      67.240  16.173  50.434  1.00  0.00     0.253 C
ENDROOT
BRANCH   1   2
HETATM    2  C3  UNL     1      66.255  17.154  50.064  1.00  0.00     0.046 C
HETATM    3  C4  UNL     1      66.195  17.896  48.981  1.00  0.00     0.029 C
BRANCH   2   4
HETATM    4  C2  UNL     1      65.118  17.392  50.988  1.00  0.00     0.246 C
HETATM    5  O2  UNL     1      64.316  16.389  51.155  1.00  0.00    -0.282 OA
BRANCH   4   6
HETATM    6  C1  UNL     1      64.763  18.563  51.713  1.00  0.00     0.305 C
HETATM    7  N1  UNL     1      65.715  19.154  52.654  1.00  0.00    -0.054 NA
HETATM    8  O1  UNL     1      63.676  19.168  51.627  1.00  0.00    -0.267 OA
ENDBRANCH   4   6
ENDBRANCH   2   4
BRANCH   3   9
HETATM    9  C5  UNL     1      67.044  18.019  47.845  1.00  0.00    -0.011 A
HETATM   10  C6  UNL     1      66.826  17.594  46.561  1.00  0.00     0.038 A
HETATM   11  C7  UNL     1      67.936  17.955  45.839  1.00  0.00     0.142 A
HETATM   12  O3  UNL     1      68.762  18.556  46.641  1.00  0.00    -0.334 OA
HETATM   13  C8  UNL     1      68.284  18.621  47.844  1.00  0.00     0.152 A
ENDBRANCH   3   9
ENDBRANCH   1   2
BRANCH   1  14
HETATM   14  O4  UNL     1      67.269  16.312  51.936  1.00  0.00    -0.373 OA
ATOM     15  H4  UNL     1      67.161  15.411  52.219  1.00  0.00     0.212 HD
ENDBRANCH   1  14
BRANCH   1  16
HETATM   16  N2  UNL     1      67.220  14.804  50.288  1.00  0.00    -0.376 N
ATOM     17  H2  UNL     1      67.192  14.477  49.323  1.00  0.00     0.157 HD
BRANCH  16  18
HETATM   18  C10 UNL     1      67.233  13.807  51.237  1.00  0.00     0.214 C
BRANCH  18  19
HETATM   19  C11 UNL     1      66.071  13.353  51.943  1.00  0.00     0.201 C
HETATM   20  O5  UNL     1      65.329  12.419  51.592  1.00  0.00    -0.646 OA
HETATM   21  O6  UNL     1      65.733  14.029  53.155  1.00  0.00    -0.646 OA
ENDBRANCH  18  19
BRANCH  18  22
HETATM   22  C12 UNL     1      67.970  12.592  50.728  1.00  0.00    -0.025 A
HETATM   23  C13 UNL     1      68.516  11.698  51.579  1.00  0.00     0.010 A
HETATM   24  C14 UNL     1      69.210  10.572  51.096  1.00  0.00     0.001 A
HETATM   25  C15 UNL     1      69.343  10.363  49.750  1.00  0.00     0.000 A
HETATM   26  C16 UNL     1      68.788  11.272  48.887  1.00  0.00     0.001 A
HETATM   27  C17 UNL     1      68.114  12.366  49.383  1.00  0.00     0.010 A
ENDBRANCH  18  22
ENDBRANCH  16  18
ENDBRANCH   1  16
TORSDOF 9
ENDMDL