MODEL 5
REMARK VINA RESULT: -6.777439470      4.044      9.324
REMARK  9 active torsions:
REMARK  status: ('A' for Active; 'I' for Inactive)
REMARK    1  A    between atoms: C2_2  and  C4_4
REMARK    2  A    between atoms: C4_4  and  N1_5
REMARK    3  A    between atoms: C4_4  and  C16_25
REMARK       I    between atoms: N1_5  and  C5_7
REMARK    4  A    between atoms: C5_7  and  C6_9
REMARK    5  A    between atoms: C6_9  and  O2_11
REMARK    6  A    between atoms: C6_9  and  N2_13
REMARK       I    between atoms: N2_13  and  C8_15
REMARK    7  A    between atoms: C8_15  and  O4_17
REMARK    8  A    between atoms: O4_17  and  C9_18
REMARK    9  A    between atoms: C9_18  and  C10_19
ROOT
HETATM    1  C6  UNL     1      67.254  18.394  48.876  1.00  0.00     0.215 C
HETATM    2  C7  UNL     1      67.648  17.378  49.936  1.00  0.00     0.082 C
ENDROOT
BRANCH   1   3
HETATM    3  C5  UNL     1      66.174  19.202  49.446  1.00  0.00     0.274 C
HETATM    4  N1  UNL     1      66.433  19.940  50.648  1.00  0.00    -0.342 N
ATOM      5  H1  UNL     1      67.351  19.899  51.090  1.00  0.00     0.163 HD
HETATM    6  O1  UNL     1      65.045  19.252  48.900  1.00  0.00    -0.268 OA
BRANCH   4   7
HETATM    7  C4  UNL     1      65.389  20.735  51.217  1.00  0.00     0.189 C
BRANCH   7   8
HETATM    8  C2  UNL     1      66.019  21.884  51.978  1.00  0.00     0.010 C
HETATM    9  C1  UNL     1      65.854  23.185  51.226  1.00  0.00     0.012 C
HETATM   10  C3  UNL     1      67.453  21.579  52.312  1.00  0.00     0.012 C
ENDBRANCH   7   8
BRANCH   7  11
HETATM   11  C16 UNL     1      64.546  19.893  52.097  1.00  0.00     0.197 C
HETATM   12  O5  UNL     1      63.307  20.151  52.248  1.00  0.00    -0.646 OA
HETATM   13  O6  UNL     1      65.051  18.798  52.790  1.00  0.00    -0.646 OA
ENDBRANCH   7  11
ENDBRANCH   4   7
ENDBRANCH   1   3
BRANCH   1  14
HETATM   14  O2  UNL     1      68.388  19.180  48.644  1.00  0.00    -0.363 OA
ATOM     15  H2  UNL     1      69.174  18.648  48.667  1.00  0.00     0.213 HD
ENDBRANCH   1  14
BRANCH   1  16
HETATM   16  N2  UNL     1      66.858  17.776  47.661  1.00  0.00    -0.297 N
HETATM   17  C8  UNL     1      67.544  17.722  46.431  1.00  0.00     0.363 C
HETATM   18  O3  UNL     1      68.666  18.241  46.195  1.00  0.00    -0.238 OA
ATOM     19  H2  UNL     1      65.953  17.307  47.681  1.00  0.00     0.168 HD
BRANCH  17  20
HETATM   20  O4  UNL     1      66.986  17.047  45.326  1.00  0.00    -0.299 OA
BRANCH  20  21
HETATM   21  C9  UNL     1      66.884  17.664  44.069  1.00  0.00     0.219 C
BRANCH  21  22
HETATM   22  C10 UNL     1      67.021  16.666  43.000  1.00  0.00    -0.034 A
HETATM   23  C11 UNL     1      67.689  15.494  43.274  1.00  0.00     0.009 A
HETATM   24  C12 UNL     1      67.857  14.519  42.310  1.00  0.00     0.001 A
HETATM   25  C13 UNL     1      67.336  14.744  41.053  1.00  0.00     0.000 A
HETATM   26  C14 UNL     1      66.659  15.903  40.733  1.00  0.00     0.001 A
HETATM   27  C15 UNL     1      66.522  16.840  41.731  1.00  0.00     0.009 A
ENDBRANCH  21  22
ENDBRANCH  20  21
ENDBRANCH  17  20
ENDBRANCH   1  16
TORSDOF 9
ENDMDL