MODEL 1
REMARK VINA RESULT: -6.096974401      0.000      0.000
REMARK  8 active torsions:
REMARK  status: ('A' for Active; 'I' for Inactive)
REMARK       I    between atoms: C2_2  and  N1_4
REMARK    1  A    between atoms: N1_4  and  C3_6
REMARK    2  A    between atoms: C3_6  and  C4_7
REMARK    3  A    between atoms: C3_6  and  C11_20
REMARK    4  A    between atoms: C4_7  and  C5_9
REMARK    5  A    between atoms: C5_9  and  N2_12
REMARK    6  A    between atoms: N2_12  and  C8_14
REMARK    7  A    between atoms: C8_14  and  C9_15
REMARK    8  A    between atoms: C8_14  and  C10_17
ROOT
HETATM    1  C4  UNL     1      65.621  16.139  41.473  1.00  0.00     0.180 C
HETATM    2  O2  UNL     1      64.705  15.776  42.222  1.00  0.00    -0.293 OA
ENDROOT
BRANCH   1   3
HETATM    3  C3  UNL     1      67.002  15.842  41.969  1.00  0.00     0.190 C
BRANCH   3   4
HETATM    4  N1  UNL     1      66.947  14.444  42.305  1.00  0.00    -0.346 N
HETATM    5  C2  UNL     1      66.463  13.265  41.898  1.00  0.00     0.214 C
HETATM    6  C1  UNL     1      66.830  12.109  42.958  1.00  0.00     0.117 C
HETATM    7  O1  UNL     1      65.835  12.721  40.996  1.00  0.00    -0.274 OA
ATOM      8  H1  UNL     1      67.466  14.299  43.170  1.00  0.00     0.163 HD
ENDBRANCH   3   4
BRANCH   3   9
HETATM    9  C11 UNL     1      67.388  16.693  43.060  1.00  0.00    -0.028 A
HETATM   10  C12 UNL     1      68.203  17.788  42.955  1.00  0.00     0.009 A
HETATM   11  C13 UNL     1      68.526  18.588  44.092  1.00  0.00     0.001 A
HETATM   12  C14 UNL     1      68.006  18.238  45.319  1.00  0.00     0.000 A
HETATM   13  C15 UNL     1      67.179  17.147  45.454  1.00  0.00     0.001 A
HETATM   14  C16 UNL     1      66.884  16.398  44.348  1.00  0.00     0.009 A
ENDBRANCH   3   9
ENDBRANCH   1   3
BRANCH   1  15
HETATM   15  C5  UNL     1      65.313  16.784  40.190  1.00  0.00     0.082 C
HETATM   16  C6  UNL     1      65.618  15.565  39.198  1.00  0.00     0.046 C
HETATM   17  C7  UNL     1      63.907  17.195  39.996  1.00  0.00     0.046 C
BRANCH  15  18
HETATM   18  N2  UNL     1      66.227  17.787  39.837  1.00  0.00    -0.393 N
ATOM     19  H2  UNL     1      66.661  18.309  40.599  1.00  0.00     0.155 HD
BRANCH  18  20
HETATM   20  C8  UNL     1      66.596  18.133  38.536  1.00  0.00     0.189 C
BRANCH  20  21
HETATM   21  C9  UNL     1      68.091  18.482  38.576  1.00  0.00     0.122 C
HETATM   22  S1  UNL     1      68.844  18.429  36.964  1.00  0.00    -0.095 SA
ENDBRANCH  20  21
BRANCH  20  23
HETATM   23  C10 UNL     1      65.876  19.444  38.195  1.00  0.00     0.197 C
HETATM   24  O3  UNL     1      64.710  19.520  37.942  1.00  0.00    -0.646 OA
HETATM   25  O4  UNL     1      66.668  20.625  38.170  1.00  0.00    -0.646 OA
ENDBRANCH  20  23
ENDBRANCH  18  20
ENDBRANCH  15  18
ENDBRANCH   1  15
TORSDOF 8
ENDMDL