MODEL 2
REMARK VINA RESULT: -6.748229762      0.930      1.270
REMARK  9 active torsions:
REMARK  status: ('A' for Active; 'I' for Inactive)
REMARK    1  A    between atoms: C2_2  and  C4_4
REMARK    2  A    between atoms: C4_4  and  C5_5
REMARK    3  A    between atoms: C5_5  and  N1_6
REMARK    4  A    between atoms: C5_5  and  C13_22
REMARK       I    between atoms: N1_6  and  C6_8
REMARK       I    between atoms: C6_8  and  N2_10
REMARK    5  A    between atoms: N2_10  and  C7_12
REMARK    6  A    between atoms: C7_12  and  C9_14
REMARK       I    between atoms: C9_14  and  N3_16
REMARK    7  A    between atoms: C11_18  and  C12_19
REMARK    8  A    between atoms: C13_22  and  O5_23
REMARK    9  A    between atoms: N4_25  and  O6_27
ROOT
HETATM    1  N1  UNL     1      66.090  17.004  42.316  1.00  0.00    -0.331 N
ATOM      2  H1  UNL     1      65.142  17.356  42.448  1.00  0.00     0.165 HD
HETATM    3  C6  UNL     1      66.981  16.975  43.398  1.00  0.00     0.317 C
HETATM    4  O1  UNL     1      68.145  16.535  43.209  1.00  0.00    -0.247 OA
HETATM    5  N2  UNL     1      66.644  17.414  44.704  1.00  0.00    -0.330 N
ATOM      6  H2  UNL     1      65.705  17.774  44.882  1.00  0.00     0.165 HD
ENDROOT
BRANCH   1   7
HETATM    7  C5  UNL     1      66.520  16.527  40.987  1.00  0.00     0.163 C
BRANCH   7   8
HETATM    8  C4  UNL     1      65.501  17.005  39.984  1.00  0.00     0.037 C
BRANCH   8   9
HETATM    9  C2  UNL     1      66.125  17.576  38.758  1.00  0.00    -0.020 C
HETATM   10  C1  UNL     1      67.584  17.909  39.121  1.00  0.00     0.009 C
HETATM   11  C3  UNL     1      65.483  18.905  38.379  1.00  0.00     0.009 C
ENDBRANCH   8   9
ENDBRANCH   7   8
BRANCH   7  12
HETATM   12  C13 UNL     1      66.442  15.021  41.031  1.00  0.00     0.158 C
HETATM   13  N4  UNL     1      65.317  14.467  40.939  1.00  0.00    -0.249 N
ATOM     14  H4  UNL     1      64.517  15.092  40.839  1.00  0.00     0.196 HD
BRANCH  12  15
HETATM   15  O5  UNL     1      67.645  14.327  41.176  1.00  0.00    -0.347 OA
ATOM     16  H5  UNL     1      68.446  14.832  41.098  1.00  0.00     0.219 HD
ENDBRANCH  12  15
BRANCH  13  17
HETATM   17  O6  UNL     1      65.039  13.147  40.957  1.00  0.00    -0.288 OA
ATOM     18  H6  UNL     1      64.462  12.664  40.378  1.00  0.00     0.244 HD
ENDBRANCH  13  17
ENDBRANCH   7  12
ENDBRANCH   1   7
BRANCH   5  19
HETATM   19  C7  UNL     1      67.592  17.366  45.784  1.00  0.00     0.174 C
HETATM   20  C8  UNL     1      68.817  18.212  45.508  1.00  0.00     0.042 C
BRANCH  19  21
HETATM   21  C9  UNL     1      66.971  17.784  47.062  1.00  0.00     0.243 C
HETATM   22  O2  UNL     1      66.114  18.695  47.044  1.00  0.00    -0.271 OA
HETATM   23  N3  UNL     1      67.373  17.133  48.252  1.00  0.00    -0.332 N
HETATM   24  C10 UNL     1      68.118  16.193  49.056  1.00  0.00     0.163 A
HETATM   25  C11 UNL     1      67.185  17.057  49.723  1.00  0.00     0.206 A
BRANCH  25  26
HETATM   26  C12 UNL     1      67.611  18.281  50.416  1.00  0.00     0.198 C
HETATM   27  O3  UNL     1      68.457  18.227  51.344  1.00  0.00    -0.646 OA
HETATM   28  O4  UNL     1      67.104  19.525  50.073  1.00  0.00    -0.646 OA
ENDBRANCH  25  26
ENDBRANCH  19  21
ENDBRANCH   5  19
TORSDOF 9
ENDMDL