MODEL 3
REMARK VINA RESULT: -8.113228375      0.851      1.772
REMARK  7 active torsions:
REMARK  status: ('A' for Active; 'I' for Inactive)
REMARK    1  A    between atoms: C2_2  and  C3_4
REMARK    2  A    between atoms: C3_4  and  N1_6
REMARK       I    between atoms: N1_6  and  C5_8
REMARK    3  A    between atoms: C5_8  and  C6_10
REMARK    4  A    between atoms: C6_10  and  N2_11
REMARK    5  A    between atoms: C6_10  and  C15_26
REMARK       I    between atoms: N2_11  and  C7_13
REMARK    6  A    between atoms: C7_13  and  C8_15
REMARK    7  A    between atoms: C11_18  and  C12_19
ROOT
HETATM    1  N2  UNL     1      66.843  16.136  43.578  1.00  0.00    -0.343 N
ATOM      2  H2  UNL     1      66.231  15.682  44.256  1.00  0.00     0.163 HD
HETATM    3  C7  UNL     1      67.693  17.198  43.999  1.00  0.00     0.252 C
HETATM    4  O3  UNL     1      68.471  17.805  43.223  1.00  0.00    -0.268 OA
ENDROOT
BRANCH   1   5
HETATM    5  C6  UNL     1      66.837  15.692  42.195  1.00  0.00     0.180 C
BRANCH   5   6
HETATM    6  C5  UNL     1      66.486  16.783  41.275  1.00  0.00     0.241 C
HETATM    7  N1  UNL     1      67.317  17.124  40.192  1.00  0.00    -0.348 N
ATOM      8  H1  UNL     1      68.179  16.592  40.067  1.00  0.00     0.163 HD
HETATM    9  O2  UNL     1      65.431  17.421  41.449  1.00  0.00    -0.271 OA
BRANCH   7  10
HETATM   10  C3  UNL     1      67.029  18.189  39.236  1.00  0.00     0.149 C
HETATM   11  C4  UNL     1      68.099  18.126  38.165  1.00  0.00     0.040 C
BRANCH  10  12
HETATM   12  C2  UNL     1      65.705  18.011  38.613  1.00  0.00     0.145 C
HETATM   13  C1  UNL     1      64.728  19.105  38.521  1.00  0.00     0.093 C
HETATM   14  O1  UNL     1      65.416  16.916  38.162  1.00  0.00    -0.296 OA
ENDBRANCH  10  12
ENDBRANCH   7  10
ENDBRANCH   5   6
BRANCH   5  15
HETATM   15  C15 UNL     1      65.924  14.485  42.030  1.00  0.00     0.009 C
HETATM   16  C16 UNL     1      65.758  14.214  40.548  1.00  0.00     0.012 C
HETATM   17  C17 UNL     1      66.446  13.253  42.673  1.00  0.00     0.012 C
ENDBRANCH   5  15
ENDBRANCH   1   5
BRANCH   3  18
HETATM   18  C8  UNL     1      67.701  17.641  45.392  1.00  0.00     0.032 A
HETATM   19  C9  UNL     1      68.804  18.252  45.956  1.00  0.00     0.018 A
HETATM   20  C10 UNL     1      68.731  18.638  47.271  1.00  0.00     0.016 A
HETATM   21  C11 UNL     1      67.583  18.430  48.035  1.00  0.00     0.004 A
HETATM   22  C13 UNL     1      66.482  17.823  47.475  1.00  0.00     0.016 A
HETATM   23  C14 UNL     1      66.567  17.437  46.151  1.00  0.00     0.018 A
BRANCH  21  24
HETATM   24  C12 UNL     1      67.542  18.831  49.416  1.00  0.00     0.120 C
HETATM   25  N3  UNL     1      66.670  19.618  49.888  1.00  0.00    -0.387 N
ATOM     26  H32 UNL     1      65.971  19.985  49.241  1.00  0.00     0.157 HD
ATOM     27  H31 UNL     1      66.642  19.903  50.867  1.00  0.00     0.157 HD
HETATM   28  N4  UNL     1      68.527  18.315  50.325  1.00  0.00    -0.082 NA
ENDBRANCH  21  24
ENDBRANCH   3  18
TORSDOF 7
ENDMDL