MODEL 4
REMARK VINA RESULT: -6.384244288      8.177     11.115
REMARK  10 active torsions:
REMARK  status: ('A' for Active; 'I' for Inactive)
REMARK    1  A    between atoms: C1_2  and  C2_4
REMARK    2  A    between atoms: C2_4  and  C3_5
REMARK    3  A    between atoms: C3_5  and  N2_6
REMARK    4  A    between atoms: C3_5  and  C4_10
REMARK    5  A    between atoms: C4_10  and  N3_11
REMARK    6  A    between atoms: C4_10  and  C5_15
REMARK    7  A    between atoms: C4_10  and  N4_17
REMARK    8  A    between atoms: N4_17  and  C6_19
REMARK    9  A    between atoms: C6_19  and  C7_20
REMARK   10  A    between atoms: C6_19  and  C13_26
ROOT
HETATM    1  C4  UNL     1      63.226  18.075  50.895  1.00  0.00     0.274 C
ENDROOT
BRANCH   1   2
HETATM    2  C3  UNL     1      61.988  18.415  51.804  1.00  0.00     0.254 C
BRANCH   2   3
HETATM    3  C2  UNL     1      61.453  17.083  52.254  1.00  0.00     0.137 C
BRANCH   3   4
HETATM    4  C1  UNL     1      60.059  16.860  51.790  1.00  0.00     0.233 C
HETATM    5  N1  UNL     1      58.977  17.273  52.590  1.00  0.00    -0.062 NA
HETATM    6  O1  UNL     1      59.850  16.312  50.699  1.00  0.00    -0.277 OA
ENDBRANCH   3   4
ENDBRANCH   2   3
BRANCH   2   7
HETATM    7  N2  UNL     1      60.975  19.020  50.968  1.00  0.00    -0.070 N
ATOM      8  H23 UNL     1      61.234  19.050  49.983  1.00  0.00     0.274 HD
ATOM      9  H22 UNL     1      60.142  18.441  50.866  1.00  0.00     0.274 HD
ATOM     10  H21 UNL     1      60.775  19.942  51.358  1.00  0.00     0.274 HD
ENDBRANCH   2   7
ENDBRANCH   1   2
BRANCH   1  11
HETATM   11  N3  UNL     1      62.536  17.756  49.625  1.00  0.00    -0.044 N
ATOM     12  H33 UNL     1      61.775  18.381  49.364  1.00  0.00     0.277 HD
ATOM     13  H32 UNL     1      63.073  17.922  48.774  1.00  0.00     0.277 HD
ATOM     14  H31 UNL     1      62.274  16.787  49.803  1.00  0.00     0.277 HD
ENDBRANCH   1  11
BRANCH   1  15
HETATM   15  C5  UNL     1      63.797  16.873  51.495  1.00  0.00     0.294 C
HETATM   16  O2  UNL     1      64.462  15.995  51.012  1.00  0.00    -0.302 OA
ENDBRANCH   1  15
BRANCH   1  17
HETATM   17  N4  UNL     1      63.992  19.218  50.710  1.00  0.00    -0.371 N
ATOM     18  H4  UNL     1      63.504  20.053  50.387  1.00  0.00     0.157 HD
BRANCH  17  19
HETATM   19  C6  UNL     1      65.357  19.331  50.923  1.00  0.00     0.146 C
BRANCH  19  20
HETATM   20  C7  UNL     1      66.292  19.041  49.823  1.00  0.00    -0.031 A
HETATM   21  C8  UNL     1      65.845  18.752  48.534  1.00  0.00     0.009 A
HETATM   22  C9  UNL     1      66.691  18.504  47.489  1.00  0.00     0.001 A
HETATM   23  C10 UNL     1      68.056  18.531  47.691  1.00  0.00     0.000 A
HETATM   24  C11 UNL     1      68.516  18.820  48.978  1.00  0.00     0.001 A
HETATM   25  C12 UNL     1      67.661  19.069  50.022  1.00  0.00     0.009 A
ENDBRANCH  19  20
BRANCH  19  26
HETATM   26  C13 UNL     1      65.667  20.694  51.493  1.00  0.00    -0.031 A
HETATM   27  C14 UNL     1      66.328  20.847  52.692  1.00  0.00     0.009 A
HETATM   28  C15 UNL     1      66.644  22.081  53.235  1.00  0.00     0.001 A
HETATM   29  C16 UNL     1      66.292  23.219  52.564  1.00  0.00     0.000 A
HETATM   30  C17 UNL     1      65.629  23.111  51.362  1.00  0.00     0.001 A
HETATM   31  C18 UNL     1      65.327  21.862  50.844  1.00  0.00     0.009 A
ENDBRANCH  19  26
ENDBRANCH  17  19
ENDBRANCH   1  17
TORSDOF 10
ENDMDL