MODEL 2
REMARK VINA RESULT: -6.711044913      1.090      1.793
REMARK  3 active torsions:
REMARK  status: ('A' for Active; 'I' for Inactive)
REMARK    1  A    between atoms: C2_2  and  N1_3
REMARK       I    between atoms: N2_5  and  C3_7
REMARK    2  A    between atoms: C3_7  and  C4_9
REMARK    3  A    between atoms: C7_13  and  N3_14
ROOT
HETATM    1  N1  UNL     1     -17.511 -17.661  18.639  1.00  0.00    -0.317 N
ATOM      2  H1  UNL     1     -18.136 -17.784  19.435  1.00  0.00     0.181 HD
HETATM    3  N2  UNL     1     -17.570 -16.608  17.973  1.00  0.00    -0.269 N
ATOM      4  H2  UNL     1     -16.946 -16.481  17.176  1.00  0.00     0.190 HD
HETATM    5  C3  UNL     1     -18.503 -15.574  18.311  1.00  0.00     0.272 C
HETATM    6  O1  UNL     1     -18.844 -15.521  19.501  1.00  0.00    -0.266 OA
ENDROOT
BRANCH   1   7
HETATM    7  C2  UNL     1     -16.557 -18.729  18.299  1.00  0.00     0.102 C
HETATM    8  C1  UNL     1     -17.422 -19.955  17.973  1.00  0.00     0.048 C
HETATM    9  C8  UNL     1     -15.782 -18.251  17.125  1.00  0.00     0.047 C
HETATM   10  C9  UNL     1     -14.365 -18.675  17.046  1.00  0.00     0.081 C
HETATM   11  C10 UNL     1     -14.018 -19.932  17.708  1.00  0.00     0.127 C
HETATM   12  O4  UNL     1     -13.989 -20.983  17.075  1.00  0.00    -0.298 OA
HETATM   13  C11 UNL     1     -13.672 -20.120  19.147  1.00  0.00     0.085 C
HETATM   14  C12 UNL     1     -15.019 -20.250  19.870  1.00  0.00     0.088 C
HETATM   15  C13 UNL     1     -15.763 -18.989  19.513  1.00  0.00     0.156 C
HETATM   16  O5  UNL     1     -15.655 -18.129  20.368  1.00  0.00    -0.295 OA
ENDBRANCH   1   7
BRANCH   5  17
HETATM   17  C4  UNL     1     -19.000 -14.647  17.252  1.00  0.00     0.073 A
HETATM   18  C5  UNL     1     -18.930 -13.277  17.508  1.00  0.00     0.069 A
HETATM   19  S1  UNL     1     -19.642 -12.573  16.148  1.00  0.00    -0.110 SA
HETATM   20  C6  UNL     1     -20.022 -13.958  15.271  1.00  0.00     0.086 A
HETATM   21  C7  UNL     1     -19.567 -15.005  16.087  1.00  0.00     0.125 A
BRANCH  21  22
HETATM   22  N3  UNL     1     -19.761 -16.356  15.584  1.00  0.00    -0.114 N
HETATM   23  O2  UNL     1     -20.946 -16.757  15.321  1.00  0.00    -0.532 OA
HETATM   24  O3  UNL     1     -18.805 -17.280  15.365  1.00  0.00    -0.532 OA
ENDBRANCH  21  22
ENDBRANCH   5  17
TORSDOF 3
ENDMDL