MODEL 3
REMARK VINA RESULT: -5.063470411      2.439      3.243
REMARK  4 active torsions:
REMARK  status: ('A' for Active; 'I' for Inactive)
REMARK    1  A    between atoms: C2_2  and  O1_3
REMARK    2  A    between atoms: O1_3  and  C3_4
REMARK    3  A    between atoms: C3_4  and  C4_6
REMARK    4  A    between atoms: C12_20  and  N3_21
ROOT
HETATM    1  C4  UNL     1     -17.537 -18.424  17.837  1.00  0.00     0.095 C
HETATM    2  C5  UNL     1     -18.249 -18.821  18.908  1.00  0.00     0.063 C
HETATM    3  C6  UNL     1     -19.443 -18.092  19.304  1.00  0.00     0.077 C
HETATM    4  O3  UNL     1     -17.859 -19.928  19.666  1.00  0.00    -0.334 OA
HETATM    5  C7  UNL     1     -16.887 -20.807  19.301  1.00  0.00     0.229 C
HETATM    6  S1  UNL     1     -15.541 -20.863  20.518  1.00  0.00    -0.078 SA
HETATM    7  C8  UNL     1     -14.218 -21.235  19.323  1.00  0.00     0.065 C
HETATM    8  N1  UNL     1     -13.018 -21.357  19.622  1.00  0.00    -0.396 N
ATOM      9  H11 UNL     1     -12.277 -21.565  18.952  1.00  0.00     0.156 HD
ATOM     10  H12 UNL     1     -12.512 -21.292  20.506  1.00  0.00     0.156 HD
HETATM   11  C9  UNL     1     -14.959 -21.330  18.029  1.00  0.00     0.183 C
HETATM   12  C10 UNL     1     -15.489 -22.714  17.975  1.00  0.00     0.075 C
HETATM   13  N2  UNL     1     -15.885 -23.799  17.939  1.00  0.00    -0.196 NA
HETATM   14  C11 UNL     1     -16.067 -20.351  18.121  1.00  0.00     0.011 C
HETATM   15  C12 UNL     1     -16.404 -19.233  17.453  1.00  0.00     0.056 C
ENDROOT
BRANCH  15  16
HETATM   16  N3  UNL     1     -15.584 -18.864  16.331  1.00  0.00    -0.380 N
HETATM   17  C13 UNL     1     -14.268 -18.209  16.373  1.00  0.00     0.124 A
HETATM   18  C14 UNL     1     -14.189 -18.220  14.886  1.00  0.00     0.040 A
HETATM   19  C15 UNL     1     -15.532 -18.936  14.908  1.00  0.00     0.124 A
ENDBRANCH  15  16
BRANCH   1  20
HETATM   20  C3  UNL     1     -17.947 -17.266  17.073  1.00  0.00     0.298 C
HETATM   21  O2  UNL     1     -18.570 -17.333  15.989  1.00  0.00    -0.259 OA
BRANCH  20  22
HETATM   22  O1  UNL     1     -17.703 -15.936  17.442  1.00  0.00    -0.318 OA
BRANCH  22  23
HETATM   23  C2  UNL     1     -18.685 -14.986  17.707  1.00  0.00     0.174 C
HETATM   24  C1  UNL     1     -18.745 -13.862  16.711  1.00  0.00     0.034 C
ENDBRANCH  22  23
ENDBRANCH  20  22
ENDBRANCH   1  20
TORSDOF 4
ENDMDL