MODEL 1
REMARK VINA RESULT: -7.030485292      0.000      0.000
REMARK  2 active torsions:
REMARK  status: ('A' for Active; 'I' for Inactive)
REMARK    1  A    between atoms: N1_4  and  C3_6
REMARK    2  A    between atoms: C8_14  and  C9_15
ROOT
HETATM    1  C1  UNL     1     -18.097 -17.084  19.051  1.00  0.00     0.085 A
HETATM    2  S1  UNL     1     -18.744 -15.590  18.557  1.00  0.00    -0.064 SA
HETATM    3  C2  UNL     1     -18.878 -15.906  16.899  1.00  0.00     0.145 A
HETATM    4  N1  UNL     1     -19.315 -15.158  15.907  1.00  0.00    -0.364 N
ATOM      5  H1  UNL     1     -19.299 -15.573  14.975  1.00  0.00     0.162 HD
HETATM    6  N2  UNL     1     -18.418 -17.156  16.782  1.00  0.00    -0.334 N
ATOM      7  H2  UNL     1     -18.381 -17.616  15.873  1.00  0.00     0.168 HD
HETATM    8  C8  UNL     1     -18.014 -17.777  17.865  1.00  0.00     0.071 A
ENDROOT
BRANCH   8   9
HETATM    9  C9  UNL     1     -17.475 -19.179  17.888  1.00  0.00     0.108 A
HETATM   10  C10 UNL     1     -17.599 -20.066  18.933  1.00  0.00     0.124 A
HETATM   11  N3  UNL     1     -16.982 -21.192  18.549  1.00  0.00    -0.343 N
HETATM   12  C11 UNL     1     -16.505 -21.022  17.348  1.00  0.00     0.172 A
ATOM     13  H3  UNL     1     -16.898 -22.043  19.106  1.00  0.00     0.167 HD
HETATM   14  N4  UNL     1     -16.795 -19.783  16.910  1.00  0.00    -0.196 N
HETATM   15  S2  UNL     1     -15.588 -22.110  16.276  1.00  0.00    -0.089 SA
HETATM   16  O2  UNL     1     -16.409 -19.352  15.674  1.00  0.00    -0.270 OA
HETATM   17  C12 UNL     1     -16.335 -20.121  14.524  1.00  0.00     0.212 C
HETATM   18  C13 UNL     1     -15.784 -21.484  14.610  1.00  0.00     0.111 C
ENDBRANCH   8   9
BRANCH   4  19
HETATM   19  C3  UNL     1     -19.800 -13.851  16.007  1.00  0.00     0.107 C
HETATM   20  C4  UNL     1     -20.016 -13.271  14.616  1.00  0.00     0.029 C
HETATM   21  C5  UNL     1     -20.062 -11.751  14.838  1.00  0.00     0.028 C
HETATM   22  C6  UNL     1     -20.760 -11.531  16.158  1.00  0.00     0.167 C
HETATM   23  O1  UNL     1     -19.868 -11.819  17.187  1.00  0.00    -0.389 OA
HETATM   24  C7  UNL     1     -19.033 -12.901  16.873  1.00  0.00     0.192 C
ENDBRANCH   4  19
TORSDOF 2
ENDMDL