MODEL 1
REMARK VINA RESULT: -5.625127830      0.000      0.000
REMARK  2 active torsions:
REMARK  status: ('A' for Active; 'I' for Inactive)
REMARK    1  A    between atoms: C3_4  and  C4_5
REMARK    2  A    between atoms: C9_15  and  C10_16
ROOT
HETATM    1  N1  UNL     1     -12.434 -18.719  18.090  1.00  0.00    -0.197 NA
HETATM    2  C1  UNL     1     -13.465 -19.107  18.447  1.00  0.00     0.067 C
HETATM    3  C2  UNL     1     -14.797 -19.603  18.879  1.00  0.00     0.142 C
HETATM    4  C3  UNL     1     -15.267 -18.776  19.994  1.00  0.00     0.078 C
HETATM    5  C7  UNL     1     -16.730 -18.621  20.159  1.00  0.00     0.060 C
HETATM    6  C8  UNL     1     -17.521 -18.698  18.937  1.00  0.00     0.001 C
HETATM    7  S1  UNL     1     -18.677 -17.894  18.769  1.00  0.00    -0.089 SA
HETATM    8  C9  UNL     1     -17.112 -19.624  17.869  1.00  0.00     0.121 C
HETATM    9  C14 UNL     1     -15.632 -19.721  17.680  1.00  0.00     0.168 C
HETATM   10  C15 UNL     1     -15.359 -21.010  17.026  1.00  0.00     0.087 C
HETATM   11  N4  UNL     1     -15.131 -22.028  16.514  1.00  0.00    -0.195 NA
HETATM   12  C16 UNL     1     -15.211 -18.687  16.705  1.00  0.00     0.087 C
HETATM   13  N5  UNL     1     -14.899 -17.878  15.939  1.00  0.00    -0.195 NA
ENDROOT
BRANCH   4  14
HETATM   14  C4  UNL     1     -14.704 -19.295  21.296  1.00  0.00     0.078 C
HETATM   15  N2  UNL     1     -15.106 -20.337  21.932  1.00  0.00    -0.378 N
HETATM   16  C5  UNL     1     -14.363 -20.567  23.146  1.00  0.00     0.140 C
ATOM     17  H2  UNL     1     -15.868 -20.936  21.613  1.00  0.00     0.160 HD
HETATM   18  C6  UNL     1     -13.122 -19.711  22.968  1.00  0.00     0.140 C
HETATM   19  N3  UNL     1     -13.634 -18.716  22.035  1.00  0.00    -0.378 N
ATOM     20  H3  UNL     1     -13.284 -17.764  21.929  1.00  0.00     0.160 HD
ENDBRANCH   4  14
BRANCH   8  21
HETATM   21  C10 UNL     1     -17.718 -20.983  18.105  1.00  0.00     0.064 A
HETATM   22  C11 UNL     1     -17.561 -21.762  19.228  1.00  0.00     0.035 A
HETATM   23  C12 UNL     1     -18.296 -22.933  19.015  1.00  0.00     0.027 A
HETATM   24  C13 UNL     1     -18.850 -22.789  17.779  1.00  0.00     0.142 A
HETATM   25  O1  UNL     1     -18.491 -21.624  17.264  1.00  0.00    -0.326 OA
ENDBRANCH   8  21
TORSDOF 2
ENDMDL