MODEL 3
REMARK VINA RESULT: -7.015508983      1.516      4.086
REMARK  4 active torsions:
REMARK  status: ('A' for Active; 'I' for Inactive)
REMARK    1  A    between atoms: C2_2  and  O1_3
REMARK    2  A    between atoms: O1_3  and  C3_4
REMARK    3  A    between atoms: C3_4  and  O3_6
REMARK    4  A    between atoms: O3_6  and  N1_7
REMARK       I    between atoms: C4_9  and  N3_11
ROOT
HETATM    1  N1  UNL     1     -17.651 -16.900  17.852  1.00  0.00    -0.225 N
ATOM      2  H1  UNL     1     -17.905 -16.526  18.767  1.00  0.00     0.198 HD
HETATM    3  C4  UNL     1     -17.085 -18.058  17.780  1.00  0.00     0.240 C
HETATM    4  N2  UNL     1     -16.736 -18.562  16.499  1.00  0.00    -0.059 NA
HETATM    5  N3  UNL     1     -16.823 -18.805  18.991  1.00  0.00    -0.190 N
HETATM    6  O4  UNL     1     -16.250 -18.255  20.044  1.00  0.00    -0.265 OA
HETATM    7  C5  UNL     1     -15.608 -19.032  20.947  1.00  0.00     0.153 C
HETATM    8  C6  UNL     1     -14.217 -18.415  21.167  1.00  0.00     0.042 C
HETATM    9  C7  UNL     1     -15.383 -20.465  20.599  1.00  0.00     0.075 C
HETATM   10  C8  UNL     1     -16.495 -21.036  19.823  1.00  0.00    -0.024 A
HETATM   11  C9  UNL     1     -16.824 -22.355  19.881  1.00  0.00     0.049 A
HETATM   12  C10 UNL     1     -17.886 -22.847  19.127  1.00  0.00     0.105 A
HETATM   13  C11 UNL     1     -18.585 -21.968  18.331  1.00  0.00     0.107 A
HETATM   14  C12 UNL     1     -18.273 -20.606  18.249  1.00  0.00     0.072 A
HETATM   15  C13 UNL     1     -17.208 -20.179  19.021  1.00  0.00     0.075 A
HETATM   16  O5  UNL     1     -19.576 -22.685  17.692  1.00  0.00    -0.323 OA
HETATM   17  C14 UNL     1     -19.741 -23.913  18.372  1.00  0.00     0.352 C
HETATM   18  O6  UNL     1     -18.456 -24.102  18.971  1.00  0.00    -0.323 OA
ENDROOT
BRANCH   1  19
HETATM   19  O3  UNL     1     -17.918 -16.161  16.728  1.00  0.00    -0.172 OA
BRANCH  19  20
HETATM   20  C3  UNL     1     -19.222 -15.818  16.367  1.00  0.00     0.428 C
HETATM   21  O2  UNL     1     -19.865 -16.696  15.729  1.00  0.00    -0.227 OA
BRANCH  20  22
HETATM   22  O1  UNL     1     -19.807 -14.613  16.666  1.00  0.00    -0.297 OA
BRANCH  22  23
HETATM   23  C2  UNL     1     -19.064 -13.486  17.039  1.00  0.00     0.177 C
HETATM   24  C1  UNL     1     -19.824 -12.195  16.903  1.00  0.00     0.034 C
ENDBRANCH  22  23
ENDBRANCH  20  22
ENDBRANCH  19  20
ENDBRANCH   1  19
TORSDOF 4
ENDMDL