MODEL 5
REMARK VINA RESULT: -6.794837620      2.086      6.841
REMARK  5 active torsions:
REMARK  status: ('A' for Active; 'I' for Inactive)
REMARK    1  A    between atoms: C2_2  and  C3_3
REMARK    2  A    between atoms: C3_3  and  O2_5
REMARK    3  A    between atoms: O2_5  and  C4_6
REMARK    4  A    between atoms: C4_6  and  O3_7
REMARK    5  A    between atoms: O3_7  and  O4_8
ROOT
HETATM    1  C4  UNL     1     -13.626 -20.438  16.779  1.00  0.00     0.299 C
HETATM    2  C5  UNL     1     -13.991 -21.540  17.802  1.00  0.00     0.326 C
HETATM    3  O5  UNL     1     -13.443 -22.658  17.733  1.00  0.00    -0.259 OA
HETATM    4  O6  UNL     1     -14.923 -20.991  18.637  1.00  0.00    -0.311 OA
HETATM    5  C6  UNL     1     -15.567 -19.919  18.013  1.00  0.00     0.143 C
HETATM    6  C7  UNL     1     -15.938 -18.826  19.016  1.00  0.00     0.047 C
HETATM    7  C8  UNL     1     -17.136 -18.119  18.513  1.00  0.00    -0.012 C
HETATM    8  C9  UNL     1     -18.341 -19.032  18.453  1.00  0.00     0.020 C
HETATM    9  C10 UNL     1     -17.477 -17.003  19.480  1.00  0.00     0.092 C
HETATM   10  C11 UNL     1     -18.434 -16.203  18.688  1.00  0.00     0.131 C
HETATM   11  O7  UNL     1     -19.419 -15.633  19.106  1.00  0.00    -0.298 OA
HETATM   12  C12 UNL     1     -17.954 -16.234  17.281  1.00  0.00     0.113 C
HETATM   13  C13 UNL     1     -16.927 -17.350  17.277  1.00  0.00    -0.068 C
HETATM   14  C14 UNL     1     -16.059 -17.521  16.334  1.00  0.00    -0.022 C
HETATM   15  C15 UNL     1     -14.987 -18.463  16.084  1.00  0.00     0.040 C
HETATM   16  C16 UNL     1     -14.465 -19.296  17.168  1.00  0.00     0.095 C
ENDROOT
BRANCH   1  17
HETATM   17  O2  UNL     1     -13.816 -21.067  15.571  1.00  0.00    -0.267 OA
BRANCH  17  18
HETATM   18  C3  UNL     1     -12.966 -21.213  14.520  1.00  0.00     0.285 C
HETATM   19  O1  UNL     1     -12.342 -22.309  14.403  1.00  0.00    -0.260 OA
BRANCH  18  20
HETATM   20  C2  UNL     1     -12.754 -20.139  13.525  1.00  0.00     0.072 C
HETATM   21  C1  UNL     1     -13.755 -19.786  12.752  1.00  0.00     0.017 C
ENDBRANCH  18  20
ENDBRANCH  17  18
ENDBRANCH   1  17
BRANCH   1  22
HETATM   22  O3  UNL     1     -12.246 -20.242  17.050  1.00  0.00    -0.191 OA
BRANCH  22  23
HETATM   23  O4  UNL     1     -12.053 -20.138  18.341  1.00  0.00    -0.247 OA
ATOM     24  H4  UNL     1     -12.378 -19.301  18.653  1.00  0.00     0.253 HD
ENDBRANCH  22  23
ENDBRANCH   1  22
TORSDOF 5
ENDMDL