MODEL 3
REMARK VINA RESULT: -5.520748755      1.380      1.615
REMARK  2 active torsions:
REMARK  status: ('A' for Active; 'I' for Inactive)
REMARK    1  A    between atoms: C3_5  and  C4_6
REMARK    2  A    between atoms: C7_12  and  C8_13
ROOT
HETATM    1  C4  UNL     1     -18.574 -17.203  17.703  1.00  0.00     0.231 C
HETATM    2  C5  UNL     1     -18.820 -16.082  18.648  1.00  0.00     0.081 C
HETATM    3  N2  UNL     1     -19.032 -15.208  19.381  1.00  0.00    -0.196 NA
HETATM    4  C6  UNL     1     -19.189 -16.864  16.443  1.00  0.00     0.081 C
HETATM    5  N3  UNL     1     -19.699 -16.594  15.454  1.00  0.00    -0.196 NA
ENDROOT
BRANCH   1   6
HETATM    6  C3  UNL     1     -17.097 -17.441  17.609  1.00  0.00     0.175 C
HETATM    7  N1  UNL     1     -16.512 -17.846  18.817  1.00  0.00    -0.380 N
HETATM    8  C2  UNL     1     -15.966 -18.926  19.099  1.00  0.00    -0.002 C
ATOM      9  H1  UNL     1     -16.538 -17.158  19.569  1.00  0.00     0.160 HD
HETATM   10  C1  UNL     1     -15.416 -19.084  20.500  1.00  0.00     0.064 C
HETATM   11  C14 UNL     1     -15.852 -20.020  18.084  1.00  0.00     0.156 C
HETATM   12  C7  UNL     1     -15.233 -19.454  16.892  1.00  0.00     0.109 C
HETATM   13  C15 UNL     1     -17.207 -20.544  17.934  1.00  0.00     0.071 C
HETATM   14  S1  UNL     1     -16.595 -18.412  16.162  1.00  0.00    -0.130 SA
HETATM   15  N6  UNL     1     -18.276 -20.980  17.805  1.00  0.00    -0.196 NA
BRANCH  12  16
HETATM   16  C8  UNL     1     -14.554 -20.217  15.900  1.00  0.00     0.005 A
HETATM   17  C9  UNL     1     -13.146 -20.209  15.811  1.00  0.00     0.031 A
HETATM   18  C10 UNL     1     -12.213 -19.450  16.713  1.00  0.00     0.070 C
HETATM   19  N4  UNL     1     -12.774 -20.987  14.805  1.00  0.00    -0.303 N
HETATM   20  N5  UNL     1     -13.839 -21.508  14.222  1.00  0.00    -0.300 N
ATOM     21  H4  UNL     1     -11.809 -21.159  14.522  1.00  0.00     0.186 HD
HETATM   22  C11 UNL     1     -13.844 -22.418  13.078  1.00  0.00     0.177 C
HETATM   23  C12 UNL     1     -14.945 -21.053  14.874  1.00  0.00     0.033 A
HETATM   24  C13 UNL     1     -16.320 -21.370  14.540  1.00  0.00     0.070 C
ENDBRANCH  12  16
ENDBRANCH   1   6
TORSDOF 2
ENDMDL