MODEL 2
REMARK VINA RESULT: -5.611830595      1.338      1.974
REMARK  3 active torsions:
REMARK  status: ('A' for Active; 'I' for Inactive)
REMARK    1  A    between atoms: N1_1  and  N2_4
REMARK    2  A    between atoms: C1_6  and  N3_7
REMARK    3  A    between atoms: N3_7  and  N4_9
ROOT
HETATM    1  N4  UNL     1     -16.649 -18.711  19.013  1.00  0.00    -0.217 N
HETATM    2  C2  UNL     1     -17.884 -18.024  18.877  1.00  0.00     0.278 C
HETATM    3  O1  UNL     1     -18.777 -18.227  19.766  1.00  0.00    -0.268 OA
HETATM    4  C3  UNL     1     -18.157 -17.113  17.777  1.00  0.00     0.151 C
HETATM    5  C4  UNL     1     -18.151 -15.660  18.163  1.00  0.00     0.049 C
HETATM    6  C5  UNL     1     -18.735 -14.999  16.931  1.00  0.00     0.004 C
HETATM    7  C6  UNL     1     -19.466 -16.107  16.161  1.00  0.00     0.004 C
HETATM    8  C7  UNL     1     -19.563 -17.242  17.195  1.00  0.00     0.049 C
HETATM    9  O2  UNL     1     -17.279 -17.315  16.693  1.00  0.00    -0.321 OA
HETATM   10  C8  UNL     1     -16.053 -18.002  16.832  1.00  0.00     0.141 A
HETATM   11  S1  UNL     1     -14.719 -18.186  15.755  1.00  0.00    -0.056 SA
HETATM   12  C9  UNL     1     -13.718 -19.152  16.740  1.00  0.00     0.091 A
HETATM   13  C10 UNL     1     -14.446 -19.304  17.877  1.00  0.00    -0.001 A
HETATM   14  C11 UNL     1     -15.666 -18.707  17.929  1.00  0.00     0.108 A
HETATM   15  C12 UNL     1     -13.769 -20.135  18.948  1.00  0.00     0.069 C
HETATM   16  C13 UNL     1     -12.285 -20.126  18.829  1.00  0.00     0.183 C
HETATM   17  O3  UNL     1     -11.793 -20.506  17.546  1.00  0.00    -0.317 OA
HETATM   18  C14 UNL     1     -12.366 -19.747  16.532  1.00  0.00     0.301 C
HETATM   19  O4  UNL     1     -11.841 -19.506  15.421  1.00  0.00    -0.259 OA
ENDROOT
BRANCH   1  20
HETATM   20  N3  UNL     1     -16.431 -19.385  20.220  1.00  0.00    -0.285 N
ATOM     21  H3  UNL     1     -15.964 -18.864  20.962  1.00  0.00     0.188 HD
BRANCH  20  22
HETATM   22  C1  UNL     1     -16.792 -20.705  20.505  1.00  0.00     0.214 C
HETATM   23  N2  UNL     1     -17.180 -21.507  19.558  1.00  0.00    -0.301 N
ATOM     24  H2  UNL     1     -17.221 -21.166  18.597  1.00  0.00     0.187 HD
BRANCH  23  25
HETATM   25  N1  UNL     1     -17.538 -22.811  19.829  1.00  0.00    -0.344 N
ATOM     26  H12 UNL     1     -17.783 -23.057  20.788  1.00  0.00     0.176 HD
ATOM     27  H11 UNL     1     -17.560 -23.516  19.092  1.00  0.00     0.176 HD
ENDBRANCH  23  25
ENDBRANCH  20  22
ENDBRANCH   1  20
TORSDOF 3
ENDMDL