MODEL 5
REMARK VINA RESULT: -5.018979491      3.731      5.347
REMARK  4 active torsions:
REMARK  status: ('A' for Active; 'I' for Inactive)
REMARK    1  A    between atoms: C2_2  and  N1_3
REMARK    2  A    between atoms: N1_3  and  C3_4
REMARK       I    between atoms: N1_3  and  C5_6
REMARK    3  A    between atoms: C5_6  and  O2_8
REMARK    4  A    between atoms: O2_8  and  C6_9
ROOT
HETATM    1  C6  UNL     1     -14.580 -19.002  17.650  1.00  0.00     0.077 C
HETATM    2  C7  UNL     1     -13.838 -18.394  16.519  1.00  0.00     0.078 C
HETATM    3  C8  UNL     1     -14.052 -19.175  18.825  1.00  0.00     0.103 C
HETATM    4  S1  UNL     1     -14.763 -19.883  20.314  1.00  0.00    -0.050 SA
HETATM    5  C9  UNL     1     -13.310 -19.654  21.370  1.00  0.00     0.246 C
HETATM    6  N2  UNL     1     -12.557 -18.699  20.631  1.00  0.00    -0.306 N
ATOM      7  H2  UNL     1     -11.970 -17.991  21.074  1.00  0.00     0.167 HD
HETATM    8  C10 UNL     1     -12.694 -18.820  19.225  1.00  0.00     0.264 C
HETATM    9  O3  UNL     1     -11.704 -18.627  18.433  1.00  0.00    -0.267 OA
HETATM   10  O4  UNL     1     -13.584 -19.287  22.645  1.00  0.00    -0.342 OA
HETATM   11  C11 UNL     1     -14.012 -20.348  23.376  1.00  0.00     0.183 C
HETATM   12  C12 UNL     1     -12.901 -21.411  23.387  1.00  0.00     0.106 C
HETATM   13  S2  UNL     1     -12.409 -21.232  21.618  1.00  0.00    -0.095 SA
ENDROOT
BRANCH   1  14
HETATM   14  O2  UNL     1     -15.890 -19.398  17.425  1.00  0.00    -0.265 OA
BRANCH  14  15
HETATM   15  C5  UNL     1     -16.787 -18.531  16.792  1.00  0.00     0.367 C
HETATM   16  N1  UNL     1     -17.572 -17.628  17.554  1.00  0.00    -0.328 N
HETATM   17  O1  UNL     1     -16.848 -18.605  15.547  1.00  0.00    -0.238 OA
BRANCH  16  18
HETATM   18  C2  UNL     1     -18.487 -16.750  16.857  1.00  0.00     0.123 C
HETATM   19  C1  UNL     1     -18.597 -15.437  17.642  1.00  0.00     0.026 C
ENDBRANCH  16  18
BRANCH  16  20
HETATM   20  C3  UNL     1     -17.452 -17.595  18.988  1.00  0.00     0.123 C
HETATM   21  C4  UNL     1     -18.335 -18.624  19.662  1.00  0.00     0.026 C
ENDBRANCH  16  20
ENDBRANCH  14  15
ENDBRANCH   1  14
TORSDOF 4
ENDMDL