MODEL 4
REMARK VINA RESULT: -5.773216314      1.992      6.759
REMARK  6 active torsions:
REMARK  status: ('A' for Active; 'I' for Inactive)
REMARK    1  A    between atoms: C2_2  and  N1_3
REMARK       I    between atoms: N1_3  and  C3_5
REMARK    2  A    between atoms: C3_5  and  O2_7
REMARK    3  A    between atoms: O2_7  and  C4_8
REMARK    4  A    between atoms: C4_8  and  C12_22
REMARK    5  A    between atoms: N2_9  and  N3_11
REMARK    6  A    between atoms: C6_15  and  C7_16
ROOT
HETATM    1  C4  UNL     1     -17.493 -17.760  17.566  1.00  0.00     0.152 C
HETATM    2  N2  UNL     1     -16.922 -18.829  17.228  1.00  0.00    -0.259 N
ATOM      3  H2  UNL     1     -16.933 -19.562  17.937  1.00  0.00     0.190 HD
ENDROOT
BRANCH   2   4
HETATM    4  N3  UNL     1     -16.295 -19.166  16.075  1.00  0.00    -0.131 N
HETATM    5  N4  UNL     1     -16.807 -19.743  14.931  1.00  0.00     0.054 NA
HETATM    6  O3  UNL     1     -15.825 -20.077  14.087  1.00  0.00    -0.217 OA
HETATM    7  C5  UNL     1     -14.618 -19.530  14.461  1.00  0.00     0.164 C
HETATM    8  C6  UNL     1     -13.459 -19.526  13.827  1.00  0.00     0.026 C
HETATM    9  C11 UNL     1     -14.888 -18.925  15.760  1.00  0.00     0.315 C
HETATM   10  O4  UNL     1     -14.091 -18.313  16.486  1.00  0.00    -0.262 OA
BRANCH   8  11
HETATM   11  C7  UNL     1     -13.152 -20.116  12.528  1.00  0.00    -0.031 C
HETATM   12  C8  UNL     1     -13.830 -19.347  11.427  1.00  0.00     0.019 C
HETATM   13  C9  UNL     1     -13.472 -21.597  12.454  1.00  0.00     0.019 C
HETATM   14  C10 UNL     1     -11.639 -19.906  12.300  1.00  0.00     0.019 C
ENDBRANCH   8  11
ENDBRANCH   2   4
BRANCH   1  15
HETATM   15  O2  UNL     1     -17.493 -16.762  16.605  1.00  0.00    -0.246 OA
BRANCH  15  16
HETATM   16  C3  UNL     1     -18.696 -16.171  16.148  1.00  0.00     0.366 C
HETATM   17  N1  UNL     1     -18.879 -14.768  16.185  1.00  0.00    -0.337 N
ATOM     18  H1  UNL     1     -18.142 -14.161  16.544  1.00  0.00     0.164 HD
HETATM   19  O1  UNL     1     -19.595 -16.924  15.709  1.00  0.00    -0.238 OA
BRANCH  17  20
HETATM   20  C2  UNL     1     -20.124 -14.203  15.709  1.00  0.00     0.120 C
HETATM   21  C1  UNL     1     -19.798 -13.096  14.727  1.00  0.00     0.026 C
ENDBRANCH  17  20
ENDBRANCH  15  16
ENDBRANCH   1  15
BRANCH   1  22
HETATM   22  C12 UNL     1     -18.112 -17.583  18.918  1.00  0.00     0.016 C
HETATM   23  C13 UNL     1     -18.317 -16.142  19.242  1.00  0.00     0.023 C
HETATM   24  C14 UNL     1     -17.183 -18.175  19.974  1.00  0.00     0.023 C
HETATM   25  C15 UNL     1     -19.430 -18.300  19.021  1.00  0.00     0.023 C
ENDBRANCH   1  22
TORSDOF 6
ENDMDL