MODEL 4
REMARK VINA RESULT: -6.242703873      1.962      5.270
REMARK  3 active torsions:
REMARK  status: ('A' for Active; 'I' for Inactive)
REMARK    1  A    between atoms: C2_2  and  C3_3
REMARK    2  A    between atoms: C10_10  and  O1_11
REMARK    3  A    between atoms: C12_13  and  C13_14
ROOT
HETATM    1  C3  UNL     1      -6.336   1.749  16.847  1.00  0.00     0.005 C
HETATM    2  C4  UNL     1      -5.345   1.626  16.010  1.00  0.00    -0.049 C
HETATM    3  C5  UNL     1      -4.442   0.540  15.603  1.00  0.00     0.040 C
HETATM    4  C6  UNL     1      -3.400   1.616  15.395  1.00  0.00     0.044 C
HETATM    5  C7  UNL     1      -4.620   2.476  15.058  1.00  0.00     0.068 C
HETATM    6  C8  UNL     1      -4.483   3.890  15.383  1.00  0.00     0.007 C
HETATM    7  C9  UNL     1      -4.325   4.791  14.438  1.00  0.00     0.006 C
HETATM    8  C10 UNL     1      -4.273   4.448  12.978  1.00  0.00     0.172 C
HETATM    9  C12 UNL     1      -4.541   3.015  12.684  1.00  0.00     0.168 C
HETATM   10  N2  UNL     1      -5.066   2.214  13.723  1.00  0.00    -0.393 N
ATOM     11  H2  UNL     1      -5.739   1.473  13.528  1.00  0.00     0.155 HD
ENDROOT
BRANCH   1  12
HETATM   12  C2  UNL     1      -7.086   2.975  17.064  1.00  0.00    -0.010 C
HETATM   13  C1  UNL     1      -7.061   3.550  18.250  1.00  0.00     0.011 C
ENDBRANCH   1  12
BRANCH   9  14
HETATM   14  C13 UNL     1      -3.315   2.407  12.034  1.00  0.00     0.076 A
HETATM   15  N1  UNL     1      -2.142   2.989  11.829  1.00  0.00    -0.361 N
HETATM   16  C14 UNL     1      -1.192   2.327  11.251  1.00  0.00     0.096 A
ATOM     17  H1  UNL     1      -1.988   3.953  12.126  1.00  0.00     0.165 HD
HETATM   18  C15 UNL     1      -1.456   1.033  10.872  1.00  0.00     0.068 A
HETATM   19  S1  UNL     1      -3.073   0.849  11.380  1.00  0.00    -0.085 SA
ENDBRANCH   9  14
BRANCH   8  20
HETATM   20  O1  UNL     1      -5.179   5.239  12.268  1.00  0.00    -0.384 OA
HETATM   21  C11 UNL     1      -4.608   6.473  12.024  1.00  0.00     0.202 C
ENDBRANCH   8  20
TORSDOF 3
ENDMDL