MODEL 4
REMARK VINA RESULT: -6.077629873      2.076      4.795
REMARK  4 active torsions:
REMARK  status: ('A' for Active; 'I' for Inactive)
REMARK    1  A    between atoms: C5_8  and  C6_9
REMARK    2  A    between atoms: C6_9  and  N3_18
REMARK    3  A    between atoms: N2_10  and  C7_12
REMARK    4  A    between atoms: N3_18  and  C13_20
ROOT
HETATM    1  C6  UNL     1      -4.505   2.519  14.835  1.00  0.00     0.112 C
HETATM    2  N2  UNL     1      -4.722   1.946  13.711  1.00  0.00    -0.371 N
ATOM      3  H2  UNL     1      -5.669   1.636  13.494  1.00  0.00     0.161 HD
ENDROOT
BRANCH   1   4
HETATM    4  C5  UNL     1      -5.559   2.738  15.799  1.00  0.00     0.063 A
HETATM    5  C2  UNL     1      -5.983   1.798  16.744  1.00  0.00     0.045 A
HETATM    6  C1  UNL     1      -5.422   0.435  16.913  1.00  0.00     0.071 C
HETATM    7  N1  UNL     1      -6.971   2.398  17.433  1.00  0.00    -0.265 N
HETATM    8  O1  UNL     1      -7.168   3.597  16.988  1.00  0.00    -0.242 OA
ATOM      9  H1  UNL     1      -7.491   1.968  18.199  1.00  0.00     0.194 HD
HETATM   10  C3  UNL     1      -6.327   3.857  15.985  1.00  0.00     0.088 A
HETATM   11  C4  UNL     1      -6.274   5.133  15.245  1.00  0.00     0.080 C
ENDBRANCH   1   4
BRANCH   1  12
HETATM   12  N3  UNL     1      -3.155   2.940  15.080  1.00  0.00    -0.371 N
ATOM     13  H3  UNL     1      -2.452   2.213  15.217  1.00  0.00     0.161 HD
BRANCH  12  14
HETATM   14  C13 UNL     1      -2.720   4.293  15.147  1.00  0.00     0.083 A
HETATM   15  C14 UNL     1      -1.581   4.819  14.336  1.00  0.00     0.027 A
HETATM   16  C15 UNL     1      -2.954   5.190  13.965  1.00  0.00     0.027 A
ENDBRANCH  12  14
ENDBRANCH   1  12
BRANCH   2  17
HETATM   17  C7  UNL     1      -3.669   1.720  12.729  1.00  0.00     0.086 C
HETATM   18  C8  UNL     1      -3.924   2.759  11.637  1.00  0.00     0.025 C
HETATM   19  C9  UNL     1      -4.405   1.995  10.440  1.00  0.00     0.002 C
HETATM   20  C10 UNL     1      -4.997   0.731  11.051  1.00  0.00     0.006 C
HETATM   21  C11 UNL     1      -3.909   0.400  12.075  1.00  0.00     0.004 C
HETATM   22  C12 UNL     1      -4.242  -0.736  12.957  1.00  0.00     0.012 C
ENDBRANCH   2  17
TORSDOF 4
ENDMDL