MODEL 2
REMARK VINA RESULT: -6.507351427      2.453      5.558
REMARK  3 active torsions:
REMARK  status: ('A' for Active; 'I' for Inactive)
REMARK    1  A    between atoms: C2_2  and  C3_3
REMARK    2  A    between atoms: C9_9  and  N1_10
REMARK       I    between atoms: N1_10  and  C10_12
REMARK    3  A    between atoms: C10_12  and  C11_14
ROOT
HETATM    1  C3  UNL     1      -5.573   2.107  15.719  1.00  0.00     0.041 C
HETATM    2  C4  UNL     1      -6.263   3.406  16.151  1.00  0.00    -0.023 C
HETATM    3  C5  UNL     1      -6.376   4.534  15.276  1.00  0.00    -0.029 C
HETATM    4  C6  UNL     1      -5.357   5.662  15.216  1.00  0.00     0.038 C
HETATM    5  C7  UNL     1      -3.927   5.132  14.858  1.00  0.00     0.086 C
HETATM    6  C8  UNL     1      -3.963   3.740  15.071  1.00  0.00    -0.157 C
HETATM    7  C9  UNL     1      -4.082   2.364  15.311  1.00  0.00     0.159 C
ENDROOT
BRANCH   7   8
HETATM    8  N1  UNL     1      -3.884   1.472  14.161  1.00  0.00    -0.345 N
HETATM    9  C10 UNL     1      -4.469   1.650  12.901  1.00  0.00     0.233 C
HETATM   10  O1  UNL     1      -5.222   2.638  12.712  1.00  0.00    -0.272 OA
ATOM     11  H1  UNL     1      -3.277   0.663  14.289  1.00  0.00     0.163 HD
BRANCH   9  12
HETATM   12  C11 UNL     1      -4.190   0.685  11.839  1.00  0.00     0.151 C
HETATM   13  C12 UNL     1      -2.761   0.800  11.430  1.00  0.00     0.036 C
HETATM   14  C13 UNL     1      -2.488  -0.176  10.309  1.00  0.00     0.088 C
HETATM   15  S1  UNL     1      -2.807  -1.812  11.100  1.00  0.00    -0.097 SA
HETATM   16  S2  UNL     1      -4.309  -1.046  12.461  1.00  0.00    -0.083 SA
ENDBRANCH   9  12
ENDBRANCH   7   8
BRANCH   1  17
HETATM   17  C2  UNL     1      -5.657   1.088  16.785  1.00  0.00     0.007 C
HETATM   18  C1  UNL     1      -7.027   0.813  17.301  1.00  0.00     0.006 C
ENDBRANCH   1  17
TORSDOF 3
ENDMDL