MODEL 2
REMARK VINA RESULT: -6.806460082      4.264      6.715
REMARK  3 active torsions:
REMARK  status: ('A' for Active; 'I' for Inactive)
REMARK    1  A    between atoms: C4_4  and  C5_5
REMARK    2  A    between atoms: C7_8  and  C8_9
REMARK       I    between atoms: C8_9  and  N1_11
REMARK    3  A    between atoms: N1_11  and  C9_13
ROOT
HETATM    1  C9  UNL     1      -3.712   1.501  11.038  1.00  0.00     0.102 C
HETATM    2  C10 UNL     1      -4.094   0.207  10.447  1.00  0.00     0.026 C
HETATM    3  C11 UNL     1      -3.190  -0.806  11.095  1.00  0.00     0.004 C
HETATM    4  C12 UNL     1      -1.857  -0.060  11.102  1.00  0.00     0.021 C
HETATM    5  C13 UNL     1      -2.203   1.408  11.182  1.00  0.00     0.115 C
HETATM    6  C14 UNL     1      -1.515   2.158  10.131  1.00  0.00     0.066 C
HETATM    7  N2  UNL     1      -0.963   2.738   9.296  1.00  0.00    -0.197 NA
ENDROOT
BRANCH   1   8
HETATM    8  N1  UNL     1      -4.369   1.902  12.225  1.00  0.00    -0.349 N
HETATM    9  C8  UNL     1      -4.508   3.200  12.733  1.00  0.00     0.275 C
HETATM   10  O1  UNL     1      -4.031   4.177  12.135  1.00  0.00    -0.265 OA
ATOM     11  H1  UNL     1      -4.792   1.156  12.778  1.00  0.00     0.163 HD
BRANCH   9  12
HETATM   12  C7  UNL     1      -5.220   3.486  13.989  1.00  0.00     0.142 A
HETATM   13  S1  UNL     1      -5.642   5.022  14.657  1.00  0.00    -0.077 SA
HETATM   14  C6  UNL     1      -6.419   4.479  16.080  1.00  0.00     0.077 A
HETATM   15  C5  UNL     1      -6.305   3.115  15.951  1.00  0.00     0.021 A
HETATM   16  N3  UNL     1      -5.699   2.670  14.892  1.00  0.00    -0.349 N
ATOM     17  H3  UNL     1      -5.594   1.663  14.763  1.00  0.00     0.166 HD
BRANCH  15  18
HETATM   18  C4  UNL     1      -6.873   2.195  17.008  1.00  0.00     0.040 A
HETATM   19  C2  UNL     1      -5.834   1.346  17.675  1.00  0.00    -0.008 A
HETATM   20  C1  UNL     1      -6.204  -0.086  17.872  1.00  0.00     0.011 C
HETATM   21  C3  UNL     1      -6.521   2.445  18.418  1.00  0.00     0.016 A
ENDBRANCH  15  18
ENDBRANCH   9  12
ENDBRANCH   1   8
TORSDOF 3
ENDMDL