MODEL 3
REMARK VINA RESULT: -7.176025508      2.532      4.508
REMARK  3 active torsions:
REMARK  status: ('A' for Active; 'I' for Inactive)
REMARK    1  A    between atoms: C3_4  and  O2_5
REMARK    2  A    between atoms: O2_5  and  C4_6
REMARK    3  A    between atoms: C9_13  and  C10_14
ROOT
HETATM    1  O1  UNL     1      -3.743  -1.397  11.330  1.00  0.00    -0.268 OA
HETATM    2  C1  UNL     1      -3.596  -0.156  11.517  1.00  0.00     0.250 A
HETATM    3  C2  UNL     1      -4.473   0.586  12.290  1.00  0.00     0.130 A
HETATM    4  C3  UNL     1      -4.297   1.939  12.484  1.00  0.00     0.149 A
HETATM    5  N1  UNL     1      -3.237   2.519  11.892  1.00  0.00    -0.324 N
ATOM      6  H1  UNL     1      -3.086   3.520  12.019  1.00  0.00     0.169 HD
HETATM    7  C9  UNL     1      -2.360   1.806  11.126  1.00  0.00     0.115 A
HETATM    8  N2  UNL     1      -2.551   0.484  10.950  1.00  0.00    -0.311 N
ATOM      9  H2  UNL     1      -1.892  -0.044  10.377  1.00  0.00     0.170 HD
ENDROOT
BRANCH   4  10
HETATM   10  O2  UNL     1      -5.181   2.689  13.263  1.00  0.00    -0.330 OA
BRANCH  10  11
HETATM   11  C4  UNL     1      -5.153   2.712  14.654  1.00  0.00     0.130 C
HETATM   12  C5  UNL     1      -6.310   3.559  15.143  1.00  0.00     0.032 C
HETATM   13  C6  UNL     1      -5.820   4.983  14.919  1.00  0.00     0.002 C
HETATM   14  C7  UNL     1      -4.334   4.908  14.771  1.00  0.00     0.002 C
HETATM   15  C8  UNL     1      -3.967   3.512  15.201  1.00  0.00     0.032 C
ENDBRANCH  10  11
ENDBRANCH   4  10
BRANCH   7  16
HETATM   16  C10 UNL     1      -1.202   2.426  10.478  1.00  0.00     0.189 C
HETATM   17  C11 UNL     1      -0.437   3.361  11.380  1.00  0.00     0.040 C
HETATM   18  C12 UNL     1       0.855   3.704  10.703  1.00  0.00     0.005 C
HETATM   19  C13 UNL     1       0.780   3.861   9.237  1.00  0.00     0.026 C
HETATM   20  C14 UNL     1      -0.388   3.242   8.567  1.00  0.00     0.168 C
HETATM   21  O3  UNL     1      -1.526   3.146   9.328  1.00  0.00    -0.378 OA
ENDBRANCH   7  16
TORSDOF 3
ENDMDL