MODEL 2
REMARK VINA RESULT: -6.165595083      0.069      1.101
REMARK  6 active torsions:
REMARK  status: ('A' for Active; 'I' for Inactive)
REMARK    1  A    between atoms: S1_2  and  C2_3
REMARK    2  A    between atoms: C4_7  and  C5_8
REMARK    3  A    between atoms: C5_8  and  O1_9
REMARK    4  A    between atoms: C8_13  and  N2_14
REMARK    5  A    between atoms: N2_14  and  N3_16
REMARK    6  A    between atoms: N3_16  and  N4_17
ROOT
HETATM    1  C5  UNL     1      -4.433   2.056  12.557  1.00  0.00     0.087 C
HETATM    2  C6  UNL     1      -4.599   3.268  13.425  1.00  0.00     0.045 C
HETATM    3  C7  UNL     1      -5.400   2.888  14.646  1.00  0.00     0.031 C
HETATM    4  C8  UNL     1      -4.454   1.950  15.411  1.00  0.00     0.114 C
HETATM    5  C9  UNL     1      -4.439   0.657  14.666  1.00  0.00     0.031 C
HETATM    6  C10 UNL     1      -4.157   0.771  13.206  1.00  0.00     0.045 C
ENDROOT
BRANCH   1   7
HETATM    7  C4  UNL     1      -3.325   2.419  11.600  1.00  0.00     0.007 A
HETATM    8  C3  UNL     1      -3.327   3.650  10.983  1.00  0.00     0.101 A
HETATM    9  N1  UNL     1      -2.347   3.932  10.123  1.00  0.00    -0.346 N
HETATM   10  C2  UNL     1      -1.341   3.093   9.808  1.00  0.00     0.143 A
ATOM     11  H1  UNL     1      -2.361   4.846   9.672  1.00  0.00     0.167 HD
HETATM   12  N5  UNL     1      -1.357   1.883  10.429  1.00  0.00    -0.346 N
HETATM   13  C11 UNL     1      -2.313   1.535  11.305  1.00  0.00     0.101 A
ATOM     14  H5  UNL     1      -0.615   1.214  10.221  1.00  0.00     0.167 HD
BRANCH  10  15
HETATM   15  S1  UNL     1      -0.063   3.524   8.629  1.00  0.00    -0.098 SA
HETATM   16  C1  UNL     1       1.559   3.554   9.375  1.00  0.00     0.099 C
ENDBRANCH  10  15
ENDBRANCH   1   7
BRANCH   1  17
HETATM   17  O1  UNL     1      -5.595   1.976  11.771  1.00  0.00    -0.385 OA
ATOM     18  H1  UNL     1      -5.869   1.068  11.816  1.00  0.00     0.211 HD
ENDBRANCH   1  17
BRANCH   4  19
HETATM   19  N2  UNL     1      -4.825   1.782  16.773  1.00  0.00    -0.248 N
ATOM     20  H2  UNL     1      -4.764   2.581  17.404  1.00  0.00     0.197 HD
BRANCH  19  21
HETATM   21  N3  UNL     1      -5.224   0.690  17.218  1.00  0.00    -0.248 NA
BRANCH  21  22
HETATM   22  N4  UNL     1      -5.915  -0.215  17.732  1.00  0.00    -0.261 N
ATOM     23  H42 UNL     1      -6.738   0.376  17.848  1.00  0.00     0.193 HD
ATOM     24  H41 UNL     1      -6.236  -1.106  18.110  1.00  0.00     0.193 HD
ENDBRANCH  21  22
ENDBRANCH  19  21
ENDBRANCH   4  19
TORSDOF 6
ENDMDL