MODEL 5
REMARK VINA RESULT: -6.986905567      1.523      2.159
REMARK  3 active torsions:
REMARK  status: ('A' for Active; 'I' for Inactive)
REMARK       I    between atoms: C1_2  and  N1_3
REMARK       I    between atoms: C1_2  and  N2_11
REMARK    1  A    between atoms: N1_3  and  C2_5
REMARK    2  A    between atoms: C9_17  and  C10_18
REMARK    3  A    between atoms: C10_18  and  C11_19
ROOT
HETATM    1  O1  UNL     1      -5.320   5.495  13.386  1.00  0.00    -0.246 OA
HETATM    2  C1  UNL     1      -4.749   4.834  12.482  1.00  0.00     0.329 C
HETATM    3  N1  UNL     1      -4.741   5.447  11.182  1.00  0.00    -0.338 N
ATOM      4  H1  UNL     1      -4.288   4.940  10.421  1.00  0.00     0.164 HD
HETATM    5  N2  UNL     1      -4.152   3.571  12.713  1.00  0.00    -0.247 N
HETATM    6  C8  UNL     1      -3.526   2.808  11.804  1.00  0.00     0.211 A
HETATM    7  N3  UNL     1      -3.080   1.670  12.384  1.00  0.00    -0.294 N
ATOM      8  H3  UNL     1      -2.572   0.913  11.926  1.00  0.00     0.187 HD
HETATM    9  N4  UNL     1      -3.427   1.724  13.650  1.00  0.00    -0.287 N
ATOM     10  H4  UNL     1      -3.234   1.011  14.353  1.00  0.00     0.188 HD
HETATM   11  C9  UNL     1      -4.090   2.897  13.862  1.00  0.00     0.107 A
ENDROOT
BRANCH  11  12
HETATM   12  C10 UNL     1      -4.633   3.314  15.152  1.00  0.00     0.083 C
BRANCH  12  13
HETATM   13  C11 UNL     1      -5.702   2.340  15.661  1.00  0.00    -0.007 C
HETATM   14  C12 UNL     1      -5.006   1.302  16.529  1.00  0.00     0.005 C
HETATM   15  C13 UNL     1      -6.113   0.921  17.496  1.00  0.00     0.000 C
HETATM   16  C14 UNL     1      -6.618   2.306  17.905  1.00  0.00     0.000 C
HETATM   17  C15 UNL     1      -6.658   3.056  16.591  1.00  0.00     0.005 C
ENDBRANCH  12  13
ENDBRANCH  11  12
BRANCH   3  18
HETATM   18  C2  UNL     1      -5.318   6.704  10.885  1.00  0.00     0.086 C
HETATM   19  C3  UNL     1      -4.334   7.729  10.367  1.00  0.00     0.025 C
HETATM   20  C4  UNL     1      -4.979   9.090  10.574  1.00  0.00     0.002 C
HETATM   21  C5  UNL     1      -6.462   9.011  10.729  1.00  0.00     0.000 C
HETATM   22  C6  UNL     1      -7.117   7.987   9.858  1.00  0.00     0.002 C
HETATM   23  C7  UNL     1      -6.448   6.647   9.879  1.00  0.00     0.025 C
ENDBRANCH   3  18
TORSDOF 3
ENDMDL