MODEL 3
REMARK VINA RESULT: -6.585312250      1.154      1.762
REMARK  4 active torsions:
REMARK  status: ('A' for Active; 'I' for Inactive)
REMARK    1  A    between atoms: N1_2  and  C2_4
REMARK    2  A    between atoms: C3_8  and  N3_9
REMARK    3  A    between atoms: C7_13  and  O1_14
REMARK    4  A    between atoms: O1_14  and  C8_15
ROOT
HETATM    1  C2  UNL     1      -3.923   1.381  11.862  1.00  0.00     0.123 A
HETATM    2  S1  UNL     1      -2.349   1.581  11.225  1.00  0.00     0.008 SA
HETATM    3  N2  UNL     1      -1.970   3.068  11.891  1.00  0.00    -0.308 N
ATOM      4  H2  UNL     1      -1.106   3.600  11.781  1.00  0.00     0.176 HD
HETATM    5  C3  UNL     1      -3.057   3.404  12.602  1.00  0.00     0.146 A
HETATM    6  C7  UNL     1      -4.086   2.525  12.593  1.00  0.00     0.148 A
ENDROOT
BRANCH   6   7
HETATM    7  O1  UNL     1      -5.296   2.731  13.292  1.00  0.00    -0.339 OA
BRANCH   7   8
HETATM    8  C8  UNL     1      -5.581   2.380  14.589  1.00  0.00     0.129 C
HETATM    9  C9  UNL     1      -5.959   3.519  15.516  1.00  0.00     0.032 C
HETATM   10  C10 UNL     1      -6.682   2.877  16.693  1.00  0.00     0.002 C
HETATM   11  C11 UNL     1      -5.795   1.889  17.412  1.00  0.00     0.000 C
HETATM   12  C12 UNL     1      -5.131   0.919  16.497  1.00  0.00     0.002 C
HETATM   13  C13 UNL     1      -4.480   1.638  15.315  1.00  0.00     0.032 C
ENDBRANCH   7   8
ENDBRANCH   6   7
BRANCH   1  14
HETATM   14  N1  UNL     1      -4.768   0.384  11.697  1.00  0.00    -0.385 N
HETATM   15  C1  UNL     1      -4.277  -0.961  11.704  1.00  0.00     0.147 C
ATOM     16  H1  UNL     1      -5.762   0.568  11.566  1.00  0.00     0.159 HD
ENDBRANCH   1  14
BRANCH   5  17
HETATM   17  N3  UNL     1      -3.010   4.672  13.315  1.00  0.00    -0.364 N
HETATM   18  C4  UNL     1      -2.132   5.277  14.289  1.00  0.00     0.126 C
HETATM   19  C5  UNL     1      -3.132   6.389  14.539  1.00  0.00     0.040 C
HETATM   20  C6  UNL     1      -3.828   5.861  13.305  1.00  0.00     0.126 C
ENDBRANCH   5  17
TORSDOF 4
ENDMDL