MODEL 5
REMARK VINA RESULT: -7.142033194      3.928      5.863
REMARK  4 active torsions:
REMARK  status: ('A' for Active; 'I' for Inactive)
REMARK    1  A    between atoms: C2_2  and  C4_5
REMARK    2  A    between atoms: C5_6  and  C6_7
REMARK    3  A    between atoms: C6_7  and  N2_8
REMARK    4  A    between atoms: C14_17  and  O2_18
ROOT
HETATM    1  C1  UNL     1      -7.487   7.608  11.682  1.00  0.00     0.029 C
HETATM    2  C2  UNL     1      -7.012   8.021  10.304  1.00  0.00     0.111 C
HETATM    3  C3  UNL     1      -7.468   7.085   9.276  1.00  0.00     0.067 C
HETATM    4  N1  UNL     1      -7.837   6.359   8.457  1.00  0.00    -0.197 NA
ENDROOT
BRANCH   2   5
HETATM    5  C4  UNL     1      -5.533   8.087  10.306  1.00  0.00    -0.010 C
HETATM    6  C5  UNL     1      -4.820   7.119  10.844  1.00  0.00     0.000 C
BRANCH   6   7
HETATM    7  C6  UNL     1      -3.312   7.160  10.862  1.00  0.00     0.299 C
BRANCH   7   8
HETATM    8  N2  UNL     1      -2.862   6.457  12.028  1.00  0.00     0.092 N
HETATM    9  C7  UNL     1      -2.273   5.206  11.585  1.00  0.00     0.273 C
HETATM   10  C8  UNL     1      -2.138   4.270  12.767  1.00  0.00     0.036 C
HETATM   11  C9  UNL     1      -1.985   5.156  13.995  1.00  0.00     0.002 C
HETATM   12  C10 UNL     1      -1.815   4.237  15.170  1.00  0.00     0.049 C
HETATM   13  C15 UNL     1      -3.387   5.709  14.277  1.00  0.00     0.054 C
HETATM   14  C11 UNL     1      -3.143   3.566  15.221  1.00  0.00     0.009 A
HETATM   15  C12 UNL     1      -4.073   4.432  14.697  1.00  0.00    -0.018 A
HETATM   16  C14 UNL     1      -3.815   2.420  15.586  1.00  0.00     0.189 A
HETATM   17  C13 UNL     1      -5.283   3.777  14.763  1.00  0.00     0.153 A
HETATM   18  O1  UNL     1      -5.080   2.595  15.294  1.00  0.00    -0.299 OA
HETATM   19  C16 UNL     1      -3.913   6.254  12.993  1.00  0.00     0.282 C
BRANCH  16  20
HETATM   20  O2  UNL     1      -3.257   1.262  16.168  1.00  0.00    -0.340 OA
ATOM     21  H2  UNL     1      -2.390   1.177  16.545  1.00  0.00     0.220 HD
ENDBRANCH  16  20
ENDBRANCH   7   8
ENDBRANCH   6   7
ENDBRANCH   2   5
TORSDOF 4
ENDMDL