MODEL 5
REMARK VINA RESULT: -6.965502461      1.288      1.741
REMARK  3 active torsions:
REMARK  status: ('A' for Active; 'I' for Inactive)
REMARK    1  A    between atoms: C3_5  and  N2_6
REMARK    2  A    between atoms: N2_6  and  C4_8
REMARK    3  A    between atoms: N3_11  and  C7_12
ROOT
HETATM    1  C4  UNL     1      -4.390   4.827  12.052  1.00  0.00     0.085 C
HETATM    2  C5  UNL     1      -4.889   5.420  13.364  1.00  0.00     0.055 C
HETATM    3  C6  UNL     1      -4.144   4.802  14.501  1.00  0.00     0.275 C
HETATM    4  N3  UNL     1      -4.313   3.367  14.561  1.00  0.00     0.093 N
HETATM    5  C14 UNL     1      -5.105   2.942  13.452  1.00  0.00     0.275 C
HETATM    6  C15 UNL     1      -4.382   3.339  12.182  1.00  0.00     0.055 C
ENDROOT
BRANCH   1   7
HETATM    7  N2  UNL     1      -3.110   5.392  11.764  1.00  0.00    -0.383 N
ATOM      8  H2  UNL     1      -3.024   6.406  11.841  1.00  0.00     0.160 HD
BRANCH   7   9
HETATM    9  C3  UNL     1      -1.951   4.681  11.382  1.00  0.00     0.059 A
HETATM   10  C2  UNL     1      -1.608   4.377  10.082  1.00  0.00     0.119 A
HETATM   11  N1  UNL     1      -0.474   3.685   9.790  1.00  0.00    -0.360 N
HETATM   12  C1  UNL     1       0.358   3.269  10.756  1.00  0.00     0.180 A
ATOM     13  H1  UNL     1      -0.252   3.478   8.816  1.00  0.00     0.166 HD
HETATM   14  N4  UNL     1       0.047   3.553  12.028  1.00  0.00    -0.360 N
HETATM   15  C16 UNL     1      -1.067   4.235  12.342  1.00  0.00     0.119 A
ATOM     16  H4  UNL     1       0.670   3.244  12.774  1.00  0.00     0.166 HD
ENDBRANCH   7   9
ENDBRANCH   1   7
BRANCH   4  17
HETATM   17  C7  UNL     1      -4.836   2.950  15.843  1.00  0.00     0.223 C
HETATM   18  C8  UNL     1      -4.260   1.675  16.341  1.00  0.00     0.036 C
HETATM   19  C9  UNL     1      -5.176   0.500  16.346  1.00  0.00     0.002 C
HETATM   20  C10 UNL     1      -6.287   0.565  17.331  1.00  0.00     0.000 C
HETATM   21  C11 UNL     1      -6.357   1.838  18.115  1.00  0.00     0.000 C
HETATM   22  C12 UNL     1      -6.783   3.020  17.290  1.00  0.00     0.002 C
HETATM   23  C13 UNL     1      -6.344   2.843  15.836  1.00  0.00     0.036 C
ENDBRANCH   4  17
TORSDOF 3
ENDMDL