MODEL 1
REMARK VINA RESULT: -8.034956543      0.000      0.000
REMARK  8 active torsions:
REMARK  status: ('A' for Active; 'I' for Inactive)
REMARK    1  A    between atoms: C2_2  and  N1_3
REMARK    2  A    between atoms: N1_3  and  C3_5
REMARK    3  A    between atoms: C3_5  and  C5_7
REMARK    4  A    between atoms: C5_7  and  C6_8
REMARK    5  A    between atoms: C6_8  and  C7_9
REMARK    6  A    between atoms: C8_10  and  C9_11
REMARK    7  A    between atoms: C10_12  and  C11_13
REMARK    8  A    between atoms: C19_21  and  O1_22
ROOT
HETATM    1  C11 UNL     1      11.273 -10.218  12.676  1.00  0.00     0.016 C
HETATM    2  C12 UNL     1      12.678 -10.492  13.177  1.00  0.00     0.009 C
HETATM    3  C13 UNL     1      12.644 -11.106  14.535  1.00  0.00     0.001 C
HETATM    4  C14 UNL     1      11.287 -11.633  14.938  1.00  0.00     0.006 C
HETATM    5  C15 UNL     1      10.182 -10.630  14.800  1.00  0.00     0.004 C
HETATM    6  C16 UNL     1       9.688 -10.072  16.113  1.00  0.00    -0.017 C
HETATM    7  C17 UNL     1       8.204  -9.710  16.041  1.00  0.00     0.018 C
HETATM    8  C18 UNL     1       9.797 -11.159  17.176  1.00  0.00     0.018 C
HETATM    9  C19 UNL     1      10.522  -8.905  16.571  1.00  0.00     0.126 C
HETATM   10  C20 UNL     1      10.506  -7.817  15.535  1.00  0.00     0.033 C
HETATM   11  C21 UNL     1      11.121  -8.348  14.277  1.00  0.00     0.012 C
HETATM   12  C22 UNL     1      10.449  -9.573  13.763  1.00  0.00    -0.033 C
HETATM   13  C23 UNL     1       9.148  -9.112  13.090  1.00  0.00     0.016 C
ENDROOT
BRANCH   1  14
HETATM   14  C10 UNL     1      11.314  -9.499  11.414  1.00  0.00    -0.021 C
HETATM   15  C9  UNL     1      10.734 -10.008  10.338  1.00  0.00    -0.004 C
BRANCH  15  16
HETATM   16  C8  UNL     1      10.740  -9.343   9.052  1.00  0.00    -0.004 C
HETATM   17  C7  UNL     1      10.173  -8.174   8.903  1.00  0.00    -0.027 C
BRANCH  17  18
HETATM   18  C6  UNL     1      10.143  -7.435   7.608  1.00  0.00     0.029 C
BRANCH  18  19
HETATM   19  C5  UNL     1      10.583  -6.000   7.800  1.00  0.00     0.028 C
BRANCH  19  20
HETATM   20  C3  UNL     1      11.851  -5.937   8.648  1.00  0.00     0.072 C
HETATM   21  C4  UNL     1      13.001  -6.145   7.698  1.00  0.00     0.031 C
BRANCH  20  22
HETATM   22  N1  UNL     1      11.857  -4.700   9.360  1.00  0.00    -0.418 N
ATOM     23  H1  UNL     1      11.658  -3.817   8.890  1.00  0.00     0.153 HD
BRANCH  22  24
HETATM   24  C2  UNL     1      12.150  -4.747  10.748  1.00  0.00     0.109 C
HETATM   25  C1  UNL     1      11.626  -5.906  11.519  1.00  0.00     0.026 C
ENDBRANCH  22  24
ENDBRANCH  20  22
ENDBRANCH  19  20
ENDBRANCH  18  19
ENDBRANCH  17  18
ENDBRANCH  15  16
ENDBRANCH   1  14
BRANCH   9  26
HETATM   26  O1  UNL     1      10.062  -8.457  17.806  1.00  0.00    -0.395 OA
ATOM     27  H1  UNL     1      10.771  -8.478  18.438  1.00  0.00     0.210 HD
ENDBRANCH   9  26
TORSDOF 8
ENDMDL