MODEL 2
REMARK VINA RESULT: -7.299408785      1.944      2.671
REMARK  8 active torsions:
REMARK  status: ('A' for Active; 'I' for Inactive)
REMARK    1  A    between atoms: C2_2  and  C3_3
REMARK    2  A    between atoms: C2_2  and  C8_10
REMARK    3  A    between atoms: C3_3  and  C4_4
REMARK    4  A    between atoms: C4_4  and  O1_5
REMARK    5  A    between atoms: C13_15  and  C14_16
REMARK    6  A    between atoms: C14_16  and  C15_17
REMARK    7  A    between atoms: C15_17  and  C16_18
REMARK    8  A    between atoms: C19_21  and  O2_22
ROOT
HETATM    1  C8  UNL     1      11.233  -9.387  12.653  1.00  0.00     0.030 C
HETATM    2  C9  UNL     1      11.094 -10.880  12.522  1.00  0.00    -0.039 C
HETATM    3  C10 UNL     1      12.420 -11.605  12.408  1.00  0.00     0.015 C
HETATM    4  C11 UNL     1      10.254 -11.389  11.430  1.00  0.00     0.015 C
HETATM    5  C12 UNL     1      10.467 -11.345  13.831  1.00  0.00     0.022 C
HETATM    6  C13 UNL     1      10.782 -10.276  14.877  1.00  0.00    -0.006 C
HETATM    7  C19 UNL     1       9.459  -9.826  15.447  1.00  0.00     0.127 C
HETATM    8  C20 UNL     1       9.688  -8.359  15.729  1.00  0.00     0.033 C
HETATM    9  C21 UNL     1      10.702  -7.924  14.687  1.00  0.00     0.013 C
HETATM   10  C22 UNL     1      11.365  -9.118  14.131  1.00  0.00    -0.026 C
HETATM   11  C23 UNL     1      12.869  -8.926  14.474  1.00  0.00     0.016 C
ENDROOT
BRANCH   1  12
HETATM   12  C2  UNL     1      10.316  -8.574  11.860  1.00  0.00    -0.081 C
HETATM   13  C1  UNL     1       9.021  -8.654  12.184  1.00  0.00     0.015 C
BRANCH  12  14
HETATM   14  C3  UNL     1      10.645  -7.640  10.787  1.00  0.00     0.071 C
BRANCH  14  15
HETATM   15  C4  UNL     1      10.738  -8.205   9.391  1.00  0.00     0.061 C
HETATM   16  C5  UNL     1      11.343  -7.118   8.468  1.00  0.00     0.038 C
HETATM   17  C6  UNL     1      10.405  -7.614   7.397  1.00  0.00     0.006 C
HETATM   18  C7  UNL     1       9.540  -8.154   8.523  1.00  0.00     0.038 C
BRANCH  15  19
HETATM   19  O1  UNL     1      11.539  -9.336   9.261  1.00  0.00    -0.390 OA
ATOM     20  H1  UNL     1      11.626  -9.863  10.047  1.00  0.00     0.210 HD
ENDBRANCH  15  19
ENDBRANCH  14  15
ENDBRANCH  12  14
ENDBRANCH   1  12
BRANCH   6  21
HETATM   21  C14 UNL     1      11.584 -10.938  15.915  1.00  0.00     0.013 C
BRANCH  21  22
HETATM   22  C15 UNL     1      11.924 -12.364  15.814  1.00  0.00     0.005 C
BRANCH  22  23
HETATM   23  C16 UNL     1      13.459 -12.488  15.953  1.00  0.00    -0.023 C
HETATM   24  C17 UNL     1      13.802 -13.030  17.326  1.00  0.00     0.009 C
HETATM   25  C18 UNL     1      14.018 -13.380  14.866  1.00  0.00     0.009 C
ENDBRANCH  22  23
ENDBRANCH  21  22
ENDBRANCH   6  21
BRANCH   7  26
HETATM   26  O2  UNL     1       9.096 -10.527  16.594  1.00  0.00    -0.395 OA
ATOM     27  H2  UNL     1       9.240 -11.463  16.517  1.00  0.00     0.210 HD
ENDBRANCH   7  26
TORSDOF 8
ENDMDL