MODEL 1
REMARK VINA RESULT: -7.866514306      0.000      0.000
REMARK  7 active torsions:
REMARK  status: ('A' for Active; 'I' for Inactive)
REMARK    1  A    between atoms: C2_2  and  C3_3
REMARK    2  A    between atoms: C3_3  and  N1_4
REMARK    3  A    between atoms: C3_3  and  C4_8
REMARK    4  A    between atoms: C13_17  and  N2_18
REMARK    5  A    between atoms: N2_18  and  C14_20
REMARK    6  A    between atoms: C14_20  and  C17_23
REMARK    7  A    between atoms: C17_23  and  C18_24
ROOT
HETATM    1  C4  UNL     1      10.368  -8.596  12.695  1.00  0.00     0.020 C
HETATM    2  C5  UNL     1       9.054  -7.974  12.998  1.00  0.00     0.007 C
HETATM    3  C6  UNL     1       8.511  -8.261  14.379  1.00  0.00     0.001 C
HETATM    4  C7  UNL     1       9.580  -7.953  15.379  1.00  0.00     0.005 C
HETATM    5  C8  UNL     1      10.751  -8.874  15.121  1.00  0.00    -0.005 C
HETATM    6  C9  UNL     1      11.371  -8.585  13.799  1.00  0.00    -0.004 C
HETATM    7  C10 UNL     1      12.476  -9.581  13.572  1.00  0.00     0.006 C
HETATM    8  C11 UNL     1      12.792 -10.393  14.833  1.00  0.00     0.007 C
HETATM    9  C12 UNL     1      11.565 -11.222  15.105  1.00  0.00     0.012 C
HETATM   10  C13 UNL     1      11.679 -12.062  16.353  1.00  0.00     0.081 C
HETATM   11  C21 UNL     1      10.243 -11.986  16.890  1.00  0.00     0.025 C
HETATM   12  C22 UNL     1       9.866 -10.543  16.637  1.00  0.00     0.007 C
HETATM   13  C23 UNL     1      10.393 -10.312  15.235  1.00  0.00    -0.004 C
ENDROOT
BRANCH  10  14
HETATM   14  N2  UNL     1      12.003 -13.402  15.956  1.00  0.00    -0.409 N
ATOM     15  H2  UNL     1      11.319 -14.026  15.528  1.00  0.00     0.154 HD
BRANCH  14  16
HETATM   16  C14 UNL     1      13.381 -13.805  16.211  1.00  0.00     0.019 C
HETATM   17  C15 UNL     1      13.955 -13.012  17.355  1.00  0.00     0.037 C
HETATM   18  C16 UNL     1      13.236 -15.234  16.775  1.00  0.00     0.037 C
BRANCH  16  19
HETATM   19  C17 UNL     1      14.231 -13.769  15.015  1.00  0.00     0.033 C
BRANCH  19  20
HETATM   20  C18 UNL     1      13.653 -13.736  13.663  1.00  0.00    -0.020 C
HETATM   21  C19 UNL     1      13.562 -14.984  12.863  1.00  0.00     0.009 C
HETATM   22  C20 UNL     1      14.466 -12.737  12.806  1.00  0.00     0.009 C
ENDBRANCH  19  20
ENDBRANCH  16  19
ENDBRANCH  14  16
ENDBRANCH  10  14
BRANCH   1  23
HETATM   23  C3  UNL     1      10.894  -7.976  11.420  1.00  0.00     0.187 C
BRANCH  23  24
HETATM   24  C2  UNL     1      11.238  -6.528  11.534  1.00  0.00     0.028 C
HETATM   25  C1  UNL     1      11.541  -6.034  10.111  1.00  0.00     0.007 C
ENDBRANCH  23  24
BRANCH  23  26
HETATM   26  N1  UNL     1       9.965  -8.146  10.324  1.00  0.00    -0.075 N
ATOM     27  H13 UNL     1       9.225  -7.443  10.326  1.00  0.00     0.274 HD
ATOM     28  H12 UNL     1      10.378  -7.911   9.421  1.00  0.00     0.274 HD
ATOM     29  H11 UNL     1       9.599  -9.098  10.350  1.00  0.00     0.274 HD
ENDBRANCH  23  26
ENDBRANCH   1  23
TORSDOF 7
ENDMDL