MODEL 3
REMARK VINA RESULT: -8.221918589      1.432      2.631
REMARK  7 active torsions:
REMARK  status: ('A' for Active; 'I' for Inactive)
REMARK    1  A    between atoms: C2_2  and  C5_5
REMARK    2  A    between atoms: C8_8  and  N1_9
REMARK    3  A    between atoms: N1_9  and  C9_12
REMARK    4  A    between atoms: C9_12  and  C10_13
REMARK    5  A    between atoms: C10_13  and  C11_14
REMARK    6  A    between atoms: C11_14  and  N2_15
REMARK    7  A    between atoms: N2_15  and  C12_17
ROOT
HETATM    1  C9  UNL     1       9.460  -8.155  15.218  1.00  0.00     0.234 C
ENDROOT
BRANCH   1   2
HETATM    2  N1  UNL     1       8.945  -8.150  13.871  1.00  0.00    -0.071 N
ATOM      3  H12 UNL     1       8.436  -7.288  13.673  1.00  0.00     0.277 HD
ATOM      4  H11 UNL     1       8.181  -8.817  13.765  1.00  0.00     0.277 HD
BRANCH   2   5
HETATM    5  C8  UNL     1       9.986  -8.383  12.886  1.00  0.00     0.185 C
HETATM    6  C7  UNL     1      10.371  -7.040  12.326  1.00  0.00     0.033 C
HETATM    7  C6  UNL     1      11.165  -7.344  11.049  1.00  0.00     0.007 C
HETATM    8  C5  UNL     1      10.101  -7.752  10.049  1.00  0.00    -0.007 C
HETATM    9  C23 UNL     1       9.306  -8.912  10.508  1.00  0.00     0.007 C
HETATM   10  C22 UNL     1       9.578  -9.390  11.892  1.00  0.00     0.033 C
BRANCH   8  11
HETATM   11  C2  UNL     1      10.681  -7.999   8.685  1.00  0.00    -0.048 C
HETATM   12  C1  UNL     1      11.158  -9.426   8.595  1.00  0.00     0.015 C
HETATM   13  C3  UNL     1       9.617  -7.826   7.613  1.00  0.00     0.015 C
HETATM   14  C4  UNL     1      11.854  -7.100   8.382  1.00  0.00     0.015 C
ENDBRANCH   8  11
ENDBRANCH   2   5
ENDBRANCH   1   2
BRANCH   1  15
HETATM   15  C10 UNL     1       9.047  -9.408  15.925  1.00  0.00     0.046 C
BRANCH  15  16
HETATM   16  C11 UNL     1      10.248 -10.323  16.183  1.00  0.00     0.115 C
BRANCH  16  17
HETATM   17  N2  UNL     1      10.480 -11.083  15.031  1.00  0.00    -0.416 N
ATOM     18  H2  UNL     1       9.883 -10.976  14.211  1.00  0.00     0.153 HD
BRANCH  17  19
HETATM   19  C12 UNL     1      11.551 -12.001  15.023  1.00  0.00     0.084 C
HETATM   20  C13 UNL     1      12.911 -11.437  15.278  1.00  0.00     0.009 C
HETATM   21  C14 UNL     1      13.382 -10.494  14.204  1.00  0.00     0.011 C
HETATM   22  C18 UNL     1      13.885 -12.602  15.277  1.00  0.00     0.011 C
HETATM   23  C15 UNL     1      13.364 -11.172  12.873  1.00  0.00    -0.013 C
HETATM   24  C16 UNL     1      14.321 -12.360  12.872  1.00  0.00     0.009 C
HETATM   25  C21 UNL     1      11.957 -11.646  12.589  1.00  0.00     0.011 C
HETATM   26  C17 UNL     1      13.890 -13.322  13.953  1.00  0.00    -0.013 C
HETATM   27  C19 UNL     1      12.506 -13.827  13.588  1.00  0.00     0.011 C
HETATM   28  C20 UNL     1      11.576 -12.655  13.650  1.00  0.00     0.009 C
ENDBRANCH  17  19
ENDBRANCH  16  17
ENDBRANCH  15  16
ENDBRANCH   1  15
TORSDOF 7
ENDMDL