MODEL 3
REMARK VINA RESULT: -7.586881752      3.053      7.401
REMARK  8 active torsions:
REMARK  status: ('A' for Active; 'I' for Inactive)
REMARK    1  A    between atoms: C3_3  and  C4_4
REMARK    2  A    between atoms: C4_4  and  O1_5
REMARK    3  A    between atoms: C4_4  and  C5_7
REMARK    4  A    between atoms: C13_15  and  C14_16
REMARK    5  A    between atoms: C14_16  and  C16_18
REMARK    6  A    between atoms: C16_18  and  C17_19
REMARK    7  A    between atoms: C17_19  and  C18_20
REMARK    8  A    between atoms: C18_20  and  N1_21
ROOT
HETATM    1  C5  UNL     1      10.404  -7.952  11.966  1.00  0.00    -0.007 C
HETATM    2  C6  UNL     1       9.188  -7.112  12.329  1.00  0.00     0.019 C
HETATM    3  C7  UNL     1      10.122  -8.998  10.930  1.00  0.00     0.013 C
HETATM    4  C8  UNL     1      11.169 -10.096  11.189  1.00  0.00     0.007 C
HETATM    5  C9  UNL     1      11.362 -10.089  12.659  1.00  0.00    -0.001 C
HETATM    6  C10 UNL     1      12.796 -10.293  13.085  1.00  0.00    -0.005 C
HETATM    7  C11 UNL     1      13.189 -11.689  12.632  1.00  0.00     0.006 C
HETATM    8  C12 UNL     1      12.526 -12.556  13.684  1.00  0.00     0.006 C
HETATM    9  C13 UNL     1      12.517 -11.760  14.942  1.00  0.00    -0.006 C
HETATM   10  C19 UNL     1      12.918 -10.350  14.572  1.00  0.00    -0.006 C
HETATM   11  C20 UNL     1      11.994  -9.316  15.165  1.00  0.00     0.006 C
HETATM   12  C21 UNL     1      11.714  -8.212  14.124  1.00  0.00     0.011 C
HETATM   13  C22 UNL     1      10.768  -8.813  13.151  1.00  0.00    -0.030 C
HETATM   14  C23 UNL     1       9.497  -9.179  13.938  1.00  0.00     0.016 C
ENDROOT
BRANCH   9  15
HETATM   15  C14 UNL     1      13.355 -12.339  16.041  1.00  0.00    -0.014 C
HETATM   16  C15 UNL     1      14.342 -13.356  15.580  1.00  0.00     0.010 C
BRANCH  15  17
HETATM   17  C16 UNL     1      12.513 -12.965  17.136  1.00  0.00     0.006 C
BRANCH  17  18
HETATM   18  C17 UNL     1      11.077 -12.526  17.013  1.00  0.00     0.027 C
BRANCH  18  19
HETATM   19  C18 UNL     1      10.527 -11.938  18.284  1.00  0.00     0.229 C
BRANCH  19  20
HETATM   20  N1  UNL     1      10.028 -10.604  17.944  1.00  0.00    -0.079 N
ATOM     21  H13 UNL     1       9.680 -10.534  16.987  1.00  0.00     0.274 HD
ATOM     22  H12 UNL     1       9.154 -10.369  18.414  1.00  0.00     0.274 HD
ATOM     23  H11 UNL     1      10.784  -9.951  18.147  1.00  0.00     0.274 HD
ENDBRANCH  19  20
ENDBRANCH  18  19
ENDBRANCH  17  18
ENDBRANCH  15  17
ENDBRANCH   9  15
BRANCH   1  24
HETATM   24  C4  UNL     1      11.487  -7.060  11.506  1.00  0.00     0.149 C
BRANCH  24  25
HETATM   25  C3  UNL     1      11.491  -6.670  10.091  1.00  0.00     0.001 C
HETATM   26  C2  UNL     1      11.947  -5.590   9.515  1.00  0.00    -0.033 C
HETATM   27  C1  UNL     1      11.862  -5.364   8.030  1.00  0.00     0.036 C
ENDBRANCH  24  25
BRANCH  24  28
HETATM   28  O1  UNL     1      11.458  -5.813  12.210  1.00  0.00    -0.391 OA
ATOM     29  H1  UNL     1      10.681  -5.872  12.752  1.00  0.00     0.210 HD
ENDBRANCH  24  28
ENDBRANCH   1  24
TORSDOF 8
ENDMDL