MODEL 2
REMARK VINA RESULT: -7.729073326      1.045      1.104
REMARK  8 active torsions:
REMARK  status: ('A' for Active; 'I' for Inactive)
REMARK    1  A    between atoms: S1_2  and  C2_3
REMARK    2  A    between atoms: C2_3  and  C3_4
REMARK    3  A    between atoms: C2_3  and  N1_11
REMARK    4  A    between atoms: C3_4  and  C4_5
REMARK    5  A    between atoms: N1_11  and  C10_13
REMARK    6  A    between atoms: C10_13  and  N2_15
REMARK    7  A    between atoms: N2_15  and  C11_17
REMARK    8  A    between atoms: C11_17  and  C12_18
ROOT
HETATM    1  N1  UNL     1       9.654  -9.123  13.714  1.00  0.00    -0.354 N
ATOM      2  H1  UNL     1       8.689  -9.372  13.931  1.00  0.00     0.163 HD
ENDROOT
BRANCH   1   3
HETATM    3  C2  UNL     1      10.668  -9.168  14.734  1.00  0.00     0.146 C
BRANCH   3   4
HETATM    4  S1  UNL     1       9.987  -8.552  16.329  1.00  0.00    -0.148 SA
HETATM    5  C1  UNL     1       9.882  -9.885  17.531  1.00  0.00     0.092 C
ENDBRANCH   3   4
BRANCH   3   6
HETATM    6  C3  UNL     1      11.128 -10.565  14.938  1.00  0.00     0.040 C
BRANCH   6   7
HETATM    7  C4  UNL     1      12.633 -10.750  14.927  1.00  0.00    -0.012 C
HETATM    8  C5  UNL     1      12.929 -12.083  15.493  1.00  0.00     0.005 C
HETATM    9  C6  UNL     1      13.855 -12.943  14.684  1.00  0.00     0.000 C
HETATM   10  C7  UNL     1      13.380 -12.829  13.238  1.00  0.00     0.000 C
HETATM   11  C8  UNL     1      13.828 -11.457  12.795  1.00  0.00     0.000 C
HETATM   12  C9  UNL     1      13.117 -10.424  13.574  1.00  0.00     0.005 C
ENDBRANCH   6   7
ENDBRANCH   3   6
ENDBRANCH   1   3
BRANCH   1  13
HETATM   13  C10 UNL     1      10.025  -8.722  12.387  1.00  0.00     0.168 C
HETATM   14  S2  UNL     1      10.095  -9.864  11.237  1.00  0.00    -0.041 SA
BRANCH  13  15
HETATM   15  N2  UNL     1      10.331  -7.368  12.160  1.00  0.00    -0.367 N
ATOM     16  H2  UNL     1       9.711  -6.657  12.546  1.00  0.00     0.161 HD
BRANCH  15  17
HETATM   17  C11 UNL     1      11.477  -6.943  11.409  1.00  0.00     0.126 C
BRANCH  17  18
HETATM   18  C12 UNL     1      11.193  -5.796  10.500  1.00  0.00     0.003 C
HETATM   19  C13 UNL     1      10.799  -6.278   9.133  1.00  0.00     0.006 C
HETATM   20  C14 UNL     1      11.811  -7.079   8.403  1.00  0.00     0.000 C
HETATM   21  C15 UNL     1      12.864  -6.285   7.672  1.00  0.00     0.000 C
HETATM   22  C16 UNL     1      13.017  -4.892   8.205  1.00  0.00     0.000 C
HETATM   23  C17 UNL     1      13.445  -5.037   9.666  1.00  0.00     0.000 C
HETATM   24  C18 UNL     1      12.252  -4.729  10.504  1.00  0.00     0.006 C
ENDBRANCH  17  18
ENDBRANCH  15  17
ENDBRANCH  13  15
ENDBRANCH   1  13
TORSDOF 8
ENDMDL