MODEL 3
REMARK VINA RESULT: -7.943130592      1.113      3.647
REMARK  9 active torsions:
REMARK  status: ('A' for Active; 'I' for Inactive)
REMARK    1  A    between atoms: C4_4  and  C5_5
REMARK    2  A    between atoms: C5_5  and  C6_6
REMARK    3  A    between atoms: C6_6  and  C7_7
REMARK    4  A    between atoms: C7_7  and  C8_8
REMARK    5  A    between atoms: C8_8  and  C9_9
REMARK    6  A    between atoms: C8_8  and  C21_26
REMARK    7  A    between atoms: C10_10  and  C11_11
REMARK    8  A    between atoms: C11_11  and  C12_15
REMARK    9  A    between atoms: C17_20  and  O1_21
ROOT
HETATM    1  C11 UNL     1       9.555  -9.170  11.339  1.00  0.00     0.007 C
HETATM    2  N1  UNL     1       8.312  -8.983  11.303  1.00  0.00    -0.402 N
ATOM      3  H11 UNL     1       7.856  -8.596  10.476  1.00  0.00     0.156 HD
ATOM      4  H12 UNL     1       7.732  -9.226  12.105  1.00  0.00     0.156 HD
ENDROOT
BRANCH   1   5
HETATM    5  C10 UNL     1      10.212  -9.728  12.531  1.00  0.00     0.026 C
HETATM    6  C9  UNL     1      10.220  -9.046  13.622  1.00  0.00     0.017 C
BRANCH   6   7
HETATM    7  C8  UNL     1      10.867  -9.544  14.894  1.00  0.00    -0.014 C
BRANCH   7   8
HETATM    8  C7  UNL     1      12.036  -9.996  14.699  1.00  0.00    -0.148 C
BRANCH   8   9
HETATM    9  C6  UNL     1      13.341 -10.499  14.481  1.00  0.00     0.089 C
BRANCH   9  10
HETATM   10  C5  UNL     1      13.595 -11.116  13.100  1.00  0.00     0.039 C
BRANCH  10  11
HETATM   11  C4  UNL     1      13.978 -12.539  13.206  1.00  0.00    -0.024 C
HETATM   12  C2  UNL     1      13.084 -13.489  13.110  1.00  0.00    -0.091 C
HETATM   13  C1  UNL     1      11.652 -13.214  12.892  1.00  0.00     0.042 C
HETATM   14  C3  UNL     1      13.518 -14.920  13.240  1.00  0.00     0.042 C
ENDBRANCH  10  11
ENDBRANCH   9  10
ENDBRANCH   8   9
ENDBRANCH   7   8
BRANCH   7  15
HETATM   15  C21 UNL     1      10.046  -9.385  16.075  1.00  0.00     0.018 C
HETATM   16  C22 UNL     1       8.594  -8.988  15.644  1.00  0.00     0.015 C
HETATM   17  C23 UNL     1       9.872 -10.616  16.933  1.00  0.00     0.015 C
ENDBRANCH   7  15
ENDBRANCH   6   7
ENDBRANCH   1   5
BRANCH   1  18
HETATM   18  C12 UNL     1      10.387  -8.822  10.188  1.00  0.00     0.039 C
HETATM   19  C13 UNL     1       9.537  -8.952   8.900  1.00  0.00     0.011 C
HETATM   20  C14 UNL     1      10.384  -8.167   7.879  1.00  0.00     0.006 C
HETATM   21  C15 UNL     1      11.357  -7.348   8.700  1.00  0.00    -0.007 C
HETATM   22  C16 UNL     1      11.536  -5.944   8.263  1.00  0.00     0.036 C
HETATM   23  C20 UNL     1      10.655  -7.327  10.066  1.00  0.00    -0.000 C
HETATM   24  C17 UNL     1      12.327  -5.174   9.276  1.00  0.00     0.118 C
HETATM   25  C18 UNL     1      11.795  -5.298  10.679  1.00  0.00     0.032 C
HETATM   26  C19 UNL     1      11.589  -6.760  11.058  1.00  0.00     0.008 C
BRANCH  24  27
HETATM   27  O1  UNL     1      12.229  -3.822   8.912  1.00  0.00    -0.396 OA
ATOM     28  H1  UNL     1      11.873  -3.806   8.030  1.00  0.00     0.210 HD
ENDBRANCH  24  27
ENDBRANCH   1  18
TORSDOF 9
ENDMDL