MODEL 3
REMARK VINA RESULT: -9.075922690      1.287      7.255
REMARK  6 active torsions:
REMARK  status: ('A' for Active; 'I' for Inactive)
REMARK       I    between atoms: C1_2  and  N1_3
REMARK    1  A    between atoms: C1_2  and  C9_12
REMARK    2  A    between atoms: N1_3  and  C2_5
REMARK    3  A    between atoms: C9_12  and  N2_13
REMARK    4  A    between atoms: N2_13  and  C10_15
REMARK    5  A    between atoms: C10_15  and  C11_16
REMARK    6  A    between atoms: C11_16  and  C12_17
ROOT
HETATM    1  C9  UNL     1      10.697  -8.927  13.336  1.00  0.00     0.111 C
HETATM    2  C18 UNL     1       9.163  -8.905  13.439  1.00  0.00     0.041 C
HETATM    3  C19 UNL     1       8.622  -8.301  14.674  1.00  0.00     0.003 C
HETATM    4  C20 UNL     1       9.259  -9.015  15.886  1.00  0.00     0.000 C
HETATM    5  C21 UNL     1      10.691  -8.525  15.860  1.00  0.00     0.003 C
HETATM    6  C22 UNL     1      11.355  -9.087  14.623  1.00  0.00     0.041 C
ENDROOT
BRANCH   1   7
HETATM    7  C1  UNL     1      11.082  -7.699  12.550  1.00  0.00     0.246 C
HETATM    8  O1  UNL     1      11.997  -7.017  13.141  1.00  0.00    -0.271 OA
HETATM    9  N1  UNL     1      10.577  -7.273  11.352  1.00  0.00    -0.350 N
ATOM     10  H1  UNL     1       9.862  -7.887  10.961  1.00  0.00     0.163 HD
BRANCH   9  11
HETATM   11  C2  UNL     1      10.864  -6.132  10.551  1.00  0.00     0.117 C
HETATM   12  C3  UNL     1      11.910  -5.163  11.166  1.00  0.00     0.109 C
HETATM   13  C4  UNL     1      12.847  -4.895  10.149  1.00  0.00    -0.180 C
HETATM   14  C5  UNL     1      13.750  -4.690   9.097  1.00  0.00     0.083 C
HETATM   15  C6  UNL     1      13.139  -5.437   7.860  1.00  0.00     0.038 C
HETATM   16  C7  UNL     1      11.673  -5.789   8.088  1.00  0.00    -0.028 C
HETATM   17  C8  UNL     1      11.216  -6.614   9.165  1.00  0.00    -0.005 C
ENDBRANCH   9  11
ENDBRANCH   1   7
BRANCH   1  18
HETATM   18  N2  UNL     1      10.915 -10.099  12.478  1.00  0.00    -0.385 N
ATOM     19  H2  UNL     1      10.480 -10.147  11.556  1.00  0.00     0.159 HD
BRANCH  18  20
HETATM   20  C10 UNL     1      11.712 -11.138  12.923  1.00  0.00     0.057 C
BRANCH  20  21
HETATM   21  C11 UNL     1      13.148 -11.207  12.584  1.00  0.00     0.049 C
BRANCH  21  22
HETATM   22  C12 UNL     1      13.878 -12.291  13.399  1.00  0.00    -0.010 C
HETATM   23  C13 UNL     1      13.572 -12.052  14.852  1.00  0.00     0.005 C
HETATM   24  C14 UNL     1      13.880 -13.207  15.734  1.00  0.00     0.000 C
HETATM   25  C15 UNL     1      13.120 -14.439  15.298  1.00  0.00     0.000 C
HETATM   26  C16 UNL     1      13.509 -14.756  13.858  1.00  0.00     0.000 C
HETATM   27  C17 UNL     1      13.296 -13.597  12.949  1.00  0.00     0.005 C
ENDBRANCH  21  22
ENDBRANCH  20  21
ENDBRANCH  18  20
ENDBRANCH   1  18
TORSDOF 6
ENDMDL