MODEL 4
REMARK VINA RESULT: -7.198370792      1.170      1.763
REMARK  8 active torsions:
REMARK  status: ('A' for Active; 'I' for Inactive)
REMARK    1  A    between atoms: C13_13  and  O1_14
REMARK    2  A    between atoms: C16_18  and  C17_19
REMARK    3  A    between atoms: C17_19  and  C18_20
REMARK    4  A    between atoms: C18_20  and  C19_21
REMARK    5  A    between atoms: C19_21  and  C20_22
REMARK    6  A    between atoms: C20_22  and  C21_23
REMARK    7  A    between atoms: C21_23  and  C22_24
REMARK    8  A    between atoms: C22_24  and  N1_25
ROOT
HETATM    1  C1  UNL     1      12.635 -14.521  12.727  1.00  0.00     0.015 C
HETATM    2  C2  UNL     1      12.828 -13.766  14.034  1.00  0.00    -0.044 C
HETATM    3  C3  UNL     1      12.744 -14.810  15.128  1.00  0.00     0.015 C
HETATM    4  C4  UNL     1      14.209 -13.165  14.089  1.00  0.00     0.009 C
HETATM    5  C5  UNL     1      14.502 -12.272  12.928  1.00  0.00     0.001 C
HETATM    6  C6  UNL     1      13.227 -11.503  12.526  1.00  0.00     0.005 C
HETATM    7  C7  UNL     1      12.322 -11.366  13.703  1.00  0.00    -0.004 C
HETATM    8  C8  UNL     1      11.755 -12.687  14.203  1.00  0.00    -0.002 C
HETATM    9  C9  UNL     1      11.472 -12.510  15.673  1.00  0.00     0.006 C
HETATM   10  C10 UNL     1      11.537 -11.066  16.124  1.00  0.00     0.012 C
HETATM   11  C11 UNL     1      10.746 -10.261  15.149  1.00  0.00    -0.014 C
HETATM   12  C12 UNL     1       9.367 -10.862  15.165  1.00  0.00     0.018 C
HETATM   13  C13 UNL     1      10.537  -8.815  15.567  1.00  0.00     0.126 C
HETATM   14  C14 UNL     1       9.583  -8.205  14.569  1.00  0.00     0.033 C
HETATM   15  C15 UNL     1       9.823  -8.520  13.154  1.00  0.00     0.007 C
HETATM   16  C16 UNL     1      10.352  -9.926  12.824  1.00  0.00    -0.009 C
HETATM   17  C23 UNL     1      11.399 -10.223  13.757  1.00  0.00     0.005 C
ENDROOT
BRANCH  16  18
HETATM   18  C17 UNL     1      10.484  -9.919  11.364  1.00  0.00     0.005 C
BRANCH  18  19
HETATM   19  C18 UNL     1       9.266  -9.613  10.545  1.00  0.00     0.000 C
BRANCH  19  20
HETATM   20  C19 UNL     1       9.532  -9.959   9.088  1.00  0.00     0.000 C
BRANCH  20  21
HETATM   21  C20 UNL     1      10.536  -8.982   8.537  1.00  0.00     0.002 C
BRANCH  21  22
HETATM   22  C21 UNL     1       9.923  -7.841   7.804  1.00  0.00     0.027 C
BRANCH  22  23
HETATM   23  C22 UNL     1      10.739  -6.590   8.160  1.00  0.00     0.229 C
BRANCH  23  24
HETATM   24  N1  UNL     1      11.169  -6.643   9.543  1.00  0.00    -0.079 N
ATOM     25  H13 UNL     1      12.113  -6.276   9.661  1.00  0.00     0.274 HD
ATOM     26  H12 UNL     1      10.670  -5.968  10.122  1.00  0.00     0.274 HD
ATOM     27  H11 UNL     1      11.083  -7.593   9.906  1.00  0.00     0.274 HD
ENDBRANCH  23  24
ENDBRANCH  22  23
ENDBRANCH  21  22
ENDBRANCH  20  21
ENDBRANCH  19  20
ENDBRANCH  18  19
ENDBRANCH  16  18
BRANCH  13  28
HETATM   28  O1  UNL     1      11.753  -8.157  15.593  1.00  0.00    -0.395 OA
ATOM     29  H1  UNL     1      11.616  -7.239  15.795  1.00  0.00     0.210 HD
ENDBRANCH  13  28
TORSDOF 8
ENDMDL