MODEL 1
REMARK VINA RESULT: -7.848135140      0.000      0.000
REMARK  6 active torsions:
REMARK  status: ('A' for Active; 'I' for Inactive)
REMARK    1  A    between atoms: C6_6  and  N1_7
REMARK    2  A    between atoms: N1_7  and  C7_9
REMARK    3  A    between atoms: C7_9  and  C8_10
REMARK    4  A    between atoms: C8_10  and  C9_11
REMARK    5  A    between atoms: C9_11  and  N2_12
REMARK    6  A    between atoms: N2_12  and  C10_14
ROOT
HETATM    1  C8  UNL     1       8.579  -8.189  14.033  1.00  0.00     0.063 C
ENDROOT
BRANCH   1   2
HETATM    2  C7  UNL     1       8.880  -7.804  12.614  1.00  0.00     0.057 C
BRANCH   2   3
HETATM    3  N1  UNL     1      10.181  -7.450  12.294  1.00  0.00    -0.398 N
ATOM      4  H1  UNL     1      10.867  -7.472  13.049  1.00  0.00     0.159 HD
BRANCH   3   5
HETATM    5  C6  UNL     1      10.635  -7.071  11.051  1.00  0.00     0.081 C
HETATM    6  C5  UNL     1      10.437  -8.024   9.906  1.00  0.00     0.026 C
HETATM    7  C4  UNL     1      11.231  -7.676   8.698  1.00  0.00     0.011 C
HETATM    8  C2  UNL     1      11.715  -6.280   8.590  1.00  0.00    -0.041 C
HETATM    9  C1  UNL     1      12.918  -6.305   7.632  1.00  0.00     0.015 C
HETATM   10  C3  UNL     1      10.663  -5.437   7.858  1.00  0.00     0.015 C
HETATM   11  C21 UNL     1      12.173  -5.630   9.844  1.00  0.00    -0.039 C
HETATM   12  C20 UNL     1      12.071  -6.610  11.016  1.00  0.00     0.034 C
HETATM   13  C22 UNL     1      11.358  -4.412  10.229  1.00  0.00     0.015 C
HETATM   14  C23 UNL     1      13.621  -5.187   9.806  1.00  0.00     0.015 C
ENDBRANCH   3   5
ENDBRANCH   2   3
ENDBRANCH   1   2
BRANCH   1  15
HETATM   15  C9  UNL     1       9.912  -8.330  14.775  1.00  0.00     0.119 C
BRANCH  15  16
HETATM   16  N2  UNL     1      10.091  -9.667  15.172  1.00  0.00    -0.412 N
ATOM     17  H2  UNL     1       9.488 -10.079  15.884  1.00  0.00     0.154 HD
BRANCH  16  18
HETATM   18  C10 UNL     1      11.117 -10.431  14.571  1.00  0.00     0.026 C
HETATM   19  C11 UNL     1      12.462  -9.773  14.544  1.00  0.00     0.035 C
HETATM   20  C12 UNL     1      13.499 -10.756  14.036  1.00  0.00    -0.012 C
HETATM   21  C13 UNL     1      13.145 -11.141  12.630  1.00  0.00     0.009 C
HETATM   22  C17 UNL     1      13.569 -11.965  14.931  1.00  0.00     0.009 C
HETATM   23  C14 UNL     1      11.796 -11.814  12.618  1.00  0.00    -0.012 C
HETATM   24  C15 UNL     1      11.880 -13.063  13.434  1.00  0.00     0.009 C
HETATM   25  C19 UNL     1      10.785 -10.833  13.140  1.00  0.00     0.035 C
HETATM   26  C16 UNL     1      12.237 -12.668  14.845  1.00  0.00    -0.012 C
HETATM   27  C18 UNL     1      11.187 -11.744  15.360  1.00  0.00     0.035 C
ENDBRANCH  16  18
ENDBRANCH  15  16
ENDBRANCH   1  15
TORSDOF 6
ENDMDL