MODEL 2
REMARK VINA RESULT: -5.743979878      3.012      7.047
REMARK  16 active torsions:
REMARK  status: ('A' for Active; 'I' for Inactive)
REMARK    1  A    between atoms: C2_2  and  C3_3
REMARK    2  A    between atoms: C3_3  and  C4_4
REMARK    3  A    between atoms: C4_4  and  C5_5
REMARK    4  A    between atoms: C5_5  and  C6_6
REMARK       I    between atoms: C6_6  and  N1_8
REMARK    5  A    between atoms: N1_8  and  C7_10
REMARK    6  A    between atoms: C8_11  and  O2_12
REMARK    7  A    between atoms: C8_11  and  N2_14
REMARK    8  A    between atoms: C10_16  and  C11_17
REMARK    9  A    between atoms: C15_24  and  C16_25
REMARK   10  A    between atoms: C16_25  and  C17_26
REMARK   11  A    between atoms: C17_26  and  C18_27
REMARK   12  A    between atoms: C18_27  and  C19_28
REMARK   13  A    between atoms: C20_31  and  C21_32
REMARK   14  A    between atoms: C21_32  and  C22_33
REMARK   15  A    between atoms: C24_38  and  C25_39
REMARK   16  A    between atoms: C25_39  and  C27_41
ROOT
HETATM    1  N2  UNL     1      26.534  24.333  18.891  1.00  0.00    -0.322 N
HETATM    2  C9  UNL     1      27.912  24.646  19.056  1.00  0.00     0.099 C
HETATM    3  C10 UNL     1      28.504  25.938  18.807  1.00  0.00     0.170 C
HETATM    4  O3  UNL     1      28.928  26.636  19.976  1.00  0.00    -0.310 OA
HETATM    5  C13 UNL     1      28.137  27.658  20.438  1.00  0.00     0.268 C
HETATM    6  O4  UNL     1      28.125  27.956  21.649  1.00  0.00    -0.264 OA
HETATM    7  C14 UNL     1      27.312  28.385  19.451  1.00  0.00     0.186 C
HETATM    8  S1  UNL     1      25.681  27.897  19.238  1.00  0.00    -0.144 SA
HETATM    9  C15 UNL     1      25.065  26.270  19.483  1.00  0.00     0.065 C
HETATM   10  C20 UNL     1      23.542  26.551  19.458  1.00  0.00     0.154 C
HETATM   11  O7  UNL     1      23.140  27.254  18.345  1.00  0.00    -0.312 OA
HETATM   12  C23 UNL     1      23.279  27.754  17.089  1.00  0.00     0.289 C
HETATM   13  O8  UNL     1      22.263  28.426  16.670  1.00  0.00    -0.262 OA
HETATM   14  C24 UNL     1      24.308  27.700  16.104  1.00  0.00     0.235 C
HETATM   15  O9  UNL     1      25.338  26.756  16.389  1.00  0.00    -0.304 OA
HETATM   16  C29 UNL     1      25.689  25.689  17.101  1.00  0.00     0.284 C
HETATM   17  O10 UNL     1      26.410  24.807  16.504  1.00  0.00    -0.263 OA
HETATM   18  C30 UNL     1      25.461  25.210  18.484  1.00  0.00     0.211 C
ENDROOT
BRANCH   1  19
HETATM   19  C8  UNL     1      26.277  22.966  19.163  1.00  0.00     0.158 C
HETATM   20  C7  UNL     1      27.165  22.138  19.943  1.00  0.00     0.147 C
BRANCH  20  21
HETATM   21  N1  UNL     1      26.819  20.882  20.123  1.00  0.00    -0.333 N
HETATM   22  C6  UNL     1      27.775  19.888  19.831  1.00  0.00     0.221 C
HETATM   23  O1  UNL     1      28.883  19.846  20.418  1.00  0.00    -0.273 OA
ATOM     24  H1  UNL     1      25.890  20.635  20.462  1.00  0.00     0.168 HD
BRANCH  22  25
HETATM   25  C5  UNL     1      27.448  18.881  18.806  1.00  0.00     0.103 C
BRANCH  25  26
HETATM   26  C4  UNL     1      25.959  18.903  18.540  1.00  0.00     0.013 C
BRANCH  26  27
HETATM   27  C3  UNL     1      25.468  17.493  18.899  1.00  0.00     0.027 C
BRANCH  27  28
HETATM   28  C2  UNL     1      24.677  17.678  20.161  1.00  0.00    -0.037 C
HETATM   29  C1  UNL     1      25.141  17.287  21.340  1.00  0.00     0.007 C
ENDBRANCH  27  28
ENDBRANCH  26  27
ENDBRANCH  25  26
ENDBRANCH  22  25
ENDBRANCH  20  21
BRANCH  19  30
HETATM   30  O2  UNL     1      25.194  22.412  18.702  1.00  0.00    -0.345 OA
ATOM     31  H2  UNL     1      24.379  22.883  18.823  1.00  0.00     0.219 HD
ENDBRANCH  19  30
ENDBRANCH   1  19
BRANCH   3  32
HETATM   32  C11 UNL     1      29.861  25.692  18.103  1.00  0.00     0.033 C
HETATM   33  C12 UNL     1      29.745  25.964  16.621  1.00  0.00     0.008 C
ENDBRANCH   3  32
BRANCH   9  34
HETATM   34  C16 UNL     1      25.340  25.739  20.871  1.00  0.00     0.026 C
BRANCH  34  35
HETATM   35  C17 UNL     1      25.183  26.725  21.994  1.00  0.00     0.012 C
BRANCH  35  36
HETATM   36  C18 UNL     1      24.199  26.104  23.011  1.00  0.00     0.113 C
BRANCH  36  37
HETATM   37  C19 UNL     1      23.243  27.108  23.487  1.00  0.00     0.172 C
HETATM   38  O5  UNL     1      23.454  27.630  24.611  1.00  0.00    -0.648 OA
HETATM   39  O6  UNL     1      22.113  27.541  22.804  1.00  0.00    -0.648 OA
ENDBRANCH  36  37
ENDBRANCH  35  36
ENDBRANCH  34  35
ENDBRANCH   9  34
BRANCH  10  40
HETATM   40  C21 UNL     1      22.695  25.455  19.952  1.00  0.00     0.045 C
BRANCH  40  41
HETATM   41  C22 UNL     1      21.203  25.682  19.874  1.00  0.00     0.088 C
HETATM   42  S2  UNL     1      20.344  24.862  18.562  1.00  0.00    -0.098 SA
ENDBRANCH  40  41
ENDBRANCH  10  40
BRANCH  14  43
HETATM   43  C25 UNL     1      25.050  28.875  15.600  1.00  0.00     0.021 C
HETATM   44  C26 UNL     1      26.494  28.445  15.182  1.00  0.00     0.013 C
BRANCH  43  45
HETATM   45  C27 UNL     1      24.593  29.786  14.568  1.00  0.00     0.003 C
HETATM   46  C28 UNL     1      24.141  31.158  14.905  1.00  0.00     0.005 C
ENDBRANCH  43  45
ENDBRANCH  14  43
TORSDOF 16
ENDMDL