MODEL 1
REMARK VINA RESULT: -9.108932138      0.000      0.000
REMARK  14 active torsions:
REMARK  status: ('A' for Active; 'I' for Inactive)
REMARK    1  A    between atoms: N2_5  and  C4_6
REMARK    2  A    between atoms: C4_6  and  C5_7
REMARK    3  A    between atoms: C5_7  and  O1_8
REMARK    4  A    between atoms: O1_8  and  C6_9
REMARK    5  A    between atoms: C6_9  and  C7_10
REMARK    6  A    between atoms: C7_10  and  O2_11
REMARK    7  A    between atoms: O2_11  and  C8_12
REMARK    8  A    between atoms: C10_14  and  N3_15
REMARK    9  A    between atoms: N3_15  and  C11_17
REMARK   10  A    between atoms: C11_17  and  C12_18
REMARK   11  A    between atoms: C12_18  and  N4_19
REMARK   12  A    between atoms: C18_26  and  N5_27
REMARK   13  A    between atoms: N5_27  and  C19_29
REMARK   14  A    between atoms: C26_37  and  N7_38
ROOT
HETATM    1  C8  UNL     1      18.245  25.242  15.272  1.00  0.00     0.073 A
HETATM    2  C9  UNL     1      19.058  24.837  16.295  1.00  0.00     0.067 A
HETATM    3  C10 UNL     1      20.225  25.562  16.651  1.00  0.00     0.045 A
HETATM    4  C17 UNL     1      20.547  26.686  15.953  1.00  0.00     0.045 A
HETATM    5  C18 UNL     1      21.717  27.450  16.244  1.00  0.00     0.070 A
HETATM    6  C31 UNL     1      21.905  28.557  15.452  1.00  0.00     0.087 A
HETATM    7  C32 UNL     1      23.042  29.418  15.660  1.00  0.00     0.103 C
HETATM    8  N8  UNL     1      23.915  30.125  15.800  1.00  0.00    -0.191 NA
HETATM    9  C33 UNL     1      21.011  28.887  14.439  1.00  0.00     0.113 A
HETATM   10  N9  UNL     1      19.938  28.154  14.187  1.00  0.00    -0.363 N
ATOM     11  H9  UNL     1      19.301  28.418  13.437  1.00  0.00     0.165 HD
HETATM   12  C34 UNL     1      19.697  27.067  14.921  1.00  0.00     0.049 A
HETATM   13  C35 UNL     1      18.550  26.375  14.558  1.00  0.00     0.067 A
ENDROOT
BRANCH   5  14
HETATM   14  N5  UNL     1      22.506  27.013  17.063  1.00  0.00    -0.352 N
ATOM     15  H5  UNL     1      22.035  26.834  17.949  1.00  0.00     0.166 HD
BRANCH  14  16
HETATM   16  C19 UNL     1      23.834  26.688  17.156  1.00  0.00     0.063 A
HETATM   17  C20 UNL     1      24.622  26.755  15.980  1.00  0.00     0.049 A
HETATM   18  C21 UNL     1      25.932  26.399  15.916  1.00  0.00     0.099 A
HETATM   19  N6  UNL     1      26.510  25.948  17.070  1.00  0.00    -0.331 N
HETATM   20  C22 UNL     1      27.767  25.533  17.290  1.00  0.00     0.097 A
HETATM   21  C25 UNL     1      25.799  25.869  18.206  1.00  0.00     0.067 A
HETATM   22  C23 UNL     1      27.873  25.174  18.609  1.00  0.00     0.020 A
HETATM   23  C24 UNL     1      26.648  25.377  19.202  1.00  0.00     0.034 A
HETATM   24  C26 UNL     1      24.465  26.224  18.306  1.00  0.00     0.085 A
BRANCH  24  25
HETATM   25  N7  UNL     1      23.800  26.115  19.534  1.00  0.00    -0.377 N
HETATM   26  C27 UNL     1      23.191  27.159  20.370  1.00  0.00     0.123 C
HETATM   27  C28 UNL     1      23.610  26.729  21.762  1.00  0.00     0.021 C
HETATM   28  C29 UNL     1      23.861  25.225  21.682  1.00  0.00     0.021 C
HETATM   29  C30 UNL     1      23.511  24.878  20.265  1.00  0.00     0.123 C
ENDBRANCH  24  25
ENDBRANCH  14  16
ENDBRANCH   5  14
BRANCH   3  30
HETATM   30  N3  UNL     1      20.927  25.139  17.793  1.00  0.00    -0.387 N
ATOM     31  H3  UNL     1      21.883  24.794  17.698  1.00  0.00     0.159 HD
BRANCH  30  32
HETATM   32  C11 UNL     1      20.293  25.188  19.146  1.00  0.00     0.150 C
BRANCH  32  33
HETATM   33  C12 UNL     1      20.065  23.829  19.674  1.00  0.00     0.292 C
BRANCH  33  34
HETATM   34  N4  UNL     1      18.828  23.636  20.345  1.00  0.00     0.094 N
HETATM   35  C13 UNL     1      18.514  22.213  20.314  1.00  0.00     0.298 C
HETATM   36  C14 UNL     1      18.167  21.676  18.976  1.00  0.00     0.198 C
HETATM   37  O3  UNL     1      17.389  22.562  18.289  1.00  0.00    -0.388 OA
HETATM   38  C15 UNL     1      16.778  23.546  19.010  1.00  0.00     0.198 C
HETATM   39  C16 UNL     1      17.734  24.415  19.794  1.00  0.00     0.298 C
ENDBRANCH  33  34
ENDBRANCH  32  33
ENDBRANCH  30  32
ENDBRANCH   3  30
BRANCH   1  40
HETATM   40  O2  UNL     1      17.128  24.539  14.954  1.00  0.00    -0.349 OA
BRANCH  40  41
HETATM   41  C7  UNL     1      16.981  23.127  15.008  1.00  0.00     0.201 C
BRANCH  41  42
HETATM   42  C6  UNL     1      15.607  22.682  14.642  1.00  0.00     0.194 C
BRANCH  42  43
HETATM   43  O1  UNL     1      15.456  21.394  14.234  1.00  0.00    -0.387 OA
BRANCH  43  44
HETATM   44  C5  UNL     1      14.224  20.818  14.410  1.00  0.00     0.198 C
BRANCH  44  45
HETATM   45  C4  UNL     1      13.561  21.458  15.584  1.00  0.00     0.298 C
BRANCH  45  46
HETATM   46  N2  UNL     1      13.617  20.515  16.714  1.00  0.00     0.093 N
HETATM   47  C3  UNL     1      13.962  21.302  17.891  1.00  0.00     0.302 C
HETATM   48  C2  UNL     1      14.188  20.372  19.043  1.00  0.00     0.302 C
HETATM   49  N1  UNL     1      13.255  19.285  19.070  1.00  0.00     0.087 N
HETATM   50  C1  UNL     1      13.857  18.014  18.763  1.00  0.00     0.310 C
HETATM   51  C37 UNL     1      12.043  19.539  18.329  1.00  0.00     0.302 C
HETATM   52  C36 UNL     1      12.300  19.922  16.902  1.00  0.00     0.302 C
ENDBRANCH  45  46
ENDBRANCH  44  45
ENDBRANCH  43  44
ENDBRANCH  42  43
ENDBRANCH  41  42
ENDBRANCH  40  41
ENDBRANCH   1  40
TORSDOF 14
ENDMDL