MODEL 1
REMARK VINA RESULT: -7.666230989      0.000      0.000
REMARK  19 active torsions:
REMARK  status: ('A' for Active; 'I' for Inactive)
REMARK    1  A    between atoms: C2_2  and  C3_3
REMARK    2  A    between atoms: C3_3  and  C5_5
REMARK    3  A    between atoms: C5_5  and  C6_6
REMARK    4  A    between atoms: C6_6  and  C7_7
REMARK    5  A    between atoms: C8_8  and  O1_9
REMARK    6  A    between atoms: O1_9  and  C9_10
REMARK    7  A    between atoms: C11_13  and  O3_14
REMARK    8  A    between atoms: C12_16  and  O4_17
REMARK    9  A    between atoms: O4_17  and  C13_18
REMARK   10  A    between atoms: C13_18  and  C14_20
REMARK   11  A    between atoms: C14_20  and  C15_21
REMARK   12  A    between atoms: C15_21  and  C16_22
REMARK   13  A    between atoms: C16_22  and  C17_23
REMARK   14  A    between atoms: C20_26  and  O6_27
REMARK   15  A    between atoms: O6_27  and  C21_28
REMARK   16  A    between atoms: C25_33  and  O8_34
REMARK   17  A    between atoms: O8_34  and  C26_35
REMARK       I    between atoms: C26_35  and  N1_37
REMARK   18  A    between atoms: N1_37  and  C28_39
REMARK   19  A    between atoms: C33_44  and  O10_45
ROOT
HETATM    1  C7  UNL     1      22.764  26.462  16.429  1.00  0.00     0.030 C
HETATM    2  C8  UNL     1      23.549  26.675  17.709  1.00  0.00     0.168 C
HETATM    3  C11 UNL     1      22.867  27.731  18.555  1.00  0.00     0.178 C
HETATM    4  C12 UNL     1      21.659  26.976  19.112  1.00  0.00     0.170 C
HETATM    5  C19 UNL     1      20.733  26.679  17.983  1.00  0.00     0.060 C
HETATM    6  C20 UNL     1      19.722  25.622  18.369  1.00  0.00     0.146 C
HETATM    7  C23 UNL     1      18.686  25.446  17.269  1.00  0.00     0.060 C
HETATM    8  C24 UNL     1      17.680  24.394  17.648  1.00  0.00     0.043 C
HETATM    9  C25 UNL     1      16.745  24.189  16.464  1.00  0.00     0.134 C
HETATM   10  C30 UNL     1      16.967  25.175  15.368  1.00  0.00     0.040 C
HETATM   11  C31 UNL     1      18.401  25.246  14.881  1.00  0.00     0.026 C
HETATM   12  C32 UNL     1      18.573  26.641  14.322  1.00  0.00     0.014 C
HETATM   13  C33 UNL     1      19.347  24.934  16.005  1.00  0.00     0.128 C
HETATM   14  C34 UNL     1      20.725  25.327  15.862  1.00  0.00     0.167 C
HETATM   15  O11 UNL     1      21.428  24.683  15.089  1.00  0.00    -0.294 OA
HETATM   16  C35 UNL     1      21.291  26.494  16.636  1.00  0.00     0.074 C
ENDROOT
BRANCH   4  17
HETATM   17  O4  UNL     1      21.058  27.760  20.129  1.00  0.00    -0.313 OA
BRANCH  17  18
HETATM   18  C13 UNL     1      21.311  27.467  21.447  1.00  0.00     0.259 C
HETATM   19  O5  UNL     1      21.054  28.351  22.301  1.00  0.00    -0.265 OA
BRANCH  18  20
HETATM   20  C14 UNL     1      21.868  26.188  21.941  1.00  0.00     0.111 C
BRANCH  20  21
HETATM   21  C15 UNL     1      23.266  26.328  22.438  1.00  0.00     0.010 C
BRANCH  21  22
HETATM   22  C16 UNL     1      24.022  25.033  22.512  1.00  0.00     0.000 C
BRANCH  22  23
HETATM   23  C17 UNL     1      25.360  25.196  23.225  1.00  0.00    -0.005 C
HETATM   24  C18 UNL     1      26.388  24.269  22.633  1.00  0.00     0.005 C
ENDBRANCH  22  23
ENDBRANCH  21  22
ENDBRANCH  20  21
ENDBRANCH  18  20
ENDBRANCH  17  18
ENDBRANCH   4  17
BRANCH   3  25
HETATM   25  O3  UNL     1      23.766  28.104  19.541  1.00  0.00    -0.390 OA
ATOM     26  H3  UNL     1      23.515  28.974  19.831  1.00  0.00     0.210 HD
ENDBRANCH   3  25
BRANCH   2  27
HETATM   27  O1  UNL     1      23.658  25.472  18.431  1.00  0.00    -0.313 OA
BRANCH  27  28
HETATM   28  C9  UNL     1      24.852  25.067  19.012  1.00  0.00     0.255 C
HETATM   29  C10 UNL     1      25.301  23.677  19.075  1.00  0.00     0.126 C
HETATM   30  O2  UNL     1      25.601  25.955  19.518  1.00  0.00    -0.266 OA
ENDBRANCH  27  28
ENDBRANCH   2  27
BRANCH   6  31
HETATM   31  O6  UNL     1      20.264  24.351  18.617  1.00  0.00    -0.315 OA
BRANCH  31  32
HETATM   32  C21 UNL     1      19.751  23.410  19.495  1.00  0.00     0.255 C
HETATM   33  C22 UNL     1      19.353  23.648  20.886  1.00  0.00     0.126 C
HETATM   34  O7  UNL     1      19.615  22.227  19.037  1.00  0.00    -0.266 OA
ENDBRANCH  31  32
ENDBRANCH   6  31
BRANCH   1  35
HETATM   35  C6  UNL     1      23.264  27.543  15.493  1.00  0.00     0.013 C
BRANCH  35  36
HETATM   36  C5  UNL     1      22.420  28.788  15.480  1.00  0.00     0.038 C
BRANCH  36  37
HETATM   37  C3  UNL     1      22.364  29.418  14.157  1.00  0.00    -0.068 C
HETATM   38  C4  UNL     1      21.366  29.168  13.342  1.00  0.00     0.019 C
BRANCH  37  39
HETATM   39  C2  UNL     1      23.399  30.349  13.748  1.00  0.00    -0.004 C
HETATM   40  C1  UNL     1      24.221  30.976  14.539  1.00  0.00     0.012 C
ENDBRANCH  37  39
ENDBRANCH  36  37
ENDBRANCH  35  36
ENDBRANCH   1  35
BRANCH  13  41
HETATM   41  O10 UNL     1      19.367  23.499  16.058  1.00  0.00    -0.381 OA
ATOM     42  H10 UNL     1      19.475  23.171  15.173  1.00  0.00     0.211 HD
ENDBRANCH  13  41
BRANCH   9  43
HETATM   43  O8  UNL     1      15.425  24.322  16.932  1.00  0.00    -0.298 OA
BRANCH  43  44
HETATM   44  C26 UNL     1      14.502  23.328  16.615  1.00  0.00     0.362 C
HETATM   45  O9  UNL     1      13.865  23.369  15.526  1.00  0.00    -0.238 OA
HETATM   46  N1  UNL     1      14.240  22.240  17.488  1.00  0.00    -0.333 N
HETATM   47  C27 UNL     1      13.280  21.236  17.121  1.00  0.00     0.155 C
BRANCH  46  48
HETATM   48  C28 UNL     1      14.977  22.196  18.746  1.00  0.00     0.123 C
HETATM   49  C29 UNL     1      16.121  21.216  18.620  1.00  0.00     0.026 C
ENDBRANCH  46  48
ENDBRANCH  43  44
ENDBRANCH   9  43
TORSDOF 19
ENDMDL