MODEL 4
REMARK VINA RESULT: -9.646453910      1.270      1.827
REMARK  13 active torsions:
REMARK  status: ('A' for Active; 'I' for Inactive)
REMARK       I    between atoms: C1_2  and  N1_3
REMARK       I    between atoms: C1_2  and  N3_23
REMARK    1  A    between atoms: N1_3  and  C2_5
REMARK    2  A    between atoms: C2_5  and  C3_6
REMARK    3  A    between atoms: C3_6  and  C4_7
REMARK    4  A    between atoms: C4_7  and  C5_8
REMARK    5  A    between atoms: C5_8  and  C6_9
REMARK    6  A    between atoms: C6_9  and  C7_10
REMARK    7  A    between atoms: C7_10  and  N2_11
REMARK    8  A    between atoms: C11_15  and  C12_16
REMARK    9  A    between atoms: C12_16  and  C13_18
REMARK   10  A    between atoms: N3_23  and  C17_25
REMARK   11  A    between atoms: C17_25  and  C18_26
REMARK   12  A    between atoms: C18_26  and  C19_27
REMARK   13  A    between atoms: C19_27  and  N4_28
ROOT
HETATM    1  C17 UNL     1      14.039  21.624  18.111  1.00  0.00     0.129 C
ENDROOT
BRANCH   1   2
HETATM    2  N3  UNL     1      13.845  20.578  17.138  1.00  0.00    -0.343 N
HETATM    3  C1  UNL     1      13.455  20.931  15.807  1.00  0.00     0.316 C
HETATM    4  O1  UNL     1      13.288  22.135  15.476  1.00  0.00    -0.247 OA
HETATM    5  N1  UNL     1      13.256  19.908  14.847  1.00  0.00    -0.343 N
ATOM      6  H1  UNL     1      13.407  18.947  15.153  1.00  0.00     0.164 HD
ATOM      7  H3  UNL     1      13.985  19.600  17.394  1.00  0.00     0.164 HD
BRANCH   5   8
HETATM    8  C2  UNL     1      12.860  20.108  13.485  1.00  0.00     0.124 C
BRANCH   8   9
HETATM    9  C3  UNL     1      12.920  18.791  12.712  1.00  0.00     0.020 C
BRANCH   9  10
HETATM   10  C4  UNL     1      11.596  18.482  12.077  1.00  0.00     0.002 C
BRANCH  10  11
HETATM   11  C5  UNL     1      10.981  17.216  12.613  1.00  0.00     0.002 C
BRANCH  11  12
HETATM   12  C6  UNL     1       9.685  17.432  13.300  1.00  0.00     0.020 C
BRANCH  12  13
HETATM   13  C7  UNL     1       9.723  17.196  14.774  1.00  0.00     0.129 C
BRANCH  13  14
HETATM   14  N2  UNL     1       9.833  18.450  15.481  1.00  0.00    -0.354 N
HETATM   15  C8  UNL     1       9.558  19.622  14.855  1.00  0.00     0.091 A
HETATM   16  C9  UNL     1       9.773  20.664  15.720  1.00  0.00     0.020 A
HETATM   17  C10 UNL     1      10.190  20.076  16.899  1.00  0.00     0.035 A
HETATM   18  C11 UNL     1      10.224  18.695  16.746  1.00  0.00     0.087 A
BRANCH  18  19
HETATM   19  C12 UNL     1      10.586  17.749  17.787  1.00  0.00     0.232 C
HETATM   20  O2  UNL     1      10.081  16.598  17.803  1.00  0.00    -0.283 OA
BRANCH  19  21
HETATM   21  C13 UNL     1      11.533  18.053  18.855  1.00  0.00     0.127 A
HETATM   22  C14 UNL     1      12.865  17.659  18.895  1.00  0.00     0.043 A
HETATM   23  C15 UNL     1      13.410  18.140  20.055  1.00  0.00     0.027 A
HETATM   24  C16 UNL     1      12.389  18.815  20.687  1.00  0.00     0.142 A
HETATM   25  O3  UNL     1      11.330  18.729  19.943  1.00  0.00    -0.319 OA
ENDBRANCH  19  21
ENDBRANCH  18  19
ENDBRANCH  13  14
ENDBRANCH  12  13
ENDBRANCH  11  12
ENDBRANCH  10  11
ENDBRANCH   9  10
ENDBRANCH   8   9
ENDBRANCH   5   8
ENDBRANCH   1   2
BRANCH   1  26
HETATM   26  C18 UNL     1      15.303  21.350  18.914  1.00  0.00     0.064 C
BRANCH  26  27
HETATM   27  C19 UNL     1      16.528  21.522  18.050  1.00  0.00     0.065 C
BRANCH  27  28
HETATM   28  N4  UNL     1      17.320  22.636  18.368  1.00  0.00    -0.372 N
HETATM   29  C20 UNL     1      17.286  23.175  19.666  1.00  0.00     0.065 C
HETATM   30  C21 UNL     1      18.582  23.176  20.405  1.00  0.00     0.071 C
HETATM   31  C22 UNL     1      19.066  24.510  20.860  1.00  0.00     0.172 C
HETATM   32  O4  UNL     1      19.785  25.246  19.968  1.00  0.00    -0.389 OA
HETATM   33  C23 UNL     1      21.058  24.839  19.687  1.00  0.00     0.193 C
HETATM   34  C24 UNL     1      22.078  25.028  20.748  1.00  0.00     0.193 C
HETATM   35  O5  UNL     1      22.702  26.237  20.815  1.00  0.00    -0.387 OA
HETATM   36  C25 UNL     1      22.412  27.166  19.865  1.00  0.00     0.193 C
HETATM   37  C26 UNL     1      23.412  27.153  18.704  1.00  0.00     0.193 C
HETATM   38  O6  UNL     1      22.861  27.907  17.705  1.00  0.00    -0.387 OA
HETATM   39  C27 UNL     1      23.713  28.176  16.649  1.00  0.00     0.193 C
HETATM   40  C28 UNL     1      23.244  27.672  15.331  1.00  0.00     0.193 C
HETATM   41  O7  UNL     1      22.377  28.516  14.670  1.00  0.00    -0.387 OA
HETATM   42  C29 UNL     1      21.266  28.874  15.391  1.00  0.00     0.193 C
HETATM   43  C30 UNL     1      20.327  27.711  15.643  1.00  0.00     0.193 C
HETATM   44  O8  UNL     1      19.543  27.424  14.535  1.00  0.00    -0.387 OA
HETATM   45  C31 UNL     1      19.417  26.033  14.351  1.00  0.00     0.193 C
HETATM   46  C32 UNL     1      18.935  25.336  15.594  1.00  0.00     0.193 C
HETATM   47  O9  UNL     1      17.694  24.748  15.445  1.00  0.00    -0.387 OA
HETATM   48  C33 UNL     1      17.234  24.491  16.752  1.00  0.00     0.187 C
HETATM   49  C34 UNL     1      18.011  23.313  17.350  1.00  0.00     0.153 C
ENDBRANCH  27  28
ENDBRANCH  26  27
ENDBRANCH   1  26
TORSDOF 13
ENDMDL