MODEL 4
REMARK VINA RESULT: -6.495693493      0.924      1.933
REMARK  16 active torsions:
REMARK  status: ('A' for Active; 'I' for Inactive)
REMARK    1  A    between atoms: C2_2  and  C3_3
REMARK    2  A    between atoms: C3_3  and  O1_4
REMARK    3  A    between atoms: O1_4  and  C4_5
REMARK    4  A    between atoms: C5_6  and  C6_7
REMARK    5  A    between atoms: C6_7  and  C7_8
REMARK    6  A    between atoms: C7_8  and  C8_9
REMARK    7  A    between atoms: C8_9  and  C10_11
REMARK    8  A    between atoms: C8_9  and  O2_13
REMARK    9  A    between atoms: C16_19  and  O4_20
REMARK   10  A    between atoms: O4_20  and  C17_21
REMARK   11  A    between atoms: C21_26  and  O6_27
REMARK   12  A    between atoms: O6_27  and  C22_28
REMARK   13  A    between atoms: C25_32  and  O8_33
REMARK   14  A    between atoms: C26_35  and  O9_36
REMARK   15  A    between atoms: C28_38  and  O10_39
REMARK   16  A    between atoms: C33_46  and  N1_47
ROOT
HETATM    1  C4  UNL     1      14.817  21.683  15.731  1.00  0.00     0.174 C
HETATM    2  C5  UNL     1      15.148  20.588  16.614  1.00  0.00    -0.040 C
HETATM    3  C13 UNL     1      14.242  19.972  17.600  1.00  0.00    -0.008 C
HETATM    4  C14 UNL     1      14.596  18.499  17.745  1.00  0.00     0.052 C
HETATM    5  C15 UNL     1      12.812  20.066  17.709  1.00  0.00     0.189 C
HETATM    6  O3  UNL     1      12.319  21.169  17.993  1.00  0.00    -0.289 OA
HETATM    7  C16 UNL     1      11.855  18.939  17.507  1.00  0.00     0.237 C
HETATM    8  C19 UNL     1      10.931  19.116  16.310  1.00  0.00    -0.019 C
HETATM    9  C20 UNL     1       9.962  19.969  16.472  1.00  0.00     0.020 C
HETATM   10  C21 UNL     1      11.112  18.345  15.070  1.00  0.00     0.188 C
HETATM   11  C29 UNL     1      11.299  18.963  13.759  1.00  0.00    -0.005 C
HETATM   12  C30 UNL     1      10.109  19.814  13.284  1.00  0.00     0.050 C
HETATM   13  C31 UNL     1      12.575  19.597  13.396  1.00  0.00     0.156 C
HETATM   14  O11 UNL     1      13.055  19.623  12.311  1.00  0.00    -0.293 OA
HETATM   15  C32 UNL     1      13.288  20.241  14.519  1.00  0.00     0.111 C
HETATM   16  C33 UNL     1      14.348  21.192  14.272  1.00  0.00     0.118 C
ENDROOT
BRANCH  10  17
HETATM   17  O6  UNL     1       9.891  17.607  14.908  1.00  0.00    -0.344 OA
BRANCH  17  18
HETATM   18  C22 UNL     1       9.543  16.854  15.973  1.00  0.00     0.292 C
HETATM   19  O7  UNL     1       8.239  16.417  15.747  1.00  0.00    -0.351 OA
HETATM   20  C23 UNL     1       8.264  15.685  14.531  1.00  0.00     0.152 C
HETATM   21  C24 UNL     1       6.961  15.702  13.800  1.00  0.00     0.042 C
HETATM   22  C25 UNL     1       8.777  14.323  14.896  1.00  0.00     0.178 C
HETATM   23  C26 UNL     1      10.206  14.486  15.305  1.00  0.00     0.185 C
HETATM   24  C28 UNL     1      10.374  15.637  16.259  1.00  0.00     0.204 C
BRANCH  22  25
HETATM   25  O8  UNL     1       8.000  13.835  15.952  1.00  0.00    -0.390 OA
ATOM     26  H8  UNL     1       8.352  14.184  16.762  1.00  0.00     0.210 HD
ENDBRANCH  22  25
BRANCH  23  27
HETATM   27  O9  UNL     1      10.536  13.340  16.085  1.00  0.00    -0.385 OA
HETATM   28  C27 UNL     1      10.334  12.217  15.320  1.00  0.00     0.202 C
ENDBRANCH  23  27
BRANCH  24  29
HETATM   29  O10 UNL     1      11.689  15.871  16.554  1.00  0.00    -0.388 OA
ATOM     30  H10 UNL     1      11.921  15.822  17.474  1.00  0.00     0.210 HD
ENDBRANCH  24  29
ENDBRANCH  17  18
ENDBRANCH  10  17
BRANCH   7  31
HETATM   31  O4  UNL     1      11.081  18.773  18.683  1.00  0.00    -0.304 OA
BRANCH  31  32
HETATM   32  C17 UNL     1      11.597  18.364  19.882  1.00  0.00     0.255 C
HETATM   33  C18 UNL     1      12.242  17.060  20.167  1.00  0.00     0.126 C
HETATM   34  O5  UNL     1      11.526  19.155  20.860  1.00  0.00    -0.266 OA
ENDBRANCH  31  32
ENDBRANCH   7  31
BRANCH  16  35
HETATM   35  N1  UNL     1      13.863  22.291  13.568  1.00  0.00    -0.413 N
HETATM   36  C34 UNL     1      14.283  22.492  12.231  1.00  0.00     0.143 C
HETATM   37  C35 UNL     1      12.657  22.927  13.868  1.00  0.00     0.143 C
ENDBRANCH  16  35
BRANCH   2  38
HETATM   38  C6  UNL     1      16.487  20.676  17.397  1.00  0.00     0.041 C
BRANCH  38  39
HETATM   39  C7  UNL     1      16.547  21.502  18.591  1.00  0.00     0.046 C
BRANCH  39  40
HETATM   40  C8  UNL     1      17.944  22.164  18.792  1.00  0.00     0.074 C
HETATM   41  C9  UNL     1      18.556  22.243  17.367  1.00  0.00     0.050 C
BRANCH  40  42
HETATM   42  C10 UNL     1      17.790  23.585  19.186  1.00  0.00     0.000 C
HETATM   43  C11 UNL     1      16.832  24.369  18.766  1.00  0.00     0.010 C
ENDBRANCH  40  42
BRANCH  40  44
HETATM   44  O2  UNL     1      18.688  21.428  19.637  1.00  0.00    -0.381 OA
HETATM   45  C12 UNL     1      18.701  21.768  20.958  1.00  0.00     0.202 C
ENDBRANCH  40  44
ENDBRANCH  39  40
ENDBRANCH  38  39
ENDBRANCH   2  38
BRANCH   1  46
HETATM   46  O1  UNL     1      15.866  22.488  15.498  1.00  0.00    -0.376 OA
BRANCH  46  47
HETATM   47  C3  UNL     1      15.912  23.818  15.527  1.00  0.00     0.195 C
BRANCH  47  48
HETATM   48  C2  UNL     1      17.216  24.225  14.868  1.00  0.00    -0.011 C
HETATM   49  C1  UNL     1      17.928  25.266  15.219  1.00  0.00     0.009 C
ENDBRANCH  47  48
ENDBRANCH  46  47
ENDBRANCH   1  46
TORSDOF 16
ENDMDL