MODEL 2
REMARK VINA RESULT: -9.806737735      0.791      1.750
REMARK  14 active torsions:
REMARK  status: ('A' for Active; 'I' for Inactive)
REMARK    1  A    between atoms: O1_2  and  C2_3
REMARK    2  A    between atoms: C6_7  and  C7_8
REMARK    3  A    between atoms: C7_8  and  C8_9
REMARK    4  A    between atoms: C8_9  and  C9_10
REMARK       I    between atoms: N1_15  and  C12_16
REMARK    5  A    between atoms: C12_16  and  C13_18
REMARK    6  A    between atoms: C13_18  and  S1_19
REMARK    7  A    between atoms: S1_19  and  C14_20
REMARK    8  A    between atoms: C15_25  and  C16_26
REMARK    9  A    between atoms: C16_26  and  C17_27
REMARK   10  A    between atoms: C17_27  and  C18_28
REMARK   11  A    between atoms: C18_28  and  C19_29
REMARK   12  A    between atoms: C19_29  and  C20_30
REMARK   13  A    between atoms: C21_35  and  N6_36
REMARK       I    between atoms: N6_36  and  C22_38
REMARK   14  A    between atoms: C27_46  and  O6_47
ROOT
HETATM    1  C13 UNL     1      16.937  21.844  19.436  1.00  0.00     0.185 C
ENDROOT
BRANCH   1   2
HETATM    2  C12 UNL     1      17.673  22.117  18.190  1.00  0.00     0.229 C
HETATM    3  N1  UNL     1      18.121  23.360  17.727  1.00  0.00    -0.351 N
HETATM    4  C11 UNL     1      18.826  23.456  16.437  1.00  0.00     0.127 C
HETATM    5  C25 UNL     1      17.969  24.604  18.436  1.00  0.00     0.127 C
HETATM    6  C10 UNL     1      19.933  24.506  16.681  1.00  0.00     0.041 C
HETATM    7  C8  UNL     1      19.267  25.825  16.649  1.00  0.00     0.055 C
HETATM    8  C26 UNL     1      17.970  25.761  17.455  1.00  0.00     0.041 C
HETATM    9  O4  UNL     1      17.914  21.087  17.470  1.00  0.00    -0.273 OA
BRANCH   7  10
HETATM   10  C7  UNL     1      20.058  27.008  17.127  1.00  0.00     0.062 C
BRANCH  10  11
HETATM   11  C6  UNL     1      21.458  26.738  17.456  1.00  0.00    -0.022 A
HETATM   12  C5  UNL     1      22.417  27.029  16.472  1.00  0.00     0.019 A
HETATM   13  C3  UNL     1      23.726  26.747  16.739  1.00  0.00    -0.027 A
HETATM   14  C2  UNL     1      24.161  26.189  17.932  1.00  0.00     0.082 A
HETATM   15  C4  UNL     1      24.766  27.046  15.702  1.00  0.00     0.051 C
HETATM   16  C29 UNL     1      23.191  25.920  18.870  1.00  0.00     0.006 A
HETATM   17  C27 UNL     1      21.835  26.185  18.659  1.00  0.00     0.083 A
HETATM   18  C30 UNL     1      23.577  25.326  20.175  1.00  0.00     0.054 C
BRANCH  14  19
HETATM   19  O1  UNL     1      25.501  25.921  18.153  1.00  0.00    -0.355 OA
HETATM   20  C1  UNL     1      26.189  24.774  17.760  1.00  0.00     0.210 C
ENDBRANCH  14  19
BRANCH  17  21
HETATM   21  O6  UNL     1      20.942  25.879  19.676  1.00  0.00    -0.355 OA
HETATM   22  C28 UNL     1      20.704  26.892  20.652  1.00  0.00     0.210 C
ENDBRANCH  17  21
ENDBRANCH  10  11
ENDBRANCH   7  10
BRANCH   7  23
HETATM   23  C9  UNL     1      18.806  26.058  15.223  1.00  0.00     0.182 C
HETATM   24  O2  UNL     1      17.617  26.068  14.884  1.00  0.00    -0.647 OA
HETATM   25  O3  UNL     1      19.819  26.264  14.296  1.00  0.00    -0.647 OA
ENDBRANCH   7  23
ENDBRANCH   1   2
BRANCH   1  26
HETATM   26  S1  UNL     1      15.249  21.386  19.052  1.00  0.00    -0.083 SA
BRANCH  26  27
HETATM   27  C14 UNL     1      14.596  22.349  17.704  1.00  0.00     0.162 A
HETATM   28  N2  UNL     1      14.341  23.662  17.701  1.00  0.00    -0.278 N
HETATM   29  N3  UNL     1      13.898  23.978  16.505  1.00  0.00    -0.287 N
ATOM     30  H2  UNL     1      14.468  24.302  18.484  1.00  0.00     0.189 HD
HETATM   31  C15 UNL     1      13.853  22.876  15.694  1.00  0.00     0.099 A
ATOM     32  H3  UNL     1      13.624  24.917  16.219  1.00  0.00     0.188 HD
HETATM   33  N7  UNL     1      14.287  21.887  16.460  1.00  0.00    -0.319 N
HETATM   34  C24 UNL     1      14.416  20.482  16.121  1.00  0.00     0.159 C
BRANCH  31  35
HETATM   35  C16 UNL     1      13.371  22.910  14.294  1.00  0.00     0.078 C
BRANCH  35  36
HETATM   36  C17 UNL     1      12.022  22.307  14.126  1.00  0.00     0.008 C
BRANCH  36  37
HETATM   37  C18 UNL     1      11.915  20.887  13.748  1.00  0.00     0.007 C
BRANCH  37  38
HETATM   38  C19 UNL     1      10.564  20.330  14.034  1.00  0.00     0.066 C
BRANCH  38  39
HETATM   39  C20 UNL     1      10.726  19.410  15.227  1.00  0.00     0.069 A
HETATM   40  N4  UNL     1      11.052  18.125  15.222  1.00  0.00    -0.296 N
HETATM   41  N5  UNL     1      11.152  17.486  16.311  1.00  0.00    -0.279 N
ATOM     42  H4  UNL     1      11.224  17.650  14.337  1.00  0.00     0.187 HD
HETATM   43  C21 UNL     1      10.923  18.127  17.458  1.00  0.00     0.167 A
ATOM     44  H5  UNL     1      11.404  16.497  16.311  1.00  0.00     0.189 HD
HETATM   45  S2  UNL     1      10.553  19.705  16.901  1.00  0.00    -0.038 SA
BRANCH  43  46
HETATM   46  N6  UNL     1      10.982  17.651  18.679  1.00  0.00    -0.306 N
HETATM   47  C22 UNL     1      11.882  18.231  19.604  1.00  0.00     0.219 C
HETATM   48  C23 UNL     1      13.342  18.076  19.463  1.00  0.00     0.117 C
HETATM   49  O5  UNL     1      11.427  18.892  20.562  1.00  0.00    -0.274 OA
ATOM     50  H6  UNL     1      10.387  16.871  18.959  1.00  0.00     0.171 HD
ENDBRANCH  43  46
ENDBRANCH  38  39
ENDBRANCH  37  38
ENDBRANCH  36  37
ENDBRANCH  35  36
ENDBRANCH  31  35
ENDBRANCH  26  27
ENDBRANCH   1  26
TORSDOF 14
ENDMDL