MODEL 3
REMARK VINA RESULT: -9.563728544      1.377      8.041
REMARK  15 active torsions:
REMARK  status: ('A' for Active; 'I' for Inactive)
REMARK    1  A    between atoms: C2_2  and  C3_3
REMARK    2  A    between atoms: C3_3  and  C4_4
REMARK    3  A    between atoms: C4_4  and  C5_5
REMARK    4  A    between atoms: C5_5  and  C6_6
REMARK    5  A    between atoms: N1_9  and  C9_10
REMARK    6  A    between atoms: N3_24  and  C20_25
REMARK    7  A    between atoms: C20_25  and  C21_26
REMARK    8  A    between atoms: C21_26  and  O1_27
REMARK    9  A    between atoms: C21_26  and  C22_29
REMARK   10  A    between atoms: C22_29  and  N4_30
REMARK   11  A    between atoms: N5_37  and  C28_39
REMARK   12  A    between atoms: C28_39  and  C29_40
REMARK   13  A    between atoms: C29_40  and  C30_41
REMARK   14  A    between atoms: C30_41  and  N6_42
REMARK   15  A    between atoms: C35_48  and  O4_49
ROOT
HETATM    1  C1  UNL     1      18.518  23.994  15.729  1.00  0.00     0.030 C
HETATM    2  C2  UNL     1      17.593  25.179  16.111  1.00  0.00     0.042 C
HETATM    3  S1  UNL     1      15.925  24.389  16.180  1.00  0.00    -0.097 SA
HETATM    4  C17 UNL     1      16.080  23.179  17.458  1.00  0.00     0.103 A
HETATM    5  C18 UNL     1      17.114  23.280  18.355  1.00  0.00     0.092 A
HETATM    6  N2  UNL     1      16.998  22.244  19.213  1.00  0.00    -0.348 N
ATOM      7  H2  UNL     1      17.624  22.050  19.994  1.00  0.00     0.167 HD
HETATM    8  C19 UNL     1      15.913  21.498  18.868  1.00  0.00     0.184 A
HETATM    9  N3  UNL     1      15.384  22.107  17.791  1.00  0.00    -0.333 N
HETATM   10  C27 UNL     1      18.122  24.343  18.319  1.00  0.00     0.065 C
HETATM   11  N5  UNL     1      19.173  24.168  18.988  1.00  0.00    -0.389 N
ATOM     12  H5  UNL     1      19.183  23.276  19.481  1.00  0.00     0.159 HD
HETATM   13  C35 UNL     1      17.925  25.570  17.509  1.00  0.00     0.188 C
ENDROOT
BRANCH   2  14
HETATM   14  C3  UNL     1      17.738  26.174  15.054  1.00  0.00     0.023 C
BRANCH  14  15
HETATM   15  C4  UNL     1      18.986  26.332  14.301  1.00  0.00     0.002 C
BRANCH  15  16
HETATM   16  C5  UNL     1      19.659  27.649  14.494  1.00  0.00     0.005 C
BRANCH  16  17
HETATM   17  C6  UNL     1      21.146  27.561  14.106  1.00  0.00    -0.005 C
HETATM   18  C7  UNL     1      21.806  26.524  14.906  1.00  0.00     0.049 C
HETATM   19  C8  UNL     1      22.852  26.959  15.860  1.00  0.00     0.064 C
HETATM   20  N1  UNL     1      23.492  28.187  15.651  1.00  0.00    -0.369 N
HETATM   21  C15 UNL     1      22.763  29.247  15.100  1.00  0.00     0.064 C
HETATM   22  C16 UNL     1      21.784  28.891  14.045  1.00  0.00     0.049 C
BRANCH  20  23
HETATM   23  C9  UNL     1      24.872  28.310  15.870  1.00  0.00     0.088 C
HETATM   24  C10 UNL     1      25.570  29.308  14.977  1.00  0.00     0.026 C
HETATM   25  C11 UNL     1      26.927  29.578  15.600  1.00  0.00     0.002 C
HETATM   26  C12 UNL     1      27.721  28.276  15.460  1.00  0.00     0.000 C
HETATM   27  C13 UNL     1      27.009  27.178  16.231  1.00  0.00     0.002 C
HETATM   28  C14 UNL     1      25.627  26.987  15.643  1.00  0.00     0.026 C
ENDBRANCH  20  23
ENDBRANCH  16  17
ENDBRANCH  15  16
ENDBRANCH  14  15
ENDBRANCH   2  14
BRANCH  13  29
HETATM   29  O4  UNL     1      19.071  26.312  17.497  1.00  0.00    -0.388 OA
ATOM     30  H4  UNL     1      19.087  26.861  18.272  1.00  0.00     0.210 HD
ENDBRANCH  13  29
BRANCH   9  31
HETATM   31  C20 UNL     1      14.201  21.618  17.098  1.00  0.00     0.167 C
BRANCH  31  32
HETATM   32  C21 UNL     1      14.409  20.247  16.547  1.00  0.00     0.174 C
BRANCH  32  33
HETATM   33  O1  UNL     1      13.887  20.088  15.271  1.00  0.00    -0.389 OA
ATOM     34  H1  UNL     1      13.054  20.527  15.151  1.00  0.00     0.210 HD
ENDBRANCH  32  33
BRANCH  32  35
HETATM   35  C22 UNL     1      13.994  19.167  17.478  1.00  0.00     0.091 C
BRANCH  35  36
HETATM   36  N4  UNL     1      12.953  19.372  18.366  1.00  0.00    -0.387 N
HETATM   37  C23 UNL     1      13.083  19.393  19.746  1.00  0.00     0.148 C
HETATM   38  C24 UNL     1      12.156  18.413  20.468  1.00  0.00     0.187 C
HETATM   39  O2  UNL     1      10.868  18.469  19.992  1.00  0.00    -0.388 OA
HETATM   40  C25 UNL     1      10.822  18.262  18.596  1.00  0.00     0.187 C
HETATM   41  C26 UNL     1      11.617  19.366  17.898  1.00  0.00     0.148 C
ENDBRANCH  35  36
ENDBRANCH  32  35
ENDBRANCH  31  32
ENDBRANCH   9  31
BRANCH  11  42
HETATM   42  C28 UNL     1      20.335  24.923  19.209  1.00  0.00     0.121 C
BRANCH  42  43
HETATM   43  C29 UNL     1      20.345  25.352  20.682  1.00  0.00     0.050 C
BRANCH  43  44
HETATM   44  C30 UNL     1      21.412  26.406  20.939  1.00  0.00     0.274 C
BRANCH  44  45
HETATM   45  N6  UNL     1      22.536  26.097  20.095  1.00  0.00     0.092 N
HETATM   46  C31 UNL     1      23.443  25.239  20.806  1.00  0.00     0.298 C
HETATM   47  C32 UNL     1      24.585  24.780  19.915  1.00  0.00     0.198 C
HETATM   48  O3  UNL     1      24.738  25.669  18.844  1.00  0.00    -0.388 OA
HETATM   49  C33 UNL     1      24.635  26.963  19.312  1.00  0.00     0.198 C
HETATM   50  C34 UNL     1      23.152  27.266  19.541  1.00  0.00     0.298 C
ENDBRANCH  44  45
ENDBRANCH  43  44
ENDBRANCH  42  43
ENDBRANCH  11  42
TORSDOF 15
ENDMDL