MODEL 1
REMARK VINA RESULT: -9.524332260      0.000      0.000
REMARK  14 active torsions:
REMARK  status: ('A' for Active; 'I' for Inactive)
REMARK    1  A    between atoms: C2_2  and  C3_3
REMARK    2  A    between atoms: C5_5  and  O1_6
REMARK    3  A    between atoms: C5_5  and  C6_8
REMARK    4  A    between atoms: C6_8  and  N1_9
REMARK    5  A    between atoms: C14_18  and  N3_19
REMARK    6  A    between atoms: N3_19  and  C15_21
REMARK    7  A    between atoms: C15_21  and  C16_22
REMARK    8  A    between atoms: C16_22  and  O2_23
REMARK    9  A    between atoms: O2_23  and  C17_24
REMARK   10  A    between atoms: N5_32  and  C23_33
REMARK   11  A    between atoms: C24_36  and  C25_37
REMARK   12  A    between atoms: C25_37  and  C26_38
REMARK   13  A    between atoms: N7_40  and  C28_41
REMARK   14  A    between atoms: C28_41  and  C29_42
ROOT
HETATM    1  C17 UNL     1      14.005  19.921  19.132  1.00  0.00     0.142 A
HETATM    2  C18 UNL     1      14.200  19.131  18.032  1.00  0.00     0.057 A
HETATM    3  C19 UNL     1      14.648  19.678  16.837  1.00  0.00     0.013 A
HETATM    4  C20 UNL     1      14.887  21.043  16.810  1.00  0.00    -0.032 A
HETATM    5  C21 UNL     1      14.686  21.836  17.939  1.00  0.00     0.036 A
HETATM    6  N4  UNL     1      14.250  21.238  19.060  1.00  0.00    -0.339 N
ATOM      7  H4  UNL     1      14.099  21.810  19.891  1.00  0.00     0.168 HD
HETATM    8  C22 UNL     1      14.963  23.300  17.945  1.00  0.00     0.199 C
HETATM    9  N5  UNL     1      15.513  23.699  16.669  1.00  0.00    -0.212 N
HETATM   10  C36 UNL     1      14.849  23.089  15.502  1.00  0.00     0.146 C
HETATM   11  C37 UNL     1      15.341  21.633  15.525  1.00  0.00     0.061 C
ENDROOT
BRANCH   1  12
HETATM   12  O2  UNL     1      13.551  19.316  20.319  1.00  0.00    -0.331 OA
BRANCH  12  13
HETATM   13  C16 UNL     1      12.754  18.184  20.129  1.00  0.00     0.221 C
BRANCH  13  14
HETATM   14  C15 UNL     1      11.296  18.422  19.923  1.00  0.00     0.082 C
BRANCH  14  15
HETATM   15  N3  UNL     1      10.719  17.662  18.926  1.00  0.00    -0.395 N
ATOM     16  H3  UNL     1       9.878  17.138  19.170  1.00  0.00     0.159 HD
BRANCH  15  17
HETATM   17  C14 UNL     1      11.185  17.546  17.609  1.00  0.00     0.088 C
HETATM   18  C3  UNL     1      10.945  16.225  17.007  1.00  0.00     0.033 C
HETATM   19  C4  UNL     1      10.848  16.170  15.496  1.00  0.00     0.050 C
HETATM   20  C5  UNL     1      10.027  17.310  15.008  1.00  0.00     0.085 C
HETATM   21  C12 UNL     1      10.826  18.554  15.329  1.00  0.00     0.041 C
HETATM   22  C13 UNL     1      10.639  18.738  16.835  1.00  0.00     0.029 C
BRANCH  18  23
HETATM   23  C2  UNL     1       9.867  15.381  17.580  1.00  0.00    -0.030 C
HETATM   24  C1  UNL     1       9.729  14.076  17.346  1.00  0.00     0.007 C
ENDBRANCH  18  23
BRANCH  20  25
HETATM   25  O1  UNL     1       8.891  17.412  15.901  1.00  0.00    -0.388 OA
ATOM     26  H1  UNL     1       8.224  16.830  15.557  1.00  0.00     0.210 HD
ENDBRANCH  20  25
BRANCH  20  27
HETATM   27  C6  UNL     1       9.470  17.170  13.657  1.00  0.00     0.310 C
BRANCH  27  28
HETATM   28  N1  UNL     1       9.640  18.141  12.659  1.00  0.00     0.094 N
HETATM   29  C7  UNL     1      10.729  17.655  11.781  1.00  0.00     0.302 C
HETATM   30  C8  UNL     1      10.354  17.632  10.340  1.00  0.00     0.302 C
HETATM   31  N2  UNL     1       9.093  17.031  10.032  1.00  0.00     0.087 N
HETATM   32  C9  UNL     1       9.141  15.656   9.651  1.00  0.00     0.310 C
HETATM   33  C10 UNL     1       8.075  17.338  11.022  1.00  0.00     0.302 C
HETATM   34  C11 UNL     1       8.525  18.523  11.858  1.00  0.00     0.302 C
ENDBRANCH  27  28
ENDBRANCH  20  27
ENDBRANCH  15  17
ENDBRANCH  14  15
ENDBRANCH  13  14
ENDBRANCH  12  13
ENDBRANCH   1  12
BRANCH   9  35
HETATM   35  C23 UNL     1      16.619  24.573  16.491  1.00  0.00     0.686 A
HETATM   36  N6  UNL     1      17.618  24.649  17.368  1.00  0.00    -0.180 N
HETATM   37  C24 UNL     1      18.676  25.506  17.189  1.00  0.00     0.103 A
ATOM     38  H6  UNL     1      17.597  24.054  18.197  1.00  0.00     0.185 HD
HETATM   39  N7  UNL     1      18.771  26.315  16.121  1.00  0.00    -0.287 N
HETATM   40  C35 UNL     1      17.733  26.228  15.230  1.00  0.00     0.342 A
HETATM   41  O3  UNL     1      17.787  26.985  14.226  1.00  0.00    -0.246 OA
HETATM   42  N8  UNL     1      16.707  25.386  15.421  1.00  0.00    -0.141 N
ATOM     43  H8  UNL     1      15.961  25.360  14.725  1.00  0.00     0.189 HD
BRANCH  37  44
HETATM   44  C25 UNL     1      19.698  25.458  18.242  1.00  0.00     0.077 C
BRANCH  44  45
HETATM   45  C26 UNL     1      19.458  24.433  19.301  1.00  0.00     0.003 C
HETATM   46  C27 UNL     1      19.814  24.791  20.688  1.00  0.00     0.005 C
ENDBRANCH  44  45
ENDBRANCH  37  44
BRANCH  39  47
HETATM   47  C28 UNL     1      19.897  27.158  15.886  1.00  0.00     0.139 C
BRANCH  47  48
HETATM   48  C29 UNL     1      20.630  27.001  14.607  1.00  0.00     0.004 C
HETATM   49  C30 UNL     1      21.807  26.055  14.894  1.00  0.00     0.006 C
HETATM   50  C31 UNL     1      22.851  26.706  15.738  1.00  0.00     0.000 C
HETATM   51  C32 UNL     1      23.032  28.173  15.518  1.00  0.00     0.000 C
HETATM   52  C33 UNL     1      22.502  28.654  14.206  1.00  0.00     0.000 C
HETATM   53  C34 UNL     1      21.110  28.193  13.878  1.00  0.00     0.006 C
ENDBRANCH  47  48
ENDBRANCH  39  47
ENDBRANCH   9  35
TORSDOF 14
ENDMDL