MODEL 1
REMARK VINA RESULT: -7.622805808      0.000      0.000
REMARK  16 active torsions:
REMARK  status: ('A' for Active; 'I' for Inactive)
REMARK    1  A    between atoms: O1_2  and  C2_3
REMARK    2  A    between atoms: C2_3  and  C3_5
REMARK    3  A    between atoms: C3_5  and  N1_6
REMARK    4  A    between atoms: C6_9  and  C7_10
REMARK    5  A    between atoms: C7_10  and  C8_11
REMARK    6  A    between atoms: C8_11  and  C9_12
REMARK       I    between atoms: N2_13  and  C10_15
REMARK    7  A    between atoms: C10_15  and  C11_17
REMARK    8  A    between atoms: C14_21  and  C15_22
REMARK    9  A    between atoms: C16_25  and  S1_26
REMARK   10  A    between atoms: S1_26  and  C17_27
REMARK   11  A    between atoms: C19_29  and  C20_30
REMARK   12  A    between atoms: C20_30  and  O7_32
REMARK   13  A    between atoms: O7_32  and  C21_33
REMARK   14  A    between atoms: C25_37  and  O8_38
REMARK   15  A    between atoms: C27_40  and  C28_41
REMARK   16  A    between atoms: C28_41  and  C29_42
ROOT
HETATM    1  C11 UNL     1      15.853  22.294  16.389  1.00  0.00     0.124 C
HETATM    2  C12 UNL     1      16.057  21.568  17.718  1.00  0.00     0.096 C
HETATM    3  C13 UNL     1      16.697  20.212  17.557  1.00  0.00     0.033 C
HETATM    4  N3  UNL     1      17.018  22.572  18.067  1.00  0.00    -0.363 N
HETATM    5  C14 UNL     1      17.894  23.515  18.715  1.00  0.00     0.122 C
HETATM    6  C16 UNL     1      18.310  24.441  17.827  1.00  0.00     0.018 C
HETATM    7  C27 UNL     1      17.545  24.222  16.569  1.00  0.00     0.052 C
HETATM    8  C30 UNL     1      17.271  22.718  16.619  1.00  0.00     0.109 C
ENDROOT
BRANCH   1   9
HETATM    9  C10 UNL     1      14.859  23.366  16.518  1.00  0.00     0.229 C
HETATM   10  N2  UNL     1      14.565  24.108  15.329  1.00  0.00    -0.340 N
HETATM   11  C9  UNL     1      13.472  23.890  14.659  1.00  0.00     0.064 C
ATOM     12  H2  UNL     1      15.221  24.818  15.004  1.00  0.00     0.167 HD
HETATM   13  O3  UNL     1      14.252  23.687  17.562  1.00  0.00    -0.273 OA
BRANCH  11  14
HETATM   14  C8  UNL     1      12.480  22.880  15.072  1.00  0.00     0.045 C
BRANCH  14  15
HETATM   15  C7  UNL     1      12.568  21.702  14.138  1.00  0.00     0.010 C
BRANCH  15  16
HETATM   16  C6  UNL     1      11.887  20.475  14.708  1.00  0.00    -0.011 C
HETATM   17  C5  UNL     1      12.157  20.325  16.184  1.00  0.00     0.035 C
HETATM   18  C4  UNL     1      11.598  19.015  16.655  1.00  0.00     0.273 C
HETATM   19  N1  UNL     1      10.211  18.791  16.243  1.00  0.00     0.097 N
HETATM   20  C32 UNL     1       9.669  19.996  15.660  1.00  0.00     0.273 C
HETATM   21  C31 UNL     1      10.422  20.428  14.404  1.00  0.00     0.035 C
BRANCH  19  22
HETATM   22  C3  UNL     1      10.118  17.649  15.382  1.00  0.00     0.382 C
BRANCH  22  23
HETATM   23  C2  UNL     1      10.331  16.347  15.992  1.00  0.00     0.286 C
HETATM   24  O2  UNL     1      10.953  15.471  15.310  1.00  0.00    -0.263 OA
BRANCH  23  25
HETATM   25  O1  UNL     1       9.927  15.976  17.240  1.00  0.00    -0.325 OA
HETATM   26  C1  UNL     1       9.732  14.630  17.643  1.00  0.00     0.213 C
ENDBRANCH  23  25
ENDBRANCH  22  23
ENDBRANCH  19  22
ENDBRANCH  15  16
ENDBRANCH  14  15
ENDBRANCH  11  14
ENDBRANCH   1   9
BRANCH   7  27
HETATM   27  C28 UNL     1      18.166  24.520  15.286  1.00  0.00     0.023 C
BRANCH  27  28
HETATM   28  C29 UNL     1      17.942  25.852  14.650  1.00  0.00     0.087 C
HETATM   29  S2  UNL     1      19.603  26.605  14.414  1.00  0.00    -0.098 SA
ENDBRANCH  27  28
ENDBRANCH   7  27
BRANCH   5  30
HETATM   30  C15 UNL     1      18.112  23.453  20.141  1.00  0.00     0.227 C
HETATM   31  O4  UNL     1      18.049  24.435  20.886  1.00  0.00    -0.643 OA
HETATM   32  O5  UNL     1      18.416  22.204  20.737  1.00  0.00    -0.643 OA
ENDBRANCH   5  30
BRANCH   6  33
HETATM   33  S1  UNL     1      19.404  25.797  18.118  1.00  0.00    -0.124 SA
BRANCH  33  34
HETATM   34  C17 UNL     1      20.964  25.271  18.742  1.00  0.00     0.083 C
HETATM   35  C18 UNL     1      21.414  25.841  20.102  1.00  0.00     0.035 C
HETATM   36  C19 UNL     1      22.802  25.620  19.538  1.00  0.00     0.117 C
HETATM   37  C25 UNL     1      22.173  26.118  18.221  1.00  0.00     0.148 C
BRANCH  36  38
HETATM   38  C20 UNL     1      23.871  26.431  20.090  1.00  0.00     0.266 C
HETATM   39  O6  UNL     1      24.936  26.594  19.441  1.00  0.00    -0.265 OA
BRANCH  38  40
HETATM   40  O7  UNL     1      23.747  27.029  21.311  1.00  0.00    -0.311 OA
BRANCH  40  41
HETATM   41  C21 UNL     1      24.172  26.488  22.538  1.00  0.00     0.060 C
HETATM   42  C22 UNL     1      25.587  26.936  22.884  1.00  0.00     0.045 C
HETATM   43  C23 UNL     1      24.105  24.979  22.568  1.00  0.00     0.045 C
HETATM   44  C24 UNL     1      23.266  27.016  23.627  1.00  0.00     0.045 C
ENDBRANCH  40  41
ENDBRANCH  38  40
ENDBRANCH  36  38
BRANCH  37  45
HETATM   45  O8  UNL     1      21.804  27.446  18.270  1.00  0.00    -0.389 OA
HETATM   46  C26 UNL     1      22.167  28.151  17.136  1.00  0.00     0.202 C
ENDBRANCH  37  45
ENDBRANCH  33  34
ENDBRANCH   6  33
TORSDOF 16
ENDMDL