MODEL 5
REMARK VINA RESULT: -9.448136070      1.428      3.053
REMARK  12 active torsions:
REMARK  status: ('A' for Active; 'I' for Inactive)
REMARK       I    between atoms: C1_2  and  N1_3
REMARK    1  A    between atoms: C1_2  and  C19_31
REMARK    2  A    between atoms: N1_3  and  C2_5
REMARK    3  A    between atoms: N2_8  and  C5_9
REMARK    4  A    between atoms: C5_9  and  C6_10
REMARK    5  A    between atoms: C6_10  and  C7_11
REMARK    6  A    between atoms: C7_11  and  N3_12
REMARK    7  A    between atoms: N3_12  and  C8_15
REMARK    8  A    between atoms: C8_15  and  C9_16
REMARK    9  A    between atoms: C11_18  and  N4_19
REMARK   10  A    between atoms: C21_35  and  N6_36
REMARK   11  A    between atoms: C26_44  and  O5_45
REMARK   12  A    between atoms: O5_45  and  C27_46
ROOT
HETATM    1  C2  UNL     1      18.232  24.335  15.155  1.00  0.00     0.088 C
HETATM    2  C3  UNL     1      17.563  25.702  15.203  1.00  0.00     0.055 C
HETATM    3  C4  UNL     1      18.302  26.579  14.195  1.00  0.00     0.274 C
HETATM    4  N2  UNL     1      19.712  26.561  14.369  1.00  0.00     0.088 N
HETATM    5  C17 UNL     1      20.193  25.846  15.488  1.00  0.00     0.274 C
HETATM    6  C18 UNL     1      19.662  24.425  15.591  1.00  0.00     0.055 C
ENDROOT
BRANCH   1   7
HETATM    7  N1  UNL     1      17.540  23.345  15.938  1.00  0.00    -0.352 N
HETATM    8  C1  UNL     1      16.533  22.546  15.427  1.00  0.00     0.257 C
HETATM    9  O1  UNL     1      16.240  22.745  14.183  1.00  0.00    -0.267 OA
ATOM     10  H1  UNL     1      17.804  23.228  16.915  1.00  0.00     0.163 HD
BRANCH   8  11
HETATM   11  C19 UNL     1      15.781  21.518  16.136  1.00  0.00     0.099 A
HETATM   12  C20 UNL     1      14.515  21.152  15.648  1.00  0.00     0.127 A
HETATM   13  N5  UNL     1      13.769  20.214  16.243  1.00  0.00    -0.201 N
HETATM   14  C21 UNL     1      14.183  19.564  17.345  1.00  0.00     0.682 A
ATOM     15  H5  UNL     1      12.857  19.986  15.849  1.00  0.00     0.183 HD
HETATM   16  N7  UNL     1      15.391  19.906  17.819  1.00  0.00    -0.169 N
HETATM   17  C26 UNL     1      16.184  20.849  17.253  1.00  0.00     0.175 A
ATOM     18  H7  UNL     1      15.732  19.430  18.654  1.00  0.00     0.186 HD
BRANCH  14  19
HETATM   19  N6  UNL     1      13.384  18.567  17.968  1.00  0.00    -0.214 N
HETATM   20  C22 UNL     1      12.044  18.307  17.513  1.00  0.00     0.167 C
HETATM   21  C23 UNL     1      11.090  17.966  18.634  1.00  0.00     0.188 C
HETATM   22  O4  UNL     1      11.669  17.173  19.598  1.00  0.00    -0.388 OA
HETATM   23  C24 UNL     1      12.797  17.768  20.122  1.00  0.00     0.188 C
HETATM   24  C25 UNL     1      13.914  17.804  19.069  1.00  0.00     0.167 C
ENDBRANCH  14  19
BRANCH  17  25
HETATM   25  O5  UNL     1      17.407  21.115  17.832  1.00  0.00    -0.329 OA
BRANCH  25  26
HETATM   26  C27 UNL     1      17.505  21.651  19.105  1.00  0.00     0.130 C
HETATM   27  C28 UNL     1      18.899  21.588  19.688  1.00  0.00     0.032 C
HETATM   28  C29 UNL     1      18.725  22.442  20.942  1.00  0.00     0.002 C
HETATM   29  C30 UNL     1      17.724  23.489  20.557  1.00  0.00     0.002 C
HETATM   30  C31 UNL     1      17.204  23.129  19.181  1.00  0.00     0.032 C
ENDBRANCH  25  26
ENDBRANCH  17  25
ENDBRANCH   8  11
ENDBRANCH   1   7
BRANCH   4  31
HETATM   31  C5  UNL     1      20.190  27.916  14.352  1.00  0.00     0.274 C
BRANCH  31  32
HETATM   32  C6  UNL     1      21.677  27.920  14.122  1.00  0.00     0.057 C
BRANCH  32  33
HETATM   33  C7  UNL     1      22.212  29.350  13.919  1.00  0.00     0.234 C
BRANCH  33  34
HETATM   34  N3  UNL     1      22.761  29.891  15.121  1.00  0.00    -0.071 N
ATOM     35  H32 UNL     1      22.608  30.898  15.173  1.00  0.00     0.277 HD
ATOM     36  H31 UNL     1      22.219  29.600  15.935  1.00  0.00     0.277 HD
BRANCH  34  37
HETATM   37  C8  UNL     1      24.166  29.568  15.288  1.00  0.00     0.278 C
BRANCH  37  38
HETATM   38  C9  UNL     1      24.318  28.385  16.214  1.00  0.00     0.010 A
HETATM   39  C10 UNL     1      23.425  27.957  17.161  1.00  0.00     0.047 A
HETATM   40  C11 UNL     1      23.766  26.871  17.877  1.00  0.00     0.052 A
HETATM   41  C16 UNL     1      24.972  26.290  17.600  1.00  0.00     0.080 A
HETATM   42  S2  UNL     1      25.596  27.270  16.351  1.00  0.00    -0.102 SA
BRANCH  40  43
HETATM   43  N4  UNL     1      22.912  26.315  18.905  1.00  0.00    -0.275 N
HETATM   44  C12 UNL     1      21.948  25.282  18.624  1.00  0.00     0.142 C
HETATM   45  C13 UNL     1      20.853  25.332  19.663  1.00  0.00     0.022 C
HETATM   46  C14 UNL     1      21.341  24.838  20.993  1.00  0.00     0.018 C
HETATM   47  C15 UNL     1      22.385  25.714  21.612  1.00  0.00     0.163 C
HETATM   48  S1  UNL     1      23.059  26.910  20.509  1.00  0.00     0.233 S
HETATM   49  O2  UNL     1      24.504  27.138  20.887  1.00  0.00    -0.205 OA
HETATM   50  O3  UNL     1      22.361  28.241  20.665  1.00  0.00    -0.205 OA
ENDBRANCH  40  43
ENDBRANCH  37  38
ENDBRANCH  34  37
ENDBRANCH  33  34
ENDBRANCH  32  33
ENDBRANCH  31  32
ENDBRANCH   4  31
TORSDOF 12
ENDMDL