MODEL 4
REMARK VINA RESULT: -7.069339117      0.929      1.171
REMARK  10 active torsions:
REMARK  status: ('A' for Active; 'I' for Inactive)
REMARK    1  A    between atoms: C2_2  and  C3_3
REMARK    2  A    between atoms: C3_3  and  C4_4
REMARK    3  A    between atoms: C4_4  and  C5_5
REMARK    4  A    between atoms: C5_5  and  C6_6
REMARK    5  A    between atoms: C6_6  and  C7_7
REMARK    6  A    between atoms: C7_7  and  C8_8
REMARK       I    between atoms: C8_8  and  N1_10
REMARK    7  A    between atoms: C10_12  and  C11_13
REMARK       I    between atoms: C11_13  and  N2_15
REMARK       I    between atoms: N2_15  and  C12_17
REMARK    8  A    between atoms: C12_17  and  C13_19
REMARK    9  A    between atoms: C13_19  and  C16_22
REMARK   10  A    between atoms: C26_33  and  C27_34
ROOT
HETATM    1  C8  UNL     1      -7.409  19.208   0.715  1.00  0.00     0.220 C
HETATM    2  O1  UNL     1      -7.909  18.613   1.705  1.00  0.00    -0.273 OA
HETATM    3  N1  UNL     1      -7.533  18.674  -0.593  1.00  0.00    -0.346 N
HETATM    4  C9  UNL     1      -7.021  19.499  -1.663  1.00  0.00     0.141 C
HETATM    5  C10 UNL     1      -8.067  20.166  -2.506  1.00  0.00     0.113 C
HETATM    6  C18 UNL     1      -9.450  19.804  -2.362  1.00  0.00     0.050 A
HETATM    7  C19 UNL     1     -10.429  20.555  -1.460  1.00  0.00     0.143 A
HETATM    8  O4  UNL     1     -10.728  20.725  -0.292  1.00  0.00    -0.297 OA
HETATM    9  C20 UNL     1     -10.500  20.708  -2.906  1.00  0.00     0.081 A
HETATM   10  C21 UNL     1     -11.406  19.850  -3.748  1.00  0.00    -0.036 C
HETATM   11  C22 UNL     1     -12.866  20.207  -3.549  1.00  0.00     0.015 C
HETATM   12  C23 UNL     1     -11.081  20.158  -5.198  1.00  0.00     0.015 C
HETATM   13  C24 UNL     1     -11.111  18.428  -3.431  1.00  0.00     0.016 C
HETATM   14  C25 UNL     1      -9.890  18.400  -2.545  1.00  0.00     0.018 C
HETATM   15  C26 UNL     1      -8.850  17.436  -3.000  1.00  0.00     0.098 C
HETATM   16  C28 UNL     1      -8.274  16.673  -1.869  1.00  0.00     0.023 C
HETATM   17  C29 UNL     1      -6.934  16.051  -2.179  1.00  0.00     0.007 C
HETATM   18  C30 UNL     1      -6.255  15.953  -0.841  1.00  0.00     0.002 C
HETATM   19  C31 UNL     1      -7.313  16.325   0.182  1.00  0.00     0.026 C
HETATM   20  C32 UNL     1      -8.128  17.372  -0.554  1.00  0.00     0.092 C
ENDROOT
BRANCH   5  21
HETATM   21  C11 UNL     1      -7.873  21.626  -2.394  1.00  0.00     0.231 C
HETATM   22  O2  UNL     1      -7.805  22.115  -1.205  1.00  0.00    -0.273 OA
HETATM   23  N2  UNL     1      -7.748  22.568  -3.431  1.00  0.00    -0.297 N
HETATM   24  C12 UNL     1      -7.769  22.391  -4.808  1.00  0.00     0.232 C
ATOM     25  H2  UNL     1      -7.621  23.532  -3.123  1.00  0.00     0.171 HD
HETATM   26  O3  UNL     1      -7.925  21.264  -5.316  1.00  0.00    -0.272 OA
BRANCH  24  27
HETATM   27  C13 UNL     1      -7.608  23.529  -5.747  1.00  0.00     0.034 C
HETATM   28  C14 UNL     1      -8.860  24.338  -5.894  1.00  0.00     0.025 C
HETATM   29  C15 UNL     1      -7.115  22.957  -7.065  1.00  0.00     0.025 C
BRANCH  27  30
HETATM   30  C16 UNL     1      -6.501  24.469  -5.251  1.00  0.00     0.014 C
HETATM   31  C17 UNL     1      -7.094  25.851  -5.161  1.00  0.00     0.006 C
ENDBRANCH  27  30
ENDBRANCH  24  27
ENDBRANCH   5  21
BRANCH   1  32
HETATM   32  C7  UNL     1      -6.695  20.474   1.005  1.00  0.00     0.103 C
BRANCH  32  33
HETATM   33  C6  UNL     1      -5.263  20.146   1.400  1.00  0.00     0.009 C
BRANCH  33  34
HETATM   34  C5  UNL     1      -5.136  18.766   1.977  1.00  0.00     0.000 C
BRANCH  34  35
HETATM   35  C4  UNL     1      -3.729  18.289   1.949  1.00  0.00     0.000 C
BRANCH  35  36
HETATM   36  C3  UNL     1      -3.598  16.797   2.124  1.00  0.00    -0.000 C
BRANCH  36  37
HETATM   37  C2  UNL     1      -2.902  16.090   1.013  1.00  0.00    -0.005 C
HETATM   38  C1  UNL     1      -1.646  16.754   0.546  1.00  0.00     0.005 C
ENDBRANCH  36  37
ENDBRANCH  35  36
ENDBRANCH  34  35
ENDBRANCH  33  34
ENDBRANCH  32  33
ENDBRANCH   1  32
BRANCH  15  39
HETATM   39  C27 UNL     1      -9.443  16.403  -3.910  1.00  0.00     0.177 C
HETATM   40  O5  UNL     1      -9.291  16.380  -5.137  1.00  0.00    -0.648 OA
HETATM   41  O6  UNL     1     -10.211  15.411  -3.323  1.00  0.00    -0.648 OA
ENDBRANCH  15  39
TORSDOF 10
ENDMDL