MODEL 5
REMARK VINA RESULT: -8.209547145      1.793      2.360
REMARK  10 active torsions:
REMARK  status: ('A' for Active; 'I' for Inactive)
REMARK       I    between atoms: C1_2  and  N1_3
REMARK    1  A    between atoms: C1_2  and  C9_13
REMARK    2  A    between atoms: N1_3  and  C2_5
REMARK    3  A    between atoms: C2_5  and  C3_6
REMARK    4  A    between atoms: C3_6  and  N2_7
REMARK    5  A    between atoms: C9_13  and  C10_14
REMARK    6  A    between atoms: C9_13  and  C16_20
REMARK    7  A    between atoms: C10_14  and  C11_15
REMARK       I    between atoms: C16_20  and  N3_22
REMARK    8  A    between atoms: N3_22  and  C17_24
REMARK       I    between atoms: N4_32  and  C25_33
REMARK    9  A    between atoms: C25_33  and  C26_35
REMARK   10  A    between atoms: C26_35  and  C27_36
ROOT
HETATM    1  C16 UNL     1      -6.148  17.376   0.210  1.00  0.00     0.235 C
HETATM    2  O2  UNL     1      -6.528  16.249   0.558  1.00  0.00    -0.272 OA
HETATM    3  N3  UNL     1      -6.140  17.827  -1.115  1.00  0.00    -0.326 N
ATOM      4  H3  UNL     1      -5.795  18.777  -1.259  1.00  0.00     0.169 HD
ENDROOT
BRANCH   1   5
HETATM    5  C9  UNL     1      -5.677  18.268   1.335  1.00  0.00     0.170 C
BRANCH   5   6
HETATM    6  C1  UNL     1      -4.275  17.882   1.595  1.00  0.00     0.231 C
HETATM    7  O1  UNL     1      -3.594  18.551   2.395  1.00  0.00    -0.273 OA
HETATM    8  N1  UNL     1      -3.657  16.772   0.971  1.00  0.00    -0.359 N
ATOM      9  H1  UNL     1      -4.192  16.206   0.314  1.00  0.00     0.162 HD
BRANCH   8  10
HETATM   10  C2  UNL     1      -2.289  16.427   1.247  1.00  0.00     0.142 C
BRANCH  10  11
HETATM   11  C3  UNL     1      -2.223  15.037   1.783  1.00  0.00     0.141 C
BRANCH  11  12
HETATM   12  N2  UNL     1      -2.119  14.938   3.193  1.00  0.00    -0.392 N
HETATM   13  C4  UNL     1      -3.272  15.299   3.932  1.00  0.00     0.122 C
HETATM   14  C5  UNL     1      -4.030  14.169   4.547  1.00  0.00     0.020 C
HETATM   15  C6  UNL     1      -3.151  13.123   5.156  1.00  0.00     0.007 C
HETATM   16  C7  UNL     1      -1.989  12.734   4.271  1.00  0.00     0.044 C
HETATM   17  C8  UNL     1      -1.274  13.942   3.722  1.00  0.00     0.058 C
ENDBRANCH  11  12
ENDBRANCH  10  11
ENDBRANCH   8  10
ENDBRANCH   5   6
BRANCH   5  18
HETATM   18  C10 UNL     1      -5.824  19.670   0.888  1.00  0.00     0.028 C
BRANCH  18  19
HETATM   19  C11 UNL     1      -6.784  20.530   1.622  1.00  0.00    -0.013 C
HETATM   20  C12 UNL     1      -6.975  21.821   0.821  1.00  0.00     0.005 C
HETATM   21  C13 UNL     1      -7.760  21.316  -0.367  1.00  0.00     0.000 C
HETATM   22  C14 UNL     1      -8.529  20.114   0.127  1.00  0.00     0.000 C
HETATM   23  C15 UNL     1      -8.202  20.001   1.610  1.00  0.00     0.005 C
ENDBRANCH  18  19
ENDBRANCH   5  18
ENDBRANCH   1   5
BRANCH   3  24
HETATM   24  C17 UNL     1      -6.546  17.140  -2.282  1.00  0.00     0.035 A
HETATM   25  C18 UNL     1      -7.346  16.021  -2.304  1.00  0.00     0.030 A
HETATM   26  C19 UNL     1      -7.688  15.374  -3.497  1.00  0.00     0.011 A
HETATM   27  C20 UNL     1      -7.241  15.829  -4.710  1.00  0.00    -0.034 A
HETATM   28  C21 UNL     1      -6.440  16.949  -4.688  1.00  0.00    -0.046 A
HETATM   29  C33 UNL     1      -7.632  15.119  -5.931  1.00  0.00     0.164 C
HETATM   30  C22 UNL     1      -6.095  17.593  -3.537  1.00  0.00     0.037 A
HETATM   31  C23 UNL     1      -5.936  17.450  -5.996  1.00  0.00     0.059 C
HETATM   32  C24 UNL     1      -5.525  16.200  -6.781  1.00  0.00     0.130 C
HETATM   33  N4  UNL     1      -6.733  15.443  -7.023  1.00  0.00    -0.348 N
HETATM   34  C25 UNL     1      -7.063  14.993  -8.353  1.00  0.00     0.220 C
HETATM   35  O3  UNL     1      -6.232  15.296  -9.258  1.00  0.00    -0.273 OA
BRANCH  34  36
HETATM   36  C26 UNL     1      -8.302  14.232  -8.606  1.00  0.00     0.107 C
BRANCH  36  37
HETATM   37  C27 UNL     1      -9.198  14.826  -9.640  1.00  0.00    -0.006 C
HETATM   38  C28 UNL     1      -9.412  13.977 -10.846  1.00  0.00     0.005 C
HETATM   39  C29 UNL     1      -9.978  12.622 -10.465  1.00  0.00     0.000 C
HETATM   40  C30 UNL     1     -11.142  12.798  -9.541  1.00  0.00     0.000 C
HETATM   41  C31 UNL     1     -11.629  14.218  -9.489  1.00  0.00     0.000 C
HETATM   42  C32 UNL     1     -10.552  15.198  -9.085  1.00  0.00     0.005 C
ENDBRANCH  36  37
ENDBRANCH  34  36
ENDBRANCH   3  24
TORSDOF 10
ENDMDL