MODEL 3
REMARK VINA RESULT: -6.865486149      2.210      3.764
REMARK  11 active torsions:
REMARK  status: ('A' for Active; 'I' for Inactive)
REMARK    1  A    between atoms: C2_2  and  C29_36
REMARK    2  A    between atoms: C3_3  and  C4_4
REMARK    3  A    between atoms: C15_15  and  N1_16
REMARK       I    between atoms: N1_16  and  C16_18
REMARK    4  A    between atoms: C16_18  and  C17_20
REMARK    5  A    between atoms: C17_20  and  C18_21
REMARK    6  A    between atoms: C18_21  and  C19_22
REMARK    7  A    between atoms: C19_22  and  C20_23
REMARK    8  A    between atoms: C20_23  and  C21_24
REMARK    9  A    between atoms: C21_24  and  N2_25
REMARK   10  A    between atoms: C26_31  and  C28_33
REMARK   11  A    between atoms: C28_33  and  O2_34
ROOT
HETATM    1  C4  UNL     1      -6.319  17.087   0.859  1.00  0.00     0.004 C
HETATM    2  C5  UNL     1      -7.027  16.938  -0.217  1.00  0.00    -0.067 C
HETATM    3  C6  UNL     1      -7.886  15.700  -0.407  1.00  0.00     0.037 C
HETATM    4  C7  UNL     1      -7.837  15.505  -1.908  1.00  0.00     0.047 C
HETATM    5  C8  UNL     1      -8.100  16.914  -2.376  1.00  0.00     0.174 C
HETATM    6  C9  UNL     1      -9.550  17.232  -2.132  1.00  0.00     0.043 C
HETATM    7  C10 UNL     1     -10.442  16.259  -2.918  1.00  0.00     0.009 C
HETATM    8  C11 UNL     1     -10.060  16.255  -4.360  1.00  0.00     0.022 C
HETATM    9  C12 UNL     1     -11.220  16.808  -5.203  1.00  0.00     0.012 C
HETATM   10  C13 UNL     1      -8.867  17.099  -4.684  1.00  0.00     0.182 C
HETATM   11  C14 UNL     1      -9.147  18.423  -5.317  1.00  0.00     0.052 C
HETATM   12  C15 UNL     1      -7.948  16.275  -5.631  1.00  0.00     0.151 C
HETATM   13  C25 UNL     1      -7.126  15.998  -4.417  1.00  0.00     0.302 C
HETATM   14  N3  UNL     1      -7.799  17.101  -3.760  1.00  0.00     0.113 N
HETATM   15  C26 UNL     1      -7.242  17.747  -1.450  1.00  0.00     0.037 C
HETATM   16  C27 UNL     1      -5.899  18.054  -2.043  1.00  0.00     0.025 C
ENDROOT
BRANCH  15  17
HETATM   17  C28 UNL     1      -7.919  19.061  -1.107  1.00  0.00     0.180 C
BRANCH  17  18
HETATM   18  O2  UNL     1      -7.486  20.040  -1.954  1.00  0.00    -0.400 OA
ATOM     19  H2  UNL     1      -7.184  20.788  -1.453  1.00  0.00     0.209 HD
ENDBRANCH  17  18
ENDBRANCH  15  17
BRANCH  12  20
HETATM   20  N1  UNL     1      -7.369  17.116  -6.651  1.00  0.00    -0.352 N
HETATM   21  C16 UNL     1      -7.604  17.023  -8.021  1.00  0.00     0.217 C
HETATM   22  O1  UNL     1      -8.401  16.126  -8.445  1.00  0.00    -0.274 OA
ATOM     23  H1  UNL     1      -6.729  17.846  -6.340  1.00  0.00     0.163 HD
BRANCH  21  24
HETATM   24  C17 UNL     1      -6.948  17.936  -8.973  1.00  0.00     0.103 C
BRANCH  24  25
HETATM   25  C18 UNL     1      -5.485  17.551  -9.106  1.00  0.00     0.009 C
BRANCH  25  26
HETATM   26  C19 UNL     1      -5.197  16.806 -10.387  1.00  0.00     0.002 C
BRANCH  26  27
HETATM   27  C20 UNL     1      -4.821  15.396 -10.055  1.00  0.00     0.028 C
BRANCH  27  28
HETATM   28  C21 UNL     1      -5.888  14.369 -10.203  1.00  0.00     0.236 C
BRANCH  28  29
HETATM   29  N2  UNL     1      -6.025  13.412  -9.159  1.00  0.00    -0.079 N
HETATM   30  C22 UNL     1      -5.540  13.837  -7.866  1.00  0.00     0.271 C
HETATM   31  C23 UNL     1      -7.355  12.835  -9.033  1.00  0.00     0.271 C
HETATM   32  C24 UNL     1      -5.123  12.288  -9.540  1.00  0.00     0.271 C
ENDBRANCH  28  29
ENDBRANCH  27  28
ENDBRANCH  26  27
ENDBRANCH  25  26
ENDBRANCH  24  25
ENDBRANCH  21  24
ENDBRANCH  12  20
BRANCH   1  33
HETATM   33  C3  UNL     1      -5.445  18.152   1.249  1.00  0.00     0.007 C
HETATM   34  C2  UNL     1      -4.346  18.051   1.999  1.00  0.00    -0.062 C
HETATM   35  C1  UNL     1      -3.624  19.334   2.251  1.00  0.00     0.048 C
BRANCH  34  36
HETATM   36  C29 UNL     1      -3.851  16.826   2.532  1.00  0.00     0.011 C
HETATM   37  C30 UNL     1      -2.930  15.998   2.132  1.00  0.00    -0.056 C
HETATM   38  C31 UNL     1      -2.085  16.139   0.908  1.00  0.00     0.038 C
HETATM   39  C34 UNL     1      -2.716  14.757   2.993  1.00  0.00     0.202 C
HETATM   40  C32 UNL     1      -0.913  15.162   1.080  1.00  0.00     0.030 C
HETATM   41  C33 UNL     1      -0.528  15.235   2.561  1.00  0.00     0.168 C
HETATM   42  O3  UNL     1      -1.422  14.464   3.245  1.00  0.00    -0.387 OA
ENDBRANCH  34  36
ENDBRANCH   1  33
TORSDOF 11
ENDMDL