MODEL 2
REMARK VINA RESULT: -8.029429033      3.210      4.948
REMARK  10 active torsions:
REMARK  status: ('A' for Active; 'I' for Inactive)
REMARK    1  A    between atoms: S1_2  and  C2_3
REMARK    2  A    between atoms: C2_3  and  C3_4
REMARK    3  A    between atoms: C3_4  and  C4_5
REMARK    4  A    between atoms: C4_5  and  N1_6
REMARK    5  A    between atoms: C4_5  and  C22_28
REMARK       I    between atoms: N1_6  and  C5_8
REMARK    6  A    between atoms: C5_8  and  C6_10
REMARK    7  A    between atoms: C10_14  and  C11_15
REMARK       I    between atoms: C11_15  and  N2_17
REMARK    8  A    between atoms: N2_17  and  C12_18
REMARK    9  A    between atoms: N2_17  and  C18_24
REMARK       I    between atoms: C22_28  and  N3_30
REMARK   10  A    between atoms: N3_30  and  C23_32
ROOT
HETATM    1  N1  UNL     1      -7.109  18.560  -1.607  1.00  0.00    -0.347 N
ATOM      2  H1  UNL     1      -6.346  19.193  -1.848  1.00  0.00     0.163 HD
HETATM    3  C5  UNL     1      -8.392  18.798  -2.148  1.00  0.00     0.223 C
HETATM    4  O1  UNL     1      -9.364  18.014  -1.853  1.00  0.00    -0.273 OA
ENDROOT
BRANCH   1   5
HETATM    5  C4  UNL     1      -6.837  17.429  -0.710  1.00  0.00     0.177 C
BRANCH   5   6
HETATM    6  C3  UNL     1      -6.381  16.251  -1.489  1.00  0.00     0.045 C
BRANCH   6   7
HETATM    7  C2  UNL     1      -7.329  15.095  -1.538  1.00  0.00     0.076 C
BRANCH   7   8
HETATM    8  S1  UNL     1      -8.158  15.022  -3.173  1.00  0.00    -0.173 SA
HETATM    9  C1  UNL     1      -7.084  15.530  -4.511  1.00  0.00     0.089 C
ENDBRANCH   7   8
ENDBRANCH   6   7
ENDBRANCH   5   6
BRANCH   5  10
HETATM   10  C22 UNL     1      -5.904  17.894   0.343  1.00  0.00     0.241 C
HETATM   11  O3  UNL     1      -5.994  19.072   0.753  1.00  0.00    -0.271 OA
HETATM   12  N3  UNL     1      -4.944  16.984   0.856  1.00  0.00    -0.351 N
ATOM     13  H3  UNL     1      -4.894  16.027   0.506  1.00  0.00     0.163 HD
BRANCH  12  14
HETATM   14  C23 UNL     1      -4.034  17.444   1.889  1.00  0.00     0.118 C
HETATM   15  C24 UNL     1      -2.853  18.156   1.347  1.00  0.00     0.030 C
HETATM   16  C25 UNL     1      -1.817  17.277   0.736  1.00  0.00     0.007 C
HETATM   17  C26 UNL     1      -2.001  15.812   0.929  1.00  0.00     0.039 C
HETATM   18  C27 UNL     1      -2.629  15.458   2.219  1.00  0.00    -0.050 A
HETATM   19  C28 UNL     1      -2.188  14.331   2.903  1.00  0.00     0.007 A
HETATM   20  C32 UNL     1      -3.632  16.259   2.703  1.00  0.00    -0.029 A
HETATM   21  C29 UNL     1      -2.807  14.050   4.100  1.00  0.00     0.001 A
HETATM   22  C30 UNL     1      -3.831  14.858   4.605  1.00  0.00     0.001 A
HETATM   23  C31 UNL     1      -4.244  15.965   3.906  1.00  0.00     0.010 A
ENDBRANCH  12  14
ENDBRANCH   5  10
ENDBRANCH   1   5
BRANCH   3  24
HETATM   24  C6  UNL     1      -8.646  19.940  -3.053  1.00  0.00     0.091 C
HETATM   25  C7  UNL     1      -9.583  19.450  -4.161  1.00  0.00     0.015 C
HETATM   26  C8  UNL     1      -8.683  18.734  -5.096  1.00  0.00     0.002 C
HETATM   27  C9  UNL     1      -7.307  19.257  -4.853  1.00  0.00     0.015 C
HETATM   28  C10 UNL     1      -7.450  20.380  -3.831  1.00  0.00     0.091 C
BRANCH  28  29
HETATM   29  C11 UNL     1      -7.682  21.668  -4.488  1.00  0.00     0.225 C
HETATM   30  O2  UNL     1      -8.896  22.065  -4.649  1.00  0.00    -0.273 OA
HETATM   31  N2  UNL     1      -6.680  22.569  -4.988  1.00  0.00    -0.342 N
BRANCH  31  32
HETATM   32  C12 UNL     1      -5.325  22.163  -4.835  1.00  0.00     0.087 C
HETATM   33  C13 UNL     1      -4.376  23.198  -4.286  1.00  0.00     0.025 C
HETATM   34  C14 UNL     1      -3.121  23.339  -5.120  1.00  0.00     0.002 C
HETATM   35  C15 UNL     1      -2.413  22.026  -5.314  1.00  0.00     0.000 C
HETATM   36  C16 UNL     1      -3.381  20.879  -5.528  1.00  0.00     0.002 C
HETATM   37  C17 UNL     1      -4.675  21.536  -6.054  1.00  0.00     0.025 C
ENDBRANCH  31  32
BRANCH  31  38
HETATM   38  C18 UNL     1      -7.159  23.767  -5.569  1.00  0.00     0.087 C
HETATM   39  C19 UNL     1      -7.031  25.098  -4.975  1.00  0.00     0.025 C
HETATM   40  C20 UNL     1      -7.221  25.624  -6.426  1.00  0.00     0.004 C
HETATM   41  C21 UNL     1      -6.454  24.327  -6.799  1.00  0.00     0.025 C
ENDBRANCH  31  38
ENDBRANCH  28  29
ENDBRANCH   3  24
TORSDOF 10
ENDMDL