MODEL 4
REMARK VINA RESULT: -7.616591689      2.034      3.580
REMARK  8 active torsions:
REMARK  status: ('A' for Active; 'I' for Inactive)
REMARK    1  A    between atoms: C2_2  and  C3_3
REMARK    2  A    between atoms: C2_2  and  C10_14
REMARK    3  A    between atoms: C4_4  and  C5_5
REMARK       I    between atoms: C5_5  and  N1_7
REMARK    4  A    between atoms: N1_7  and  C6_9
REMARK    5  A    between atoms: C6_9  and  C7_10
REMARK    6  A    between atoms: C7_10  and  N2_11
REMARK    7  A    between atoms: C21_25  and  N3_26
REMARK    8  A    between atoms: N3_26  and  S1_28
ROOT
HETATM    1  C10 UNL     1      -8.456  21.222  -0.742  1.00  0.00     0.001 C
HETATM    2  C11 UNL     1      -9.810  20.904  -0.087  1.00  0.00     0.006 C
HETATM    3  C12 UNL     1     -10.695  20.310  -1.159  1.00  0.00     0.006 C
HETATM    4  C13 UNL     1      -9.644  19.793  -2.103  1.00  0.00    -0.001 C
HETATM    5  C14 UNL     1     -10.150  19.284  -3.392  1.00  0.00    -0.001 C
HETATM    6  C15 UNL     1     -10.372  17.794  -3.234  1.00  0.00     0.033 C
HETATM    7  C16 UNL     1      -9.306  16.942  -3.798  1.00  0.00    -0.022 C
HETATM    8  C17 UNL     1      -8.780  17.274  -4.969  1.00  0.00    -0.065 C
HETATM    9  C18 UNL     1      -7.711  16.495  -5.630  1.00  0.00    -0.003 C
HETATM   10  C19 UNL     1      -6.357  17.156  -5.575  1.00  0.00     0.021 C
HETATM   11  C20 UNL     1      -7.543  15.150  -4.948  1.00  0.00     0.021 C
HETATM   12  C21 UNL     1      -8.182  16.292  -7.060  1.00  0.00     0.105 C
HETATM   13  C23 UNL     1      -8.523  17.576  -7.732  1.00  0.00     0.028 C
HETATM   14  C24 UNL     1      -8.598  18.789  -6.847  1.00  0.00     0.016 C
HETATM   15  C25 UNL     1      -9.344  18.498  -5.604  1.00  0.00    -0.016 C
HETATM   16  C26 UNL     1     -10.794  18.223  -6.049  1.00  0.00     0.020 C
HETATM   17  C27 UNL     1      -9.432  19.671  -4.643  1.00  0.00     0.003 C
HETATM   18  C28 UNL     1      -8.203  20.455  -4.487  1.00  0.00     0.007 C
HETATM   19  C29 UNL     1      -7.648  20.553  -3.082  1.00  0.00     0.010 C
HETATM   20  C30 UNL     1      -8.712  20.980  -2.141  1.00  0.00    -0.036 C
HETATM   21  C31 UNL     1      -9.431  22.236  -2.636  1.00  0.00     0.016 C
ENDROOT
BRANCH   1  22
HETATM   22  C2  UNL     1      -7.335  20.560   0.010  1.00  0.00     0.009 C
HETATM   23  C1  UNL     1      -6.605  21.515   0.876  1.00  0.00     0.014 C
BRANCH  22  24
HETATM   24  C3  UNL     1      -7.866  19.397   0.794  1.00  0.00    -0.017 C
HETATM   25  C4  UNL     1      -7.016  18.455   1.480  1.00  0.00     0.071 C
BRANCH  25  26
HETATM   26  C5  UNL     1      -6.092  17.523   0.871  1.00  0.00     0.244 C
HETATM   27  O1  UNL     1      -6.330  16.370   0.458  1.00  0.00    -0.268 OA
HETATM   28  N1  UNL     1      -4.713  17.940   0.705  1.00  0.00    -0.336 N
ATOM     29  H1  UNL     1      -4.448  18.871   1.026  1.00  0.00     0.168 HD
BRANCH  28  30
HETATM   30  C6  UNL     1      -3.722  17.126   0.125  1.00  0.00     0.094 C
BRANCH  30  31
HETATM   31  C7  UNL     1      -2.396  17.044   0.796  1.00  0.00     0.315 C
BRANCH  31  32
HETATM   32  N2  UNL     1      -2.081  15.792   1.411  1.00  0.00     0.084 N
HETATM   33  C8  UNL     1      -0.698  15.532   1.637  1.00  0.00     0.309 C
HETATM   34  C9  UNL     1      -2.856  15.547   2.614  1.00  0.00     0.309 C
ENDBRANCH  31  32
ENDBRANCH  30  31
ENDBRANCH  28  30
ENDBRANCH  25  26
ENDBRANCH  22  24
ENDBRANCH   1  22
BRANCH  12  35
HETATM   35  N3  UNL     1      -7.236  15.558  -7.872  1.00  0.00    -0.314 N
ATOM     36  H3  UNL     1      -6.242  15.782  -7.913  1.00  0.00     0.172 HD
BRANCH  35  37
HETATM   37  S1  UNL     1      -7.950  14.274  -8.763  1.00  0.00     0.223 S
HETATM   38  C22 UNL     1      -7.403  14.271 -10.456  1.00  0.00     0.185 C
HETATM   39  O2  UNL     1      -7.528  12.975  -8.142  1.00  0.00    -0.206 OA
HETATM   40  O3  UNL     1      -9.449  14.357  -8.811  1.00  0.00    -0.206 OA
ENDBRANCH  35  37
ENDBRANCH  12  35
TORSDOF 8
ENDMDL