MODEL 4
REMARK VINA RESULT: -7.890978181      1.745      2.448
REMARK  10 active torsions:
REMARK  status: ('A' for Active; 'I' for Inactive)
REMARK    1  A    between atoms: C2_2  and  C3_3
REMARK    2  A    between atoms: C6_6  and  C7_7
REMARK    3  A    between atoms: C7_7  and  C8_8
REMARK       I    between atoms: C8_8  and  N1_10
REMARK    4  A    between atoms: N1_10  and  C9_12
REMARK    5  A    between atoms: C9_12  and  C10_13
REMARK    6  A    between atoms: C13_16  and  O2_17
REMARK    7  A    between atoms: C19_23  and  C20_24
REMARK    8  A    between atoms: C19_23  and  S1_27
REMARK    9  A    between atoms: S1_27  and  N2_30
REMARK   10  A    between atoms: N2_30  and  C23_32
ROOT
HETATM    1  C3  UNL     1      -8.433  23.177  -3.457  1.00  0.00     0.012 C
HETATM    2  C4  UNL     1      -9.842  22.920  -2.986  1.00  0.00     0.015 C
HETATM    3  C5  UNL     1      -9.926  21.424  -2.729  1.00  0.00     0.017 C
HETATM    4  C6  UNL     1      -8.483  21.220  -2.300  1.00  0.00     0.005 C
HETATM    5  C17 UNL     1      -7.894  21.824  -3.603  1.00  0.00    -0.000 C
HETATM    6  C18 UNL     1      -8.615  20.849  -4.531  1.00  0.00     0.033 C
HETATM    7  C19 UNL     1      -9.993  20.598  -3.981  1.00  0.00     0.090 C
ENDROOT
BRANCH   7   8
HETATM    8  C20 UNL     1     -11.114  20.948  -4.921  1.00  0.00     0.003 C
HETATM    9  C21 UNL     1     -12.360  21.464  -4.249  1.00  0.00     0.011 C
HETATM   10  C22 UNL     1     -10.868  21.589  -6.217  1.00  0.00     0.011 C
ENDBRANCH   7   8
BRANCH   7  11
HETATM   11  S1  UNL     1     -10.304  18.903  -3.523  1.00  0.00     0.236 S
HETATM   12  O3  UNL     1     -11.027  18.848  -2.240  1.00  0.00    -0.205 OA
HETATM   13  O4  UNL     1     -11.251  18.284  -4.592  1.00  0.00    -0.205 OA
BRANCH  11  14
HETATM   14  N2  UNL     1      -9.010  17.858  -3.530  1.00  0.00    -0.313 N
ATOM     15  H2  UNL     1      -8.321  17.964  -4.274  1.00  0.00     0.172 HD
BRANCH  14  16
HETATM   16  C23 UNL     1      -8.800  16.847  -2.590  1.00  0.00     0.101 C
HETATM   17  C24 UNL     1      -7.737  15.832  -3.071  1.00  0.00     0.010 C
HETATM   18  C25 UNL     1      -6.470  16.509  -3.482  1.00  0.00     0.011 C
HETATM   19  C29 UNL     1      -7.493  14.823  -1.981  1.00  0.00     0.011 C
HETATM   20  C26 UNL     1      -5.917  17.263  -2.295  1.00  0.00    -0.013 C
HETATM   21  C27 UNL     1      -5.578  16.246  -1.221  1.00  0.00     0.009 C
HETATM   22  C32 UNL     1      -6.936  18.202  -1.706  1.00  0.00     0.011 C
HETATM   23  C28 UNL     1      -6.823  15.508  -0.806  1.00  0.00    -0.013 C
HETATM   24  C30 UNL     1      -7.872  16.473  -0.279  1.00  0.00     0.011 C
HETATM   25  C31 UNL     1      -8.193  17.473  -1.357  1.00  0.00     0.010 C
ENDBRANCH  14  16
ENDBRANCH  11  14
ENDBRANCH   7  11
BRANCH   4  26
HETATM   26  C7  UNL     1      -8.106  21.908  -1.057  1.00  0.00     0.108 C
BRANCH  26  27
HETATM   27  C8  UNL     1      -8.189  20.979   0.085  1.00  0.00     0.218 C
HETATM   28  O1  UNL     1      -9.282  20.455   0.365  1.00  0.00    -0.274 OA
HETATM   29  N1  UNL     1      -7.040  20.693   0.846  1.00  0.00    -0.357 N
ATOM     30  H1  UNL     1      -6.162  21.146   0.590  1.00  0.00     0.162 HD
BRANCH  29  31
HETATM   31  C9  UNL     1      -7.048  19.785   1.976  1.00  0.00     0.161 C
BRANCH  31  32
HETATM   32  C10 UNL     1      -5.871  18.875   1.992  1.00  0.00    -0.040 A
HETATM   33  C11 UNL     1      -4.620  19.322   1.626  1.00  0.00     0.011 A
HETATM   34  C12 UNL     1      -3.512  18.506   1.627  1.00  0.00     0.037 A
HETATM   35  C13 UNL     1      -3.652  17.181   2.010  1.00  0.00     0.068 A
HETATM   36  C15 UNL     1      -4.889  16.711   2.378  1.00  0.00     0.037 A
HETATM   37  C16 UNL     1      -5.997  17.546   2.373  1.00  0.00     0.011 A
BRANCH  35  38
HETATM   38  O2  UNL     1      -2.527  16.373   2.004  1.00  0.00    -0.356 OA
HETATM   39  C14 UNL     1      -1.643  16.269   0.914  1.00  0.00     0.210 C
ENDBRANCH  35  38
ENDBRANCH  31  32
ENDBRANCH  29  31
ENDBRANCH  26  27
ENDBRANCH   4  26
BRANCH   1  40
HETATM   40  C2  UNL     1      -8.240  24.169  -4.493  1.00  0.00    -0.032 C
HETATM   41  C1  UNL     1      -9.222  24.766  -5.096  1.00  0.00     0.007 C
ENDBRANCH   1  40
TORSDOF 10
ENDMDL