MODEL 3
REMARK VINA RESULT: -9.469524506      1.077      1.562
REMARK  12 active torsions:
REMARK  status: ('A' for Active; 'I' for Inactive)
REMARK    1  A    between atoms: C2_2  and  C3_3
REMARK    2  A    between atoms: C3_3  and  C4_5
REMARK    3  A    between atoms: C4_5  and  O2_6
REMARK    4  A    between atoms: C4_5  and  N1_8
REMARK    5  A    between atoms: N1_8  and  C5_9
REMARK    6  A    between atoms: N1_8  and  C16_25
REMARK    7  A    between atoms: C5_9  and  C6_10
REMARK       I    between atoms: C6_10  and  N2_12
REMARK    8  A    between atoms: N2_12  and  C7_14
REMARK    9  A    between atoms: C7_14  and  C8_15
REMARK   10  A    between atoms: C7_14  and  C15_22
REMARK   11  A    between atoms: C8_15  and  C9_16
REMARK   12  A    between atoms: C16_25  and  C17_26
ROOT
HETATM    1  N1  UNL     1      -6.616  18.615   1.058  1.00  0.00    -0.325 N
ENDROOT
BRANCH   1   2
HETATM    2  C4  UNL     1      -7.265  17.504   0.519  1.00  0.00     0.190 C
BRANCH   2   3
HETATM    3  C3  UNL     1      -7.662  17.245  -0.848  1.00  0.00     0.208 C
HETATM    4  O1  UNL     1      -8.690  17.747  -1.368  1.00  0.00    -0.288 OA
BRANCH   3   5
HETATM    5  C2  UNL     1      -6.831  16.335  -1.720  1.00  0.00     0.025 C
HETATM    6  C1  UNL     1      -5.559  15.947  -1.022  1.00  0.00     0.024 C
HETATM    7  C29 UNL     1      -7.609  15.066  -1.994  1.00  0.00     0.017 C
HETATM    8  C30 UNL     1      -8.601  15.360  -3.101  1.00  0.00     0.001 C
HETATM    9  C31 UNL     1      -7.837  15.435  -4.392  1.00  0.00     0.000 C
HETATM   10  C32 UNL     1      -6.513  16.108  -4.182  1.00  0.00     0.001 C
HETATM   11  C33 UNL     1      -6.562  17.079  -2.999  1.00  0.00     0.017 C
ENDBRANCH   3   5
ENDBRANCH   2   3
BRANCH   2  12
HETATM   12  O2  UNL     1      -7.574  16.533   1.331  1.00  0.00    -0.343 OA
ATOM     13  H2  UNL     1      -7.112  16.582   2.160  1.00  0.00     0.219 HD
ENDBRANCH   2  12
ENDBRANCH   1   2
BRANCH   1  14
HETATM   14  C5  UNL     1      -7.457  19.575   1.785  1.00  0.00     0.233 C
BRANCH  14  15
HETATM   15  C6  UNL     1      -7.895  20.677   0.912  1.00  0.00     0.236 C
HETATM   16  O3  UNL     1      -7.378  21.801   1.019  1.00  0.00    -0.272 OA
HETATM   17  N2  UNL     1      -8.907  20.484  -0.065  1.00  0.00    -0.345 N
ATOM     18  H2  UNL     1      -9.327  19.558  -0.146  1.00  0.00     0.163 HD
BRANCH  17  19
HETATM   19  C7  UNL     1      -9.379  21.532  -0.959  1.00  0.00     0.185 C
BRANCH  19  20
HETATM   20  C8  UNL     1      -8.551  21.524  -2.188  1.00  0.00     0.041 C
BRANCH  20  21
HETATM   21  C9  UNL     1      -8.433  20.259  -2.952  1.00  0.00    -0.012 C
HETATM   22  C10 UNL     1      -7.126  20.368  -3.759  1.00  0.00     0.005 C
HETATM   23  C11 UNL     1      -7.509  20.546  -5.201  1.00  0.00     0.000 C
HETATM   24  C12 UNL     1      -8.042  19.207  -5.685  1.00  0.00     0.000 C
HETATM   25  C13 UNL     1      -9.254  18.888  -4.874  1.00  0.00     0.000 C
HETATM   26  C14 UNL     1      -9.583  19.977  -3.855  1.00  0.00     0.005 C
ENDBRANCH  20  21
ENDBRANCH  19  20
BRANCH  19  27
HETATM   27  C15 UNL     1     -10.819  21.497  -1.086  1.00  0.00     0.196 C
HETATM   28  O4  UNL     1     -11.527  20.816  -0.305  1.00  0.00    -0.646 OA
HETATM   29  O5  UNL     1     -11.462  22.221  -2.079  1.00  0.00    -0.646 OA
ENDBRANCH  19  27
ENDBRANCH  17  19
ENDBRANCH  14  15
ENDBRANCH   1  14
BRANCH   1  30
HETATM   30  C16 UNL     1      -5.237  18.889   0.981  1.00  0.00     0.105 C
BRANCH  30  31
HETATM   31  C17 UNL     1      -4.285  17.856   1.413  1.00  0.00    -0.020 A
HETATM   32  C18 UNL     1      -3.080  17.626   0.816  1.00  0.00     0.013 A
HETATM   33  C19 UNL     1      -2.219  16.612   1.256  1.00  0.00     0.008 A
HETATM   34  C20 UNL     1      -2.610  15.831   2.319  1.00  0.00    -0.052 A
HETATM   35  C21 UNL     1      -3.807  16.021   2.952  1.00  0.00    -0.051 A
HETATM   36  C28 UNL     1      -1.502  14.866   2.534  1.00  0.00     0.039 C
HETATM   37  C22 UNL     1      -4.632  17.026   2.497  1.00  0.00     0.020 A
HETATM   38  C23 UNL     1      -4.605  15.467   4.069  1.00  0.00     0.039 C
HETATM   39  C24 UNL     1      -4.015  14.300   4.766  1.00  0.00     0.005 C
HETATM   40  C25 UNL     1      -2.563  14.388   5.083  1.00  0.00     0.000 C
HETATM   41  C26 UNL     1      -1.878  13.252   4.309  1.00  0.00     0.000 C
HETATM   42  C27 UNL     1      -2.041  13.498   2.818  1.00  0.00     0.005 C
ENDBRANCH  30  31
ENDBRANCH   1  30
TORSDOF 12
ENDMDL