MODEL 2
REMARK VINA RESULT: -6.887359261      2.875      6.904
REMARK  10 active torsions:
REMARK  status: ('A' for Active; 'I' for Inactive)
REMARK    1  A    between atoms: C2_2  and  C4_4
REMARK    2  A    between atoms: N1_5  and  C5_6
REMARK    3  A    between atoms: N1_5  and  S1_27
REMARK    4  A    between atoms: C14_15  and  O1_16
REMARK    5  A    between atoms: S1_27  and  C24_30
REMARK    6  A    between atoms: C24_30  and  C25_31
REMARK    7  A    between atoms: C25_31  and  C26_32
REMARK    8  A    between atoms: C26_32  and  C27_33
REMARK    9  A    between atoms: C27_33  and  C28_34
REMARK       I    between atoms: C28_34  and  N2_36
REMARK   10  A    between atoms: N2_36  and  C29_38
ROOT
HETATM    1  C5  UNL     1      -7.645  18.048  -1.704  1.00  0.00     0.109 C
HETATM    2  C6  UNL     1      -6.593  17.675  -2.776  1.00  0.00     0.028 C
HETATM    3  C7  UNL     1      -7.553  17.211  -3.869  1.00  0.00     0.008 C
HETATM    4  C8  UNL     1      -8.562  18.327  -3.859  1.00  0.00     0.000 C
HETATM    5  C9  UNL     1      -9.904  17.931  -4.336  1.00  0.00    -0.005 C
HETATM    6  C10 UNL     1     -10.405  16.596  -3.920  1.00  0.00     0.006 C
HETATM    7  C11 UNL     1     -11.910  16.549  -3.696  1.00  0.00     0.006 C
HETATM    8  C12 UNL     1     -12.648  17.378  -4.726  1.00  0.00    -0.004 C
HETATM    9  C13 UNL     1     -12.526  16.676  -6.044  1.00  0.00     0.037 C
HETATM   10  C14 UNL     1     -13.126  17.404  -7.196  1.00  0.00     0.118 C
HETATM   11  C15 UNL     1     -13.451  18.845  -6.891  1.00  0.00     0.032 C
HETATM   12  C16 UNL     1     -12.283  19.416  -6.130  1.00  0.00     0.012 C
HETATM   13  C17 UNL     1     -12.236  18.806  -4.731  1.00  0.00    -0.036 C
HETATM   14  C18 UNL     1     -13.254  19.615  -3.912  1.00  0.00     0.016 C
HETATM   15  C19 UNL     1     -10.896  19.065  -4.089  1.00  0.00    -0.002 C
HETATM   16  C20 UNL     1     -10.979  19.460  -2.657  1.00  0.00     0.006 C
HETATM   17  C21 UNL     1      -9.898  18.892  -1.800  1.00  0.00     0.012 C
HETATM   18  C22 UNL     1      -8.527  18.941  -2.447  1.00  0.00    -0.018 C
HETATM   19  C23 UNL     1      -8.140  20.366  -2.633  1.00  0.00     0.018 C
ENDROOT
BRANCH   1  20
HETATM   20  N1  UNL     1      -6.989  18.272  -0.533  1.00  0.00    -0.284 N
HETATM   21  C4  UNL     1      -7.330  19.064   0.520  1.00  0.00     0.080 C
BRANCH  21  22
HETATM   22  C2  UNL     1      -6.212  19.991   0.945  1.00  0.00     0.017 C
HETATM   23  C1  UNL     1      -6.629  21.462   0.932  1.00  0.00     0.015 C
HETATM   24  C3  UNL     1      -5.902  19.717   2.433  1.00  0.00     0.015 C
ENDBRANCH  21  22
BRANCH  20  25
HETATM   25  S1  UNL     1      -6.507  16.694   0.090  1.00  0.00     0.232 S
HETATM   26  O2  UNL     1      -7.398  15.634  -0.516  1.00  0.00    -0.205 OA
HETATM   27  O3  UNL     1      -6.796  16.665   1.580  1.00  0.00    -0.205 OA
BRANCH  25  28
HETATM   28  C24 UNL     1      -4.842  16.310  -0.187  1.00  0.00     0.163 C
BRANCH  28  29
HETATM   29  C25 UNL     1      -3.851  17.412   0.026  1.00  0.00     0.017 C
BRANCH  29  30
HETATM   30  C26 UNL     1      -2.822  17.177   1.074  1.00  0.00     0.010 C
BRANCH  30  31
HETATM   31  C27 UNL     1      -1.692  16.272   0.643  1.00  0.00     0.103 C
BRANCH  31  32
HETATM   32  C28 UNL     1      -1.226  15.396   1.738  1.00  0.00     0.217 C
HETATM   33  O4  UNL     1      -0.028  15.022   1.902  1.00  0.00    -0.274 OA
HETATM   34  N2  UNL     1      -2.139  14.900   2.721  1.00  0.00    -0.356 N
ATOM     35  H2  UNL     1      -3.119  15.168   2.642  1.00  0.00     0.162 HD
BRANCH  34  36
HETATM   36  C29 UNL     1      -1.757  14.041   3.818  1.00  0.00     0.084 A
HETATM   37  C30 UNL     1      -2.910  13.517   4.685  1.00  0.00     0.027 A
HETATM   38  C31 UNL     1      -2.119  12.599   3.808  1.00  0.00     0.027 A
ENDBRANCH  34  36
ENDBRANCH  31  32
ENDBRANCH  30  31
ENDBRANCH  29  30
ENDBRANCH  28  29
ENDBRANCH  25  28
ENDBRANCH  20  25
ENDBRANCH   1  20
BRANCH  10  39
HETATM   39  O1  UNL     1     -14.238  16.764  -7.739  1.00  0.00    -0.396 OA
ATOM     40  H1  UNL     1     -14.331  16.895  -8.675  1.00  0.00     0.210 HD
ENDBRANCH  10  39
TORSDOF 10
ENDMDL