MODEL 5
REMARK VINA RESULT: -7.943060240      2.714      9.510
REMARK  10 active torsions:
REMARK  status: ('A' for Active; 'I' for Inactive)
REMARK    1  A    between atoms: C2_2  and  N1_3
REMARK    2  A    between atoms: C2_2  and  C23_29
REMARK       I    between atoms: N1_3  and  C3_5
REMARK    3  A    between atoms: C3_5  and  C4_7
REMARK       I    between atoms: N2_11  and  C8_12
REMARK    4  A    between atoms: C8_12  and  C9_14
REMARK    5  A    between atoms: C9_14  and  O3_15
REMARK    6  A    between atoms: O3_15  and  C10_16
REMARK    7  A    between atoms: C11_17  and  C12_18
REMARK    8  A    between atoms: C18_24  and  C19_25
REMARK       I    between atoms: C23_29  and  N3_31
REMARK    9  A    between atoms: N3_31  and  C24_33
REMARK   10  A    between atoms: C28_37  and  C29_38
ROOT
HETATM    1  C4  UNL     1      -7.747  15.167  -3.994  1.00  0.00     0.096 C
HETATM    2  C5  UNL     1      -9.112  15.046  -3.416  1.00  0.00     0.017 C
HETATM    3  C6  UNL     1      -9.748  16.300  -2.900  1.00  0.00     0.021 C
HETATM    4  C7  UNL     1      -8.805  17.236  -2.192  1.00  0.00     0.126 C
HETATM    5  N2  UNL     1      -7.551  16.527  -2.036  1.00  0.00    -0.349 N
HETATM    6  C8  UNL     1      -7.010  16.211  -0.770  1.00  0.00     0.244 C
HETATM    7  O2  UNL     1      -5.938  15.587  -0.611  1.00  0.00    -0.271 OA
HETATM    8  C22 UNL     1      -6.873  16.164  -3.261  1.00  0.00     0.139 C
ENDROOT
BRANCH   1   9
HETATM    9  C3  UNL     1      -7.711  15.399  -5.460  1.00  0.00     0.224 C
HETATM   10  N1  UNL     1      -6.864  14.672  -6.288  1.00  0.00    -0.348 N
ATOM     11  H1  UNL     1      -6.266  13.971  -5.851  1.00  0.00     0.163 HD
HETATM   12  O1  UNL     1      -8.464  16.273  -5.960  1.00  0.00    -0.273 OA
BRANCH  10  13
HETATM   13  C2  UNL     1      -6.767  14.834  -7.725  1.00  0.00     0.172 C
HETATM   14  C1  UNL     1      -6.411  13.489  -8.312  1.00  0.00     0.042 C
BRANCH  13  15
HETATM   15  C23 UNL     1      -5.855  15.910  -8.119  1.00  0.00     0.240 C
HETATM   16  O4  UNL     1      -5.343  15.945  -9.266  1.00  0.00    -0.271 OA
HETATM   17  N3  UNL     1      -5.529  16.941  -7.218  1.00  0.00    -0.354 N
ATOM     18  H3  UNL     1      -5.938  16.932  -6.284  1.00  0.00     0.162 HD
BRANCH  17  19
HETATM   19  C24 UNL     1      -4.635  18.004  -7.581  1.00  0.00     0.088 C
HETATM   20  C25 UNL     1      -3.250  17.831  -7.064  1.00  0.00     0.025 C
HETATM   21  C26 UNL     1      -3.115  18.000  -5.584  1.00  0.00     0.002 C
HETATM   22  C27 UNL     1      -4.234  18.687  -4.893  1.00  0.00     0.005 C
HETATM   23  C28 UNL     1      -4.999  19.677  -5.713  1.00  0.00    -0.005 C
HETATM   24  C32 UNL     1      -5.118  19.374  -7.161  1.00  0.00     0.009 C
HETATM   25  C33 UNL     1      -6.561  19.535  -7.633  1.00  0.00     0.012 C
BRANCH  23  26
HETATM   26  C29 UNL     1      -4.475  21.076  -5.443  1.00  0.00    -0.018 C
HETATM   27  C30 UNL     1      -3.817  21.711  -6.619  1.00  0.00     0.010 C
HETATM   28  C31 UNL     1      -5.617  22.000  -5.022  1.00  0.00     0.010 C
ENDBRANCH  23  26
ENDBRANCH  17  19
ENDBRANCH  13  15
ENDBRANCH  10  13
ENDBRANCH   1   9
BRANCH   6  29
HETATM   29  C9  UNL     1      -7.738  16.632   0.498  1.00  0.00     0.278 C
BRANCH  29  30
HETATM   30  O3  UNL     1      -6.805  16.803   1.504  1.00  0.00    -0.341 OA
BRANCH  30  31
HETATM   31  C10 UNL     1      -5.952  17.849   1.641  1.00  0.00     0.082 A
HETATM   32  C11 UNL     1      -6.306  19.159   1.388  1.00  0.00    -0.021 A
HETATM   33  C15 UNL     1      -5.336  20.155   1.570  1.00  0.00     0.010 A
HETATM   34  C16 UNL     1      -4.054  19.890   1.986  1.00  0.00     0.001 A
HETATM   35  C17 UNL     1      -3.731  18.578   2.230  1.00  0.00     0.010 A
HETATM   36  C18 UNL     1      -4.655  17.554   2.066  1.00  0.00    -0.021 A
BRANCH  32  37
HETATM   37  C12 UNL     1      -7.663  19.506   0.930  1.00  0.00     0.013 C
HETATM   38  C13 UNL     1      -8.150  20.639   1.868  1.00  0.00     0.015 C
HETATM   39  C14 UNL     1      -7.675  20.174  -0.442  1.00  0.00     0.015 C
ENDBRANCH  32  37
BRANCH  36  40
HETATM   40  C19 UNL     1      -4.256  16.163   2.378  1.00  0.00     0.013 C
HETATM   41  C20 UNL     1      -2.825  15.903   1.896  1.00  0.00     0.015 C
HETATM   42  C21 UNL     1      -4.349  15.960   3.872  1.00  0.00     0.015 C
ENDBRANCH  36  40
ENDBRANCH  30  31
ENDBRANCH  29  30
ENDBRANCH   6  29
TORSDOF 10
ENDMDL