MODEL 2
REMARK VINA RESULT: -8.209967235      2.088      2.746
REMARK  10 active torsions:
REMARK  status: ('A' for Active; 'I' for Inactive)
REMARK    1  A    between atoms: C2_2  and  C3_3
REMARK    2  A    between atoms: C3_3  and  C4_4
REMARK    3  A    between atoms: C4_4  and  C5_5
REMARK    4  A    between atoms: C5_5  and  O1_6
REMARK    5  A    between atoms: C11_13  and  C13_15
REMARK    6  A    between atoms: C19_21  and  C20_22
REMARK       I    between atoms: C20_22  and  N1_24
REMARK    7  A    between atoms: N1_24  and  C21_26
REMARK    8  A    between atoms: C21_26  and  C22_27
REMARK       I    between atoms: C22_27  and  N2_29
REMARK    9  A    between atoms: C23_31  and  C24_32
REMARK   10  A    between atoms: C24_32  and  N3_33
ROOT
HETATM    1  C13 UNL     1      -6.868  17.111  -2.443  1.00  0.00    -0.006 C
HETATM    2  C14 UNL     1      -8.001  18.074  -2.637  1.00  0.00     0.006 C
HETATM    3  C15 UNL     1      -7.680  18.936  -3.827  1.00  0.00     0.006 C
HETATM    4  C16 UNL     1      -7.682  18.323  -5.149  1.00  0.00    -0.005 C
HETATM    5  C17 UNL     1      -6.265  18.374  -5.743  1.00  0.00     0.006 C
HETATM    6  C18 UNL     1      -6.209  17.265  -6.733  1.00  0.00     0.015 C
HETATM    7  C19 UNL     1      -7.436  16.417  -6.536  1.00  0.00     0.086 C
HETATM    8  C28 UNL     1      -8.208  16.977  -5.361  1.00  0.00    -0.028 C
HETATM    9  C29 UNL     1      -9.676  17.080  -5.817  1.00  0.00     0.016 C
HETATM   10  C30 UNL     1      -8.201  15.985  -4.272  1.00  0.00     0.011 C
HETATM   11  C31 UNL     1      -7.031  15.957  -3.355  1.00  0.00     0.006 C
ENDROOT
BRANCH   1  12
HETATM   12  C11 UNL     1      -6.639  16.772  -0.987  1.00  0.00    -0.036 C
HETATM   13  C7  UNL     1      -5.365  17.190  -0.416  1.00  0.00     0.002 C
HETATM   14  C6  UNL     1      -4.186  16.338  -0.375  1.00  0.00     0.044 C
HETATM   15  C8  UNL     1      -5.738  17.183   1.084  1.00  0.00     0.001 C
HETATM   16  C5  UNL     1      -3.427  16.921   0.830  1.00  0.00     0.065 C
HETATM   17  C32 UNL     1      -4.470  17.630   1.669  1.00  0.00    -0.013 C
HETATM   18  C33 UNL     1      -4.412  17.162   3.122  1.00  0.00     0.018 C
HETATM   19  C34 UNL     1      -4.259  19.123   1.674  1.00  0.00     0.018 C
HETATM   20  C9  UNL     1      -6.882  18.098   1.054  1.00  0.00     0.007 C
HETATM   21  C10 UNL     1      -7.610  17.688  -0.213  1.00  0.00     0.010 C
HETATM   22  C12 UNL     1      -7.062  15.365  -0.643  1.00  0.00     0.016 C
BRANCH  16  23
HETATM   23  C4  UNL     1      -2.730  15.809   1.567  1.00  0.00     0.038 C
BRANCH  23  24
HETATM   24  C3  UNL     1      -1.243  15.959   1.276  1.00  0.00     0.002 C
BRANCH  24  25
HETATM   25  C2  UNL     1      -0.450  14.903   2.033  1.00  0.00    -0.004 C
HETATM   26  C1  UNL     1      -1.368  14.115   2.942  1.00  0.00     0.005 C
ENDBRANCH  24  25
ENDBRANCH  23  24
ENDBRANCH  16  23
BRANCH  16  27
HETATM   27  O1  UNL     1      -2.512  17.886   0.387  1.00  0.00    -0.389 OA
ATOM     28  H1  UNL     1      -1.976  17.550  -0.321  1.00  0.00     0.210 HD
ENDBRANCH  16  27
ENDBRANCH   1  12
BRANCH   7  29
HETATM   29  C20 UNL     1      -8.235  16.276  -7.770  1.00  0.00     0.223 C
HETATM   30  O2  UNL     1      -8.367  17.244  -8.564  1.00  0.00    -0.273 OA
HETATM   31  N1  UNL     1      -8.869  15.066  -8.096  1.00  0.00    -0.352 N
ATOM     32  H1  UNL     1      -8.782  14.264  -7.472  1.00  0.00     0.162 HD
BRANCH  31  33
HETATM   33  C21 UNL     1      -9.638  14.952  -9.302  1.00  0.00     0.225 C
BRANCH  33  34
HETATM   34  C22 UNL     1      -9.813  13.546  -9.732  1.00  0.00     0.238 C
HETATM   35  O3  UNL     1      -8.818  12.947 -10.210  1.00  0.00    -0.271 OA
HETATM   36  N2  UNL     1     -11.070  12.913  -9.601  1.00  0.00    -0.338 N
HETATM   37  C23 UNL     1     -12.076  13.579  -9.168  1.00  0.00     0.091 C
ATOM     38  H2  UNL     1     -11.176  11.929  -9.850  1.00  0.00     0.167 HD
BRANCH  37  39
HETATM   39  C24 UNL     1     -13.397  12.903  -9.032  1.00  0.00     0.280 C
BRANCH  39  40
HETATM   40  N3  UNL     1     -14.249  13.596  -8.115  1.00  0.00    -0.074 N
HETATM   41  C25 UNL     1     -13.583  14.874  -7.818  1.00  0.00     0.272 C
HETATM   42  C26 UNL     1     -14.393  12.833  -6.882  1.00  0.00     0.272 C
HETATM   43  C27 UNL     1     -15.569  13.844  -8.633  1.00  0.00     0.272 C
ENDBRANCH  39  40
ENDBRANCH  37  39
ENDBRANCH  33  34
ENDBRANCH  31  33
ENDBRANCH   7  29
TORSDOF 10
ENDMDL