MODEL 4
REMARK VINA RESULT: -7.593316768      3.229      6.560
REMARK  10 active torsions:
REMARK  status: ('A' for Active; 'I' for Inactive)
REMARK    1  A    between atoms: C2_2  and  C3_3
REMARK    2  A    between atoms: C2_2  and  C8_15
REMARK    3  A    between atoms: C3_3  and  O1_4
REMARK    4  A    between atoms: O1_4  and  C4_5
REMARK    5  A    between atoms: C4_5  and  C5_7
REMARK    6  A    between atoms: C10_17  and  O4_18
REMARK    7  A    between atoms: O4_18  and  C11_19
REMARK    8  A    between atoms: C13_22  and  O6_23
REMARK    9  A    between atoms: C14_25  and  C15_26
REMARK   10  A    between atoms: C15_26  and  O8_28
ROOT
HETATM    1  C8  UNL     1      -4.218   3.484  12.533  1.00  0.00     0.034 C
HETATM    2  C9  UNL     1      -3.519   2.153  12.855  1.00  0.00     0.045 C
HETATM    3  C10 UNL     1      -4.195   1.222  11.918  1.00  0.00     0.162 C
HETATM    4  C13 UNL     1      -4.779   2.045  10.836  1.00  0.00     0.162 C
HETATM    5  C14 UNL     1      -4.179   3.469  11.063  1.00  0.00     0.125 C
ENDROOT
BRANCH   1   6
HETATM    6  C2  UNL     1      -3.625   4.607  13.266  1.00  0.00    -0.060 C
HETATM    7  C1  UNL     1      -4.018   5.817  12.912  1.00  0.00     0.017 C
BRANCH   6   8
HETATM    8  C3  UNL     1      -2.679   4.471  14.389  1.00  0.00     0.212 C
BRANCH   8   9
HETATM    9  O1  UNL     1      -3.194   4.169  15.640  1.00  0.00    -0.314 OA
BRANCH   9  10
HETATM   10  C4  UNL     1      -3.646   2.932  16.079  1.00  0.00     0.308 C
HETATM   11  O2  UNL     1      -2.802   2.063  16.378  1.00  0.00    -0.260 OA
BRANCH  10  12
HETATM   12  C5  UNL     1      -5.094   2.637  16.187  1.00  0.00     0.197 C
HETATM   13  C6  UNL     1      -6.028   3.709  15.742  1.00  0.00     0.075 C
HETATM   14  N1  UNL     1      -5.436   1.266  15.803  1.00  0.00    -0.308 N
HETATM   15  C7  UNL     1      -6.143   1.045  17.015  1.00  0.00     0.320 C
ATOM     16  H1  UNL     1      -5.241   0.693  14.982  1.00  0.00     0.167 HD
HETATM   17  O3  UNL     1      -7.002   0.216  17.448  1.00  0.00    -0.247 OA
HETATM   18  N2  UNL     1      -5.458   2.176  17.532  1.00  0.00    -0.308 N
ATOM     19  H2  UNL     1      -5.285   2.530  18.472  1.00  0.00     0.167 HD
ENDBRANCH  10  12
ENDBRANCH   9  10
ENDBRANCH   8   9
ENDBRANCH   6   8
ENDBRANCH   1   6
BRANCH   5  20
HETATM   20  C15 UNL     1      -2.934   3.629  10.354  1.00  0.00     0.265 C
HETATM   21  O7  UNL     1      -2.854   4.414   9.373  1.00  0.00    -0.265 OA
BRANCH  20  22
HETATM   22  O8  UNL     1      -1.743   2.973  10.653  1.00  0.00    -0.326 OA
HETATM   23  C16 UNL     1      -0.582   3.597  11.100  1.00  0.00     0.213 C
ENDBRANCH  20  22
ENDBRANCH   5  20
BRANCH   3  24
HETATM   24  O4  UNL     1      -3.389   0.161  11.470  1.00  0.00    -0.314 OA
BRANCH  24  25
HETATM   25  C11 UNL     1      -3.685  -1.157  11.739  1.00  0.00     0.255 C
HETATM   26  C12 UNL     1      -2.708  -2.263  11.558  1.00  0.00     0.126 C
HETATM   27  O5  UNL     1      -4.826  -1.404  12.149  1.00  0.00    -0.266 OA
ENDBRANCH  24  25
ENDBRANCH   3  24
BRANCH   4  28
HETATM   28  O6  UNL     1      -6.168   2.200  11.035  1.00  0.00    -0.392 OA
ATOM     29  H6  UNL     1      -6.564   1.364  11.252  1.00  0.00     0.210 HD
ENDBRANCH   4  28
TORSDOF 10
ENDMDL