MODEL 5
REMARK VINA RESULT: -7.995314070      3.309      7.554
REMARK  9 active torsions:
REMARK  status: ('A' for Active; 'I' for Inactive)
REMARK    1  A    between atoms: C2_2  and  C3_3
REMARK    2  A    between atoms: C3_3  and  C5_5
REMARK    3  A    between atoms: C5_5  and  O2_7
REMARK    4  A    between atoms: O2_7  and  C6_8
REMARK    5  A    between atoms: C9_12  and  C10_13
REMARK    6  A    between atoms: C10_13  and  C11_15
REMARK    7  A    between atoms: C13_17  and  C15_19
REMARK    8  A    between atoms: C16_23  and  O8_24
REMARK    9  A    between atoms: C17_26  and  O9_27
ROOT
HETATM    1  C6  UNL     1      -3.830   5.558  11.177  1.00  0.00     0.191 C
HETATM    2  C7  UNL     1      -3.253   6.009  12.508  1.00  0.00     0.150 C
HETATM    3  C8  UNL     1      -3.512   7.505  12.599  1.00  0.00     0.042 C
HETATM    4  O3  UNL     1      -3.960   5.415  13.547  1.00  0.00    -0.368 OA
HETATM    5  C9  UNL     1      -4.006   4.049  13.471  1.00  0.00     0.225 C
HETATM    6  C16 UNL     1      -3.210   3.492  12.310  1.00  0.00     0.185 C
HETATM    7  C17 UNL     1      -3.807   4.057  11.041  1.00  0.00     0.181 C
ENDROOT
BRANCH   5   8
HETATM    8  C10 UNL     1      -3.582   3.472  14.763  1.00  0.00     0.186 C
HETATM    9  O4  UNL     1      -2.583   3.891  15.300  1.00  0.00    -0.292 OA
BRANCH   8  10
HETATM   10  C11 UNL     1      -4.361   2.396  15.402  1.00  0.00     0.199 C
HETATM   11  C12 UNL     1      -5.838   2.394  15.069  1.00  0.00     0.089 C
HETATM   12  C13 UNL     1      -5.964   2.347  16.587  1.00  0.00     0.148 C
HETATM   13  C14 UNL     1      -6.839   3.472  17.133  1.00  0.00     0.058 C
HETATM   14  O7  UNL     1      -4.607   2.545  16.749  1.00  0.00    -0.356 OA
BRANCH  12  15
HETATM   15  C15 UNL     1      -6.457   1.022  17.062  1.00  0.00     0.209 C
HETATM   16  O5  UNL     1      -7.672   0.938  17.372  1.00  0.00    -0.646 OA
HETATM   17  O6  UNL     1      -5.644  -0.092  17.169  1.00  0.00    -0.646 OA
ENDBRANCH  12  15
ENDBRANCH   8  10
ENDBRANCH   5   8
BRANCH   6  18
HETATM   18  O8  UNL     1      -3.385   2.118  12.294  1.00  0.00    -0.390 OA
ATOM     19  H8  UNL     1      -4.063   1.917  11.660  1.00  0.00     0.210 HD
ENDBRANCH   6  18
BRANCH   7  20
HETATM   20  O9  UNL     1      -5.047   3.501  10.830  1.00  0.00    -0.390 OA
ATOM     21  H9  UNL     1      -5.158   3.133   9.962  1.00  0.00     0.210 HD
ENDBRANCH   7  20
BRANCH   1  22
HETATM   22  O2  UNL     1      -5.137   6.091  11.128  1.00  0.00    -0.310 OA
BRANCH  22  23
HETATM   23  C5  UNL     1      -5.644   6.780  10.041  1.00  0.00     0.263 C
HETATM   24  O1  UNL     1      -5.218   6.439   8.912  1.00  0.00    -0.265 OA
BRANCH  23  25
HETATM   25  C3  UNL     1      -6.637   7.872  10.155  1.00  0.00     0.081 C
HETATM   26  C4  UNL     1      -7.131   7.984  11.586  1.00  0.00     0.020 C
BRANCH  25  27
HETATM   27  C2  UNL     1      -7.778   7.568   9.216  1.00  0.00     0.010 C
HETATM   28  C1  UNL     1      -8.368   8.827   8.616  1.00  0.00     0.006 C
ENDBRANCH  25  27
ENDBRANCH  23  25
ENDBRANCH  22  23
ENDBRANCH   1  22
TORSDOF 9
ENDMDL