MODEL 2
REMARK VINA RESULT: -7.510980426      1.802      4.560
REMARK  7 active torsions:
REMARK  status: ('A' for Active; 'I' for Inactive)
REMARK    1  A    between atoms: C2_2  and  O1_3
REMARK    2  A    between atoms: O1_3  and  C3_4
REMARK    3  A    between atoms: C6_8  and  C8_10
REMARK    4  A    between atoms: C10_14  and  O5_15
REMARK    5  A    between atoms: O5_15  and  C11_16
REMARK    6  A    between atoms: C13_19  and  C14_20
REMARK    7  A    between atoms: C16_25  and  O10_26
ROOT
HETATM    1  C3  UNL     1      -2.537   3.579  11.376  1.00  0.00     0.144 C
HETATM    2  C4  UNL     1      -3.523   3.975  10.349  1.00  0.00     0.297 C
HETATM    3  O2  UNL     1      -3.961   5.308  10.558  1.00  0.00    -0.357 OA
HETATM    4  C5  UNL     1      -4.715   5.376  11.732  1.00  0.00     0.192 C
HETATM    5  C6  UNL     1      -3.758   5.130  12.877  1.00  0.00     0.075 C
HETATM    6  C7  UNL     1      -2.653   6.186  12.714  1.00  0.00     0.029 C
HETATM    7  C9  UNL     1      -3.074   3.801  12.804  1.00  0.00     0.080 C
HETATM    8  C10 UNL     1      -3.945   2.610  13.044  1.00  0.00     0.164 C
HETATM    9  C13 UNL     1      -3.759   1.681  11.859  1.00  0.00     0.125 C
HETATM   10  C15 UNL     1      -4.757   2.028  10.797  1.00  0.00     0.197 C
HETATM   11  O9  UNL     1      -4.651   3.227  10.223  1.00  0.00    -0.357 OA
HETATM   12  C16 UNL     1      -2.357   2.078  11.407  1.00  0.00     0.182 C
ENDROOT
BRANCH   5  13
HETATM   13  C8  UNL     1      -4.361   5.353  14.189  1.00  0.00     0.184 C
HETATM   14  O3  UNL     1      -3.673   5.469  15.221  1.00  0.00    -0.647 OA
HETATM   15  O4  UNL     1      -5.739   5.440  14.301  1.00  0.00    -0.647 OA
ENDBRANCH   5  13
BRANCH   1  16
HETATM   16  O1  UNL     1      -1.373   4.272  11.293  1.00  0.00    -0.372 OA
BRANCH  16  17
HETATM   17  C2  UNL     1      -0.228   3.690  11.741  1.00  0.00     0.164 C
HETATM   18  C1  UNL     1       0.865   4.043  10.713  1.00  0.00     0.033 C
ENDBRANCH  16  17
ENDBRANCH   1  16
BRANCH   8  19
HETATM   19  O5  UNL     1      -3.408   1.895  14.168  1.00  0.00    -0.314 OA
BRANCH  19  20
HETATM   20  C11 UNL     1      -3.907   1.976  15.437  1.00  0.00     0.255 C
HETATM   21  C12 UNL     1      -5.364   2.228  15.636  1.00  0.00     0.126 C
HETATM   22  O6  UNL     1      -3.150   1.838  16.409  1.00  0.00    -0.266 OA
ENDBRANCH  19  20
ENDBRANCH   8  19
BRANCH  12  23
HETATM   23  O10 UNL     1      -2.059   1.544  10.159  1.00  0.00    -0.391 OA
ATOM     24  H10 UNL     1      -1.159   1.699   9.897  1.00  0.00     0.210 HD
ENDBRANCH  12  23
BRANCH   9  25
HETATM   25  C14 UNL     1      -3.818   0.261  12.249  1.00  0.00     0.189 C
HETATM   26  O7  UNL     1      -4.672  -0.175  13.066  1.00  0.00    -0.647 OA
HETATM   27  O8  UNL     1      -2.925  -0.636  11.718  1.00  0.00    -0.647 OA
ENDBRANCH   9  25
TORSDOF 7
ENDMDL