MODEL 1
REMARK VINA RESULT: -7.227092514      0.000      0.000
REMARK  11 active torsions:
REMARK  status: ('A' for Active; 'I' for Inactive)
REMARK    1  A    between atoms: O1_2  and  C2_3
REMARK    2  A    between atoms: C2_3  and  C3_5
REMARK    3  A    between atoms: C3_5  and  N1_6
REMARK    4  A    between atoms: N1_6  and  O3_7
REMARK    5  A    between atoms: N1_6  and  C4_9
REMARK    6  A    between atoms: C5_11  and  C6_12
REMARK    7  A    between atoms: C6_12  and  O5_15
REMARK    8  A    between atoms: C11_19  and  C12_20
REMARK    9  A    between atoms: C13_21  and  C14_22
REMARK   10  A    between atoms: C14_22  and  O6_23
REMARK   11  A    between atoms: C17_30  and  O7_31
ROOT
HETATM    1  C3  UNL     1      -3.437   3.699  12.389  1.00  0.00     0.190 C
HETATM    2  C5  UNL     1      -3.858   4.653  13.416  1.00  0.00     0.074 C
HETATM    3  C9  UNL     1      -5.072   3.793  13.674  1.00  0.00     0.067 C
HETATM    4  C10 UNL     1      -5.259   3.478  15.088  1.00  0.00    -0.040 C
HETATM    5  C11 UNL     1      -6.225   3.877  15.906  1.00  0.00     0.005 C
HETATM    6  C15 UNL     1      -4.115   2.586  15.466  1.00  0.00     0.249 A
HETATM    7  N2  UNL     1      -4.313   1.175  15.209  1.00  0.00    -0.055 N
ATOM      8  H21 UNL     1      -5.136   0.573  15.203  1.00  0.00     0.278 HD
ATOM      9  H22 UNL     1      -4.071   0.328  15.724  1.00  0.00     0.278 HD
HETATM   10  C16 UNL     1      -3.639   1.942  14.191  1.00  0.00     0.259 A
HETATM   11  C17 UNL     1      -4.276   2.645  13.086  1.00  0.00     0.136 C
ENDROOT
BRANCH   1  12
HETATM   12  C2  UNL     1      -4.014   3.871  11.014  1.00  0.00     0.293 C
HETATM   13  O2  UNL     1      -5.224   4.124  10.890  1.00  0.00    -0.262 OA
BRANCH  12  14
HETATM   14  O1  UNL     1      -3.274   3.767   9.848  1.00  0.00    -0.324 OA
HETATM   15  C1  UNL     1      -2.938   4.931   9.117  1.00  0.00     0.213 C
ENDBRANCH  12  14
ENDBRANCH   1  12
BRANCH   1  16
HETATM   16  N1  UNL     1      -2.045   3.367  12.338  1.00  0.00    -0.212 N
BRANCH  16  17
HETATM   17  O3  UNL     1      -1.215   4.004  13.241  1.00  0.00    -0.284 OA
ATOM     18  H3  UNL     1      -1.466   3.967  14.157  1.00  0.00     0.245 HD
ENDBRANCH  16  17
BRANCH  16  19
HETATM   19  C4  UNL     1      -1.378   2.488  11.479  1.00  0.00     0.378 C
HETATM   20  O4  UNL     1      -1.281   1.245  11.677  1.00  0.00    -0.281 OA
ENDBRANCH  16  19
ENDBRANCH   1  16
BRANCH   2  21
HETATM   21  C6  UNL     1      -4.031   6.086  13.227  1.00  0.00     0.058 C
HETATM   22  C7  UNL     1      -3.287   6.825  12.201  1.00  0.00     0.046 C
HETATM   23  C8  UNL     1      -3.774   6.778  14.572  1.00  0.00     0.046 C
BRANCH  21  24
HETATM   24  O5  UNL     1      -5.412   6.317  12.988  1.00  0.00    -0.390 OA
ATOM     25  H5  UNL     1      -5.885   6.003  13.749  1.00  0.00     0.210 HD
ENDBRANCH  21  24
ENDBRANCH   2  21
BRANCH  11  26
HETATM   26  O7  UNL     1      -4.954   1.895  12.140  1.00  0.00    -0.379 OA
HETATM   27  C18 UNL     1      -4.630   0.605  11.958  1.00  0.00     0.202 C
ENDBRANCH  11  26
BRANCH   5  28
HETATM   28  C12 UNL     1      -6.294   3.494  17.280  1.00  0.00    -0.002 C
HETATM   29  C13 UNL     1      -6.850   2.417  17.727  1.00  0.00    -0.001 C
BRANCH  29  30
HETATM   30  C14 UNL     1      -7.492   1.438  16.850  1.00  0.00     0.191 C
BRANCH  30  31
HETATM   31  O6  UNL     1      -6.740   0.261  16.822  1.00  0.00    -0.397 OA
ATOM     32  H6  UNL     1      -5.861   0.448  16.515  1.00  0.00     0.209 HD
ENDBRANCH  30  31
ENDBRANCH  29  30
ENDBRANCH   5  28
TORSDOF 11
ENDMDL