MODEL 1
REMARK VINA RESULT: -7.248031850      0.000      0.000
REMARK  12 active torsions:
REMARK  status: ('A' for Active; 'I' for Inactive)
REMARK    1  A    between atoms: O1_2  and  C2_3
REMARK    2  A    between atoms: C6_7  and  O2_8
REMARK    3  A    between atoms: N1_11  and  C8_12
REMARK    4  A    between atoms: C8_12  and  C9_13
REMARK    5  A    between atoms: C9_13  and  N2_14
REMARK    6  A    between atoms: N2_14  and  O3_15
REMARK    7  A    between atoms: N2_14  and  O4_17
REMARK    8  A    between atoms: C10_19  and  N3_20
REMARK    9  A    between atoms: N3_20  and  N4_22
REMARK   10  A    between atoms: N4_22  and  N5_23
REMARK   11  A    between atoms: C11_26  and  O5_27
REMARK   12  A    between atoms: O5_27  and  C12_28
ROOT
HETATM    1  C2  UNL     1      -2.415   5.613  13.257  1.00  0.00     0.098 C
HETATM    2  C3  UNL     1      -3.217   6.905  13.494  1.00  0.00     0.042 C
HETATM    3  C4  UNL     1      -3.876   6.709  14.870  1.00  0.00     0.012 C
HETATM    4  C5  UNL     1      -3.475   5.290  15.223  1.00  0.00     0.052 C
HETATM    5  C6  UNL     1      -2.043   5.356  14.704  1.00  0.00     0.160 C
HETATM    6  C7  UNL     1      -4.163   4.389  14.231  1.00  0.00     0.246 C
HETATM    7  N1  UNL     1      -4.051   2.990  14.557  1.00  0.00     0.123 N
HETATM    8  C10 UNL     1      -3.798   2.292  13.310  1.00  0.00     0.380 C
HETATM    9  C11 UNL     1      -2.934   3.257  12.484  1.00  0.00     0.200 C
HETATM   10  C14 UNL     1      -3.441   4.573  12.912  1.00  0.00     0.052 C
HETATM   11  C15 UNL     1      -4.424   5.064  11.861  1.00  0.00     0.023 C
ENDROOT
BRANCH   7  12
HETATM   12  C8  UNL     1      -5.326   2.572  15.109  1.00  0.00     0.295 C
BRANCH  12  13
HETATM   13  C9  UNL     1      -5.146   1.840  16.421  1.00  0.00     0.183 C
BRANCH  13  14
HETATM   14  N2  UNL     1      -5.619   0.461  16.232  1.00  0.00    -0.072 NA
BRANCH  14  15
HETATM   15  O3  UNL     1      -5.853  -0.118  17.424  1.00  0.00    -0.289 OA
ATOM     16  H3  UNL     1      -6.603  -0.698  17.365  1.00  0.00     0.239 HD
ENDBRANCH  14  15
BRANCH  14  17
HETATM   17  O4  UNL     1      -4.729  -0.270  15.518  1.00  0.00    -0.289 OA
ATOM     18  H4  UNL     1      -4.967  -0.301  14.599  1.00  0.00     0.239 HD
ENDBRANCH  14  17
ENDBRANCH  13  14
ENDBRANCH  12  13
ENDBRANCH   7  12
BRANCH   8  19
HETATM   19  N3  UNL     1      -5.020   2.050  12.576  1.00  0.00    -0.216 N
ATOM     20  H3  UNL     1      -5.829   2.627  12.809  1.00  0.00     0.199 HD
BRANCH  19  21
HETATM   21  N4  UNL     1      -5.159   1.221  11.711  1.00  0.00    -0.246 NA
BRANCH  21  22
HETATM   22  N5  UNL     1      -5.180   0.528  10.689  1.00  0.00    -0.261 N
ATOM     23  H52 UNL     1      -4.453   1.115  10.281  1.00  0.00     0.193 HD
ATOM     24  H51 UNL     1      -5.338  -0.147   9.941  1.00  0.00     0.193 HD
ENDBRANCH  21  22
ENDBRANCH  19  21
ENDBRANCH   8  19
BRANCH   9  25
HETATM   25  O5  UNL     1      -3.143   3.011  11.085  1.00  0.00    -0.311 OA
BRANCH  25  26
HETATM   26  C12 UNL     1      -2.142   2.500  10.270  1.00  0.00     0.255 C
HETATM   27  C13 UNL     1      -1.008   3.348   9.784  1.00  0.00     0.126 C
HETATM   28  O6  UNL     1      -2.164   1.292   9.917  1.00  0.00    -0.266 OA
ENDBRANCH  25  26
ENDBRANCH   9  25
BRANCH   5  29
HETATM   29  O2  UNL     1      -1.332   4.219  14.941  1.00  0.00    -0.392 OA
ATOM     30  H2  UNL     1      -0.443   4.211  14.608  1.00  0.00     0.210 HD
ENDBRANCH   5  29
BRANCH   1  31
HETATM   31  O1  UNL     1      -1.397   5.733  12.388  1.00  0.00    -0.381 OA
HETATM   32  C1  UNL     1      -0.498   6.742  12.553  1.00  0.00     0.202 C
ENDBRANCH   1  31
TORSDOF 12
ENDMDL