MODEL 3
REMARK VINA RESULT: -6.139763761      3.712      5.765
REMARK  10 active torsions:
REMARK  status: ('A' for Active; 'I' for Inactive)
REMARK    1  A    between atoms: O1_2  and  C2_3
REMARK    2  A    between atoms: C2_3  and  C3_5
REMARK    3  A    between atoms: C4_7  and  N1_8
REMARK    4  A    between atoms: N1_8  and  C5_10
REMARK    5  A    between atoms: C5_10  and  C6_11
REMARK    6  A    between atoms: C5_10  and  C7_13
REMARK    7  A    between atoms: C7_13  and  O4_14
REMARK    8  A    between atoms: C7_13  and  N2_16
REMARK    9  A    between atoms: C9_18  and  C10_19
REMARK   10  A    between atoms: C10_19  and  O5_20
ROOT
HETATM    1  N1  UNL     1      -2.105   3.497  12.242  1.00  0.00    -0.394 N
ATOM      2  H1  UNL     1      -1.373   3.076  12.814  1.00  0.00     0.155 HD
ENDROOT
BRANCH   1   3
HETATM    3  C4  UNL     1      -1.674   4.394  11.310  1.00  0.00     0.154 C
HETATM    4  S1  UNL     1       0.014   4.940  11.916  1.00  0.00    -0.128 SA
HETATM    5  C3  UNL     1       0.889   4.790  10.317  1.00  0.00     0.154 C
HETATM    6  C15 UNL     1      -0.005   3.810   9.610  1.00  0.00     0.026 C
HETATM    7  C12 UNL     1      -1.422   4.236   9.916  1.00  0.00     0.085 C
HETATM    8  C14 UNL     1       0.148   4.033   8.121  1.00  0.00     0.017 C
HETATM    9  S2  UNL     1      -1.268   5.944   9.161  1.00  0.00    -0.161 SA
HETATM   10  C13 UNL     1      -0.132   5.457   7.802  1.00  0.00     0.075 C
BRANCH   5  11
HETATM   11  C2  UNL     1       2.269   4.339  10.462  1.00  0.00     0.272 C
HETATM   12  O2  UNL     1       2.775   3.602   9.573  1.00  0.00    -0.264 OA
BRANCH  11  13
HETATM   13  O1  UNL     1       3.022   4.701  11.553  1.00  0.00    -0.326 OA
HETATM   14  C1  UNL     1       4.161   5.524  11.513  1.00  0.00     0.213 C
ENDBRANCH  11  13
ENDBRANCH   5  11
ENDBRANCH   1   3
BRANCH   1  15
HETATM   15  C5  UNL     1      -3.383   3.080  12.519  1.00  0.00     0.199 C
BRANCH  15  16
HETATM   16  C6  UNL     1      -4.263   4.167  12.994  1.00  0.00     0.260 C
HETATM   17  O3  UNL     1      -5.303   4.084  13.575  1.00  0.00    -0.304 OA
ENDBRANCH  15  16
BRANCH  15  18
HETATM   18  C7  UNL     1      -4.121   2.440  11.334  1.00  0.00     0.385 C
BRANCH  18  19
HETATM   19  O4  UNL     1      -5.132   3.307  10.890  1.00  0.00    -0.366 OA
ATOM     20  H4  UNL     1      -5.724   2.834  10.316  1.00  0.00     0.212 HD
ENDBRANCH  18  19
BRANCH  18  21
HETATM   21  N2  UNL     1      -4.771   1.200  11.700  1.00  0.00     0.120 N
HETATM   22  C8  UNL     1      -4.578   0.107  10.762  1.00  0.00     0.284 C
HETATM   23  C9  UNL     1      -4.104  -0.836  11.840  1.00  0.00     0.066 C
HETATM   24  C11 UNL     1      -3.951   0.435  12.642  1.00  0.00     0.284 C
BRANCH  23  25
HETATM   25  C10 UNL     1      -2.828  -1.582  11.542  1.00  0.00     0.172 C
BRANCH  25  26
HETATM   26  O5  UNL     1      -3.031  -2.965  11.586  1.00  0.00    -0.400 OA
ATOM     27  H5  UNL     1      -2.536  -3.405  10.904  1.00  0.00     0.209 HD
ENDBRANCH  25  26
ENDBRANCH  23  25
ENDBRANCH  18  21
ENDBRANCH  15  18
ENDBRANCH   1  15
TORSDOF 10
ENDMDL