MODEL 1
REMARK VINA RESULT: -7.689927753      0.000      0.000
REMARK  9 active torsions:
REMARK  status: ('A' for Active; 'I' for Inactive)
REMARK    1  A    between atoms: O1_2  and  C2_3
REMARK    2  A    between atoms: C4_7  and  C5_8
REMARK    3  A    between atoms: C7_11  and  C8_12
REMARK    4  A    between atoms: C9_13  and  C10_14
REMARK    5  A    between atoms: C11_15  and  O2_16
REMARK    6  A    between atoms: C13_20  and  O4_21
REMARK    7  A    between atoms: C14_23  and  O5_24
REMARK    8  A    between atoms: C15_26  and  C16_27
REMARK    9  A    between atoms: C16_27  and  C17_28
ROOT
HETATM    1  C5  UNL     1      -1.376   4.646  10.756  1.00  0.00     0.176 C
HETATM    2  C6  UNL     1      -1.584   3.291  10.269  1.00  0.00     0.064 C
HETATM    3  N2  UNL     1      -1.764   2.198   9.892  1.00  0.00    -0.197 NA
ENDROOT
BRANCH   1   4
HETATM    4  C4  UNL     1      -2.683   5.306  10.944  1.00  0.00     0.004 C
HETATM    5  N1  UNL     1      -2.860   6.462  11.426  1.00  0.00    -0.387 N
HETATM    6  C3  UNL     1      -4.201   6.761  11.466  1.00  0.00     0.118 A
ATOM      7  H1  UNL     1      -2.114   7.084  11.738  1.00  0.00     0.159 HD
HETATM    8  C2  UNL     1      -5.258   7.183  10.634  1.00  0.00     0.151 A
HETATM    9  C19 UNL     1      -4.580   6.082  10.116  1.00  0.00     0.055 A
HETATM   10  C7  UNL     1      -4.056   4.768  10.548  1.00  0.00     0.063 C
BRANCH   8  11
HETATM   11  O1  UNL     1      -6.591   7.031  11.005  1.00  0.00    -0.388 OA
HETATM   12  C1  UNL     1      -7.144   8.149  11.604  1.00  0.00     0.202 C
ENDBRANCH   8  11
BRANCH  10  13
HETATM   13  C8  UNL     1      -4.729   4.016  11.571  1.00  0.00    -0.019 C
HETATM   14  C9  UNL     1      -4.048   3.282  12.453  1.00  0.00    -0.022 C
BRANCH  14  15
HETATM   15  C10 UNL     1      -4.685   2.479  13.535  1.00  0.00     0.047 C
HETATM   16  C11 UNL     1      -4.249   1.049  13.444  1.00  0.00     0.158 C
HETATM   17  C12 UNL     1      -4.040   0.536  14.839  1.00  0.00     0.194 A
HETATM   18  O3  UNL     1      -5.148   0.055  15.503  1.00  0.00    -0.347 OA
HETATM   19  C14 UNL     1      -4.069   1.752  15.739  1.00  0.00     0.140 A
HETATM   20  C13 UNL     1      -5.290   1.107  16.378  1.00  0.00     0.294 A
HETATM   21  C15 UNL     1      -4.360   2.952  14.913  1.00  0.00     0.045 C
BRANCH  16  22
HETATM   22  O2  UNL     1      -3.082   0.917  12.676  1.00  0.00    -0.392 OA
ATOM     23  H2  UNL     1      -3.126   1.445  11.887  1.00  0.00     0.210 HD
ENDBRANCH  16  22
BRANCH  20  24
HETATM   24  O4  UNL     1      -5.105   0.746  17.703  1.00  0.00    -0.368 OA
ATOM     25  H4  UNL     1      -4.841   1.472  18.256  1.00  0.00     0.212 HD
ENDBRANCH  20  24
BRANCH  19  26
HETATM   26  O5  UNL     1      -2.994   1.748  16.585  1.00  0.00    -0.382 OA
ATOM     27  H5  UNL     1      -3.273   1.909  17.479  1.00  0.00     0.211 HD
ENDBRANCH  19  26
BRANCH  21  28
HETATM   28  C16 UNL     1      -3.356   4.049  14.940  1.00  0.00     0.086 C
BRANCH  28  29
HETATM   29  C17 UNL     1      -3.980   5.375  14.938  1.00  0.00     0.123 C
HETATM   30  C18 UNL     1      -5.448   5.557  15.172  1.00  0.00     0.091 C
HETATM   31  O6  UNL     1      -3.339   6.423  14.748  1.00  0.00    -0.298 OA
ENDBRANCH  28  29
ENDBRANCH  21  28
ENDBRANCH  14  15
ENDBRANCH  10  13
ENDBRANCH   1   4
TORSDOF 9
ENDMDL