MODEL 4
REMARK VINA RESULT: -7.428094119      1.652      5.281
REMARK  9 active torsions:
REMARK  status: ('A' for Active; 'I' for Inactive)
REMARK    1  A    between atoms: C2_2  and  C3_3
REMARK    2  A    between atoms: C7_7  and  O1_8
REMARK    3  A    between atoms: O1_8  and  C8_9
REMARK    4  A    between atoms: C9_11  and  C10_12
REMARK    5  A    between atoms: C10_12  and  O3_13
REMARK    6  A    between atoms: C11_15  and  O4_16
REMARK    7  A    between atoms: C12_18  and  O5_19
REMARK    8  A    between atoms: C13_21  and  C14_22
REMARK    9  A    between atoms: C14_22  and  C15_23
ROOT
HETATM    1  C3  UNL     1      -2.878   6.140  14.277  1.00  0.00     0.073 C
HETATM    2  C4  UNL     1      -1.460   5.642  14.401  1.00  0.00     0.155 C
HETATM    3  C5  UNL     1      -1.066   5.054  13.077  1.00  0.00     0.004 C
HETATM    4  C6  UNL     1      -1.666   4.113  12.432  1.00  0.00     0.008 C
HETATM    5  C7  UNL     1      -2.902   3.305  12.740  1.00  0.00     0.178 C
HETATM    6  C13 UNL     1      -3.762   3.826  13.762  1.00  0.00    -0.021 C
HETATM    7  C19 UNL     1      -3.169   4.774  14.780  1.00  0.00     0.164 C
HETATM    8  O8  UNL     1      -1.909   4.580  15.189  1.00  0.00    -0.371 OA
ENDROOT
BRANCH   5   9
HETATM    9  O1  UNL     1      -3.572   3.342  11.472  1.00  0.00    -0.345 OA
BRANCH   9  10
HETATM   10  C8  UNL     1      -3.508   2.184  10.768  1.00  0.00     0.292 C
HETATM   11  O2  UNL     1      -2.965   1.214  11.646  1.00  0.00    -0.348 OA
HETATM   12  C9  UNL     1      -3.394   0.033  11.072  1.00  0.00     0.179 C
HETATM   13  C11 UNL     1      -4.888   0.261  10.981  1.00  0.00     0.182 C
HETATM   14  C12 UNL     1      -4.935   1.686  10.499  1.00  0.00     0.204 C
BRANCH  12  15
HETATM   15  C10 UNL     1      -3.104  -1.172  11.930  1.00  0.00     0.198 C
BRANCH  15  16
HETATM   16  O3  UNL     1      -3.075  -2.290  11.111  1.00  0.00    -0.398 OA
ATOM     17  H3  UNL     1      -2.226  -2.323  10.686  1.00  0.00     0.209 HD
ENDBRANCH  15  16
ENDBRANCH  12  15
BRANCH  13  18
HETATM   18  O4  UNL     1      -5.520  -0.628  10.134  1.00  0.00    -0.390 OA
ATOM     19  H4  UNL     1      -5.425  -1.533  10.407  1.00  0.00     0.210 HD
ENDBRANCH  13  18
BRANCH  14  20
HETATM   20  O5  UNL     1      -5.860   2.427  11.229  1.00  0.00    -0.388 OA
ATOM     21  H5  UNL     1      -6.682   2.495  10.758  1.00  0.00     0.210 HD
ENDBRANCH  14  20
ENDBRANCH   9  10
ENDBRANCH   5   9
BRANCH   6  22
HETATM   22  C14 UNL     1      -4.713   2.905  14.418  1.00  0.00    -0.004 C
BRANCH  22  23
HETATM   23  C15 UNL     1      -4.578   2.304  15.712  1.00  0.00     0.110 C
HETATM   24  C16 UNL     1      -5.889   2.734  16.547  1.00  0.00     0.045 C
HETATM   25  C17 UNL     1      -5.740   1.879  17.762  1.00  0.00     0.180 C
HETATM   26  O6  UNL     1      -4.818   0.845  17.433  1.00  0.00    -0.321 OA
HETATM   27  C18 UNL     1      -4.691   0.876  15.997  1.00  0.00     0.266 C
HETATM   28  O7  UNL     1      -4.706  -0.196  15.388  1.00  0.00    -0.265 OA
ENDBRANCH  22  23
ENDBRANCH   6  22
BRANCH   1  29
HETATM   29  C2  UNL     1      -3.222   7.238  15.211  1.00  0.00    -0.027 C
HETATM   30  C1  UNL     1      -2.470   8.275  15.460  1.00  0.00     0.007 C
ENDBRANCH   1  29
TORSDOF 9
ENDMDL