MODEL 4
REMARK VINA RESULT: -7.082763154      2.179      3.747
REMARK  10 active torsions:
REMARK  status: ('A' for Active; 'I' for Inactive)
REMARK    1  A    between atoms: C2_2  and  C3_3
REMARK    2  A    between atoms: C5_5  and  N1_6
REMARK    3  A    between atoms: N1_6  and  C6_7
REMARK       I    between atoms: N1_6  and  C10_11
REMARK    4  A    between atoms: C6_7  and  C7_8
REMARK    5  A    between atoms: C10_11  and  O2_13
REMARK    6  A    between atoms: C13_16  and  O3_17
REMARK    7  A    between atoms: O3_17  and  C14_18
REMARK    8  A    between atoms: C16_21  and  O5_22
REMARK    9  A    between atoms: C17_24  and  O6_25
REMARK   10  A    between atoms: C18_27  and  O7_28
ROOT
HETATM    1  C3  UNL     1      -5.985   4.288  14.882  1.00  0.00     0.126 C
HETATM    2  C4  UNL     1      -5.361   5.463  14.162  1.00  0.00     0.057 C
HETATM    3  C5  UNL     1      -3.853   5.465  14.338  1.00  0.00     0.096 C
HETATM    4  C12 UNL     1      -3.401   4.163  13.714  1.00  0.00     0.086 C
HETATM    5  C13 UNL     1      -3.960   3.106  14.688  1.00  0.00     0.265 C
HETATM    6  O8  UNL     1      -5.315   3.113  14.734  1.00  0.00    -0.356 OA
ENDROOT
BRANCH   5   7
HETATM    7  O3  UNL     1      -3.559   1.852  14.237  1.00  0.00    -0.329 OA
BRANCH   7   8
HETATM    8  C14 UNL     1      -3.684   1.787  12.869  1.00  0.00     0.294 C
HETATM    9  O4  UNL     1      -2.508   1.280  12.270  1.00  0.00    -0.356 OA
HETATM   10  C15 UNL     1      -2.591   1.654  10.915  1.00  0.00     0.205 C
HETATM   11  C16 UNL     1      -3.663   0.830  10.265  1.00  0.00     0.173 C
HETATM   12  C17 UNL     1      -4.993   1.080  10.945  1.00  0.00     0.182 C
HETATM   13  C18 UNL     1      -4.790   0.839  12.438  1.00  0.00     0.204 C
BRANCH  11  14
HETATM   14  O5  UNL     1      -3.316  -0.518  10.330  1.00  0.00    -0.391 OA
ATOM     15  H5  UNL     1      -3.363  -0.900   9.461  1.00  0.00     0.210 HD
ENDBRANCH  11  14
BRANCH  12  16
HETATM   16  O6  UNL     1      -5.285   2.436  10.806  1.00  0.00    -0.390 OA
ATOM     17  H6  UNL     1      -4.470   2.886  10.619  1.00  0.00     0.210 HD
ENDBRANCH  12  16
BRANCH  13  18
HETATM   18  O7  UNL     1      -4.364  -0.457  12.692  1.00  0.00    -0.388 OA
ATOM     19  H7  UNL     1      -4.743  -1.023  12.031  1.00  0.00     0.210 HD
ENDBRANCH  13  18
ENDBRANCH   7   8
ENDBRANCH   5   7
BRANCH   3  20
HETATM   20  N1  UNL     1      -3.254   6.637  13.805  1.00  0.00    -0.323 N
HETATM   21  C10 UNL     1      -3.739   7.241  12.628  1.00  0.00     0.362 C
HETATM   22  O1  UNL     1      -3.177   8.299  12.163  1.00  0.00    -0.238 OA
BRANCH  20  23
HETATM   23  C6  UNL     1      -2.132   7.241  14.483  1.00  0.00     0.133 C
BRANCH  23  24
HETATM   24  C7  UNL     1      -2.423   8.463  15.268  1.00  0.00     0.004 A
HETATM   25  C8  UNL     1      -1.897   9.801  15.041  1.00  0.00     0.007 A
HETATM   26  C9  UNL     1      -1.213   8.977  16.104  1.00  0.00     0.007 A
ENDBRANCH  23  24
ENDBRANCH  20  23
BRANCH  21  27
HETATM   27  O2  UNL     1      -4.814   6.802  11.868  1.00  0.00    -0.309 OA
HETATM   28  C11 UNL     1      -4.654   6.175  10.604  1.00  0.00     0.215 C
ENDBRANCH  21  27
ENDBRANCH   3  20
BRANCH   1  29
HETATM   29  C2  UNL     1      -6.457   4.581  16.260  1.00  0.00     0.027 C
HETATM   30  C1  UNL     1      -6.905   3.471  17.111  1.00  0.00     0.007 C
ENDBRANCH   1  29
TORSDOF 10
ENDMDL