MODEL 3
REMARK VINA RESULT: -6.930137466      2.526      4.955
REMARK  9 active torsions:
REMARK  status: ('A' for Active; 'I' for Inactive)
REMARK    1  A    between atoms: C2_2  and  C3_3
REMARK    2  A    between atoms: N1_6  and  C6_7
REMARK    3  A    between atoms: C8_9  and  C9_10
REMARK    4  A    between atoms: C9_10  and  C10_11
REMARK    5  A    between atoms: C11_13  and  O2_14
REMARK    6  A    between atoms: C13_16  and  O3_17
REMARK    7  A    between atoms: C14_19  and  O4_20
REMARK    8  A    between atoms: C15_22  and  C16_23
REMARK    9  A    between atoms: C16_23  and  O5_24
ROOT
HETATM    1  C10 UNL     1      -3.951   1.857  12.673  1.00  0.00     0.136 C
HETATM    2  O1  UNL     1      -4.876   2.386  11.803  1.00  0.00    -0.353 OA
HETATM    3  C11 UNL     1      -4.238   3.245  10.914  1.00  0.00     0.290 C
HETATM    4  C13 UNL     1      -2.778   3.084  10.790  1.00  0.00     0.202 C
HETATM    5  C14 UNL     1      -2.238   1.709  10.989  1.00  0.00     0.160 C
HETATM    6  C15 UNL     1      -3.143   0.849  11.892  1.00  0.00     0.070 C
ENDROOT
BRANCH   1   7
HETATM    7  C9  UNL     1      -4.430   1.432  13.993  1.00  0.00     0.065 C
BRANCH   7   8
HETATM    8  C8  UNL     1      -4.561   2.414  15.085  1.00  0.00     0.130 C
HETATM    9  C7  UNL     1      -3.450   3.425  14.928  1.00  0.00     0.096 C
HETATM   10  C6  UNL     1      -3.817   4.824  15.252  1.00  0.00     0.362 C
HETATM   11  O7  UNL     1      -5.150   5.032  15.564  1.00  0.00    -0.332 OA
HETATM   12  C17 UNL     1      -5.873   4.258  14.623  1.00  0.00     0.341 C
HETATM   13  O6  UNL     1      -5.817   2.954  15.100  1.00  0.00    -0.361 OA
BRANCH  10  14
HETATM   14  N1  UNL     1      -3.516   5.736  14.135  1.00  0.00     0.117 N
HETATM   15  C5  UNL     1      -2.200   5.477  13.602  1.00  0.00     0.276 C
HETATM   16  C4  UNL     1      -1.426   6.755  13.657  1.00  0.00     0.036 C
HETATM   17  C3  UNL     1      -2.062   7.444  14.856  1.00  0.00     0.015 C
HETATM   18  C18 UNL     1      -3.510   7.080  14.674  1.00  0.00     0.280 C
BRANCH  17  19
HETATM   19  C2  UNL     1      -1.851   8.945  14.780  1.00  0.00     0.002 C
HETATM   20  C1  UNL     1      -1.008   9.364  15.955  1.00  0.00     0.005 C
ENDBRANCH  17  19
ENDBRANCH  10  14
ENDBRANCH   7   8
ENDBRANCH   1   7
BRANCH   6  21
HETATM   21  C16 UNL     1      -3.994   0.046  10.911  1.00  0.00     0.174 C
BRANCH  21  22
HETATM   22  O5  UNL     1      -3.317  -0.011   9.670  1.00  0.00    -0.400 OA
ATOM     23  H5  UNL     1      -3.757   0.569   9.059  1.00  0.00     0.209 HD
ENDBRANCH  21  22
ENDBRANCH   6  21
BRANCH   3  24
HETATM   24  O2  UNL     1      -4.609   4.535  11.268  1.00  0.00    -0.363 OA
HETATM   25  C12 UNL     1      -4.293   5.481  10.309  1.00  0.00     0.204 C
ENDBRANCH   3  24
BRANCH   5  26
HETATM   26  O4  UNL     1      -0.997   1.745  11.670  1.00  0.00    -0.392 OA
ATOM     27  H4  UNL     1      -0.497   0.954  11.507  1.00  0.00     0.210 HD
ENDBRANCH   5  26
BRANCH   4  28
HETATM   28  O3  UNL     1      -2.397   3.475   9.483  1.00  0.00    -0.388 OA
ATOM     29  H3  UNL     1      -1.508   3.807   9.520  1.00  0.00     0.210 HD
ENDBRANCH   4  28
TORSDOF 9
ENDMDL