MODEL 1
REMARK VINA RESULT: -7.971009564      0.000      0.000
REMARK  14 active torsions:
REMARK  status: ('A' for Active; 'I' for Inactive)
REMARK    1  A    between atoms: C2_2  and  O1_3
REMARK    2  A    between atoms: O1_3  and  C3_4
REMARK    3  A    between atoms: C3_4  and  C4_6
REMARK    4  A    between atoms: C4_6  and  C5_7
REMARK    5  A    between atoms: C8_12  and  O3_13
REMARK    6  A    between atoms: N2_15  and  C9_16
REMARK    7  A    between atoms: C10_17  and  C11_18
REMARK    8  A    between atoms: C13_22  and  O6_23
REMARK    9  A    between atoms: O6_23  and  S1_24
REMARK   10  A    between atoms: C14_28  and  N3_29
REMARK   11  A    between atoms: N3_29  and  S2_31
REMARK   12  A    between atoms: S2_31  and  N4_32
REMARK   13  A    between atoms: C15_44  and  C16_45
REMARK   14  A    between atoms: C17_48  and  N8_49
REMARK       I    between atoms: N8_49  and  C18_51
ROOT
HETATM    1  C9  UNL     1      -1.442 -24.527  -9.869  1.00  0.00     0.065 C
HETATM    2  C10 UNL     1      -1.800 -23.847  -8.780  1.00  0.00     0.093 C
HETATM    3  C12 UNL     1      -0.995 -22.606  -8.546  1.00  0.00     0.085 C
HETATM    4  C13 UNL     1      -1.524 -21.571  -7.679  1.00  0.00     0.250 C
HETATM    5  C14 UNL     1      -1.071 -21.493  -6.255  1.00  0.00     0.309 C
HETATM    6  O12 UNL     1       0.137 -20.722  -6.177  1.00  0.00    -0.186 OA
HETATM    7  O13 UNL     1       1.069 -21.605  -5.792  1.00  0.00    -0.093 OA
HETATM    8  N5  UNL     1       1.745 -22.565  -6.526  1.00  0.00    -0.161 N
ATOM      9  H5  UNL     1       2.641 -22.861  -6.139  1.00  0.00     0.220 HD
HETATM   10  N6  UNL     1       1.405 -23.138  -7.625  1.00  0.00    -0.217 N
ATOM     11  H6  UNL     1       2.104 -23.810  -7.940  1.00  0.00     0.210 HD
HETATM   12  N7  UNL     1       0.333 -23.067  -8.479  1.00  0.00    -0.259 N
HETATM   13  C15 UNL     1       0.837 -23.724  -9.696  1.00  0.00     0.239 C
HETATM   14  C17 UNL     1      -0.289 -23.973 -10.688  1.00  0.00     0.171 C
ENDROOT
BRANCH   1  15
HETATM   15  N2  UNL     1      -2.025 -25.729 -10.320  1.00  0.00    -0.280 N
HETATM   16  C5  UNL     1      -3.057 -25.799 -11.201  1.00  0.00     0.099 A
HETATM   17  N1  UNL     1      -3.340 -27.096 -11.455  1.00  0.00    -0.345 N
HETATM   18  C6  UNL     1      -2.494 -27.844 -10.739  1.00  0.00     0.058 A
ATOM     19  H1  UNL     1      -4.069 -27.442 -12.080  1.00  0.00     0.167 HD
HETATM   20  C7  UNL     1      -2.474 -29.322 -10.736  1.00  0.00     0.072 C
HETATM   21  C8  UNL     1      -1.684 -27.009 -10.040  1.00  0.00     0.171 A
BRANCH  16  22
HETATM   22  C4  UNL     1      -3.792 -24.703 -11.870  1.00  0.00     0.188 C
BRANCH  22  23
HETATM   23  C3  UNL     1      -4.977 -24.251 -11.147  1.00  0.00     0.265 C
HETATM   24  O2  UNL     1      -5.850 -24.953 -10.601  1.00  0.00    -0.265 OA
BRANCH  23  25
HETATM   25  O1  UNL     1      -5.184 -22.860 -11.036  1.00  0.00    -0.322 OA
BRANCH  25  26
HETATM   26  C2  UNL     1      -6.343 -22.337 -10.459  1.00  0.00     0.174 C
HETATM   27  C1  UNL     1      -7.241 -21.599 -11.416  1.00  0.00     0.034 C
ENDBRANCH  25  26
ENDBRANCH  23  25
ENDBRANCH  22  23
ENDBRANCH  16  22
BRANCH  21  28
HETATM   28  O3  UNL     1      -0.663 -27.355  -9.171  1.00  0.00    -0.344 OA
ATOM     29  H3  UNL     1       0.148 -27.805  -9.380  1.00  0.00     0.219 HD
ENDBRANCH  21  28
ENDBRANCH   1  15
BRANCH   2  30
HETATM   30  C11 UNL     1      -2.859 -24.334  -7.959  1.00  0.00     0.213 C
HETATM   31  O4  UNL     1      -2.704 -25.305  -7.151  1.00  0.00    -0.644 OA
HETATM   32  O5  UNL     1      -4.171 -23.832  -7.925  1.00  0.00    -0.644 OA
ENDBRANCH   2  30
BRANCH  14  33
HETATM   33  N8  UNL     1       0.162 -24.944 -11.641  1.00  0.00    -0.349 N
HETATM   34  C18 UNL     1      -0.092 -24.800 -13.022  1.00  0.00     0.214 C
HETATM   35  C19 UNL     1       0.361 -25.786 -14.032  1.00  0.00     0.117 C
HETATM   36  O16 UNL     1      -0.731 -23.790 -13.412  1.00  0.00    -0.274 OA
ATOM     37  H8  UNL     1       0.679 -25.759 -11.313  1.00  0.00     0.163 HD
ENDBRANCH  14  33
BRANCH  13  38
HETATM   38  C16 UNL     1       1.943 -22.968 -10.292  1.00  0.00     0.201 C
HETATM   39  O14 UNL     1       1.848 -22.393 -11.401  1.00  0.00    -0.646 OA
HETATM   40  O15 UNL     1       3.149 -22.875  -9.616  1.00  0.00    -0.646 OA
ENDBRANCH  13  38
BRANCH   4  41
HETATM   41  O6  UNL     1      -1.361 -20.263  -8.190  1.00  0.00    -0.241 OA
BRANCH  41  42
HETATM   42  S1  UNL     1      -2.647 -19.314  -8.345  1.00  0.00     0.252 S
HETATM   43  O7  UNL     1      -2.573 -18.246  -9.417  1.00  0.00    -0.572 OA
HETATM   44  O8  UNL     1      -3.100 -18.613  -7.094  1.00  0.00    -0.572 OA
HETATM   45  O9  UNL     1      -3.970 -20.282  -8.800  1.00  0.00    -0.572 OA
ENDBRANCH  41  42
ENDBRANCH   4  41
BRANCH   5  46
HETATM   46  N3  UNL     1      -1.984 -20.666  -5.449  1.00  0.00    -0.270 N
ATOM     47  H3  UNL     1      -1.784 -19.693  -5.217  1.00  0.00     0.176 HD
BRANCH  46  48
HETATM   48  S2  UNL     1      -3.390 -21.452  -4.936  1.00  0.00     0.315 S
HETATM   49  O10 UNL     1      -4.083 -20.750  -3.801  1.00  0.00    -0.183 OA
HETATM   50  O11 UNL     1      -3.096 -22.870  -4.462  1.00  0.00    -0.183 OA
BRANCH  48  51
HETATM   51  N4  UNL     1      -4.521 -21.528  -6.230  1.00  0.00    -0.312 N
ATOM     52  H42 UNL     1      -4.425 -21.019  -7.109  1.00  0.00     0.170 HD
ATOM     53  H41 UNL     1      -5.289 -22.153  -5.982  1.00  0.00     0.170 HD
ENDBRANCH  48  51
ENDBRANCH  46  48
ENDBRANCH   5  46
TORSDOF 14
ENDMDL