MODEL 3
REMARK VINA RESULT: -8.847218996      2.270      3.154
REMARK  14 active torsions:
REMARK  status: ('A' for Active; 'I' for Inactive)
REMARK    1  A    between atoms: C1_2  and  C2_4
REMARK       I    between atoms: C2_4  and  N2_6
REMARK    2  A    between atoms: N2_6  and  C3_8
REMARK    3  A    between atoms: C4_9  and  C5_10
REMARK    4  A    between atoms: C6_15  and  C7_16
REMARK    5  A    between atoms: N4_17  and  N5_19
REMARK    6  A    between atoms: C9_25  and  S1_26
REMARK    7  A    between atoms: S1_26  and  C10_27
REMARK    8  A    between atoms: C10_27  and  C11_28
REMARK       I    between atoms: C11_28  and  N8_30
REMARK    9  A    between atoms: C12_32  and  C13_33
REMARK   10  A    between atoms: C15_37  and  N10_38
REMARK   11  A    between atoms: N10_38  and  O6_39
REMARK       I    between atoms: N10_38  and  C16_44
REMARK   12  A    between atoms: O6_39  and  S2_40
REMARK   13  A    between atoms: C16_44  and  C17_46
REMARK   14  A    between atoms: N11_50  and  O13_51
ROOT
HETATM    1  N5  UNL     1      -4.906 -24.641  -8.910  1.00  0.00    -0.227 N
HETATM    2  C8  UNL     1      -4.744 -25.093  -7.639  1.00  0.00     0.225 A
HETATM    3  N6  UNL     1      -3.594 -25.778  -7.609  1.00  0.00    -0.292 N
ATOM      4  H6  UNL     1      -3.205 -26.238  -6.786  1.00  0.00     0.187 HD
HETATM    5  N7  UNL     1      -3.046 -25.768  -8.793  1.00  0.00    -0.277 N
ATOM      6  H7  UNL     1      -2.164 -26.216  -9.043  1.00  0.00     0.189 HD
HETATM    7  C9  UNL     1      -3.825 -25.078  -9.621  1.00  0.00     0.182 A
ENDROOT
BRANCH   7   8
HETATM    8  S1  UNL     1      -3.627 -24.737 -11.360  1.00  0.00    -0.081 SA
BRANCH   8   9
HETATM    9  C10 UNL     1      -4.058 -26.307 -12.217  1.00  0.00     0.185 C
BRANCH   9  10
HETATM   10  C11 UNL     1      -2.894 -27.202 -11.993  1.00  0.00     0.231 C
HETATM   11  O5  UNL     1      -3.108 -28.090 -11.075  1.00  0.00    -0.272 OA
HETATM   12  N8  UNL     1      -1.673 -27.213 -12.606  1.00  0.00    -0.336 N
HETATM   13  C12 UNL     1      -0.567 -26.776 -12.272  1.00  0.00     0.104 C
ATOM     14  H8  UNL     1      -1.676 -27.671 -13.517  1.00  0.00     0.168 HD
BRANCH  13  15
HETATM   15  C13 UNL     1      -0.200 -26.073 -11.061  1.00  0.00    -0.002 A
HETATM   16  C14 UNL     1       0.392 -26.514  -9.905  1.00  0.00     0.102 A
HETATM   17  N9  UNL     1       0.576 -25.498  -9.018  1.00  0.00    -0.349 N
HETATM   18  C15 UNL     1       0.099 -24.401  -9.616  1.00  0.00     0.139 A
ATOM     19  H9  UNL     1       0.993 -25.561  -8.089  1.00  0.00     0.166 HD
HETATM   20  C18 UNL     1      -0.390 -24.694 -10.870  1.00  0.00     0.065 A
BRANCH  18  21
HETATM   21  N10 UNL     1       0.118 -23.103  -9.039  1.00  0.00    -0.143 N
HETATM   22  C16 UNL     1       1.241 -22.270  -9.162  1.00  0.00     0.351 C
HETATM   23  O10 UNL     1       1.220 -21.134  -8.538  1.00  0.00    -0.258 OA
BRANCH  21  24
HETATM   24  O6  UNL     1      -0.985 -22.705  -8.373  1.00  0.00    -0.120 OA
BRANCH  24  25
HETATM   25  S2  UNL     1      -0.943 -23.047  -6.736  1.00  0.00     0.274 S
HETATM   26  O7  UNL     1      -0.755 -21.762  -5.940  1.00  0.00    -0.571 OA
HETATM   27  O8  UNL     1      -2.295 -23.582  -6.276  1.00  0.00    -0.571 OA
HETATM   28  O9  UNL     1       0.291 -24.115  -6.348  1.00  0.00    -0.571 OA
ENDBRANCH  24  25
ENDBRANCH  21  24
BRANCH  22  29
HETATM   29  C17 UNL     1       2.443 -22.538  -9.921  1.00  0.00     0.272 C
HETATM   30  O11 UNL     1       3.416 -23.150  -9.452  1.00  0.00    -0.640 OA
HETATM   31  O12 UNL     1       2.591 -22.118 -11.261  1.00  0.00    -0.640 OA
ENDBRANCH  22  29
ENDBRANCH  18  21
ENDBRANCH  13  15
ENDBRANCH   9  10
ENDBRANCH   8   9
ENDBRANCH   7   8
BRANCH   1  32
HETATM   32  N4  UNL     1      -5.944 -23.897  -9.419  1.00  0.00    -0.299 N
HETATM   33  C7  UNL     1      -6.147 -22.684  -9.125  1.00  0.00     0.158 C
ATOM     34  H4  UNL     1      -6.586 -24.349 -10.070  1.00  0.00     0.186 HD
BRANCH  33  35
HETATM   35  C6  UNL     1      -5.362 -21.843  -8.223  1.00  0.00     0.154 A
HETATM   36  N3  UNL     1      -4.360 -21.057  -8.632  1.00  0.00    -0.332 N
HETATM   37  C4  UNL     1      -3.625 -20.289  -7.757  1.00  0.00     0.144 A
ATOM     38  H3  UNL     1      -4.134 -21.024  -9.626  1.00  0.00     0.168 HD
HETATM   39  C3  UNL     1      -3.903 -20.312  -6.416  1.00  0.00     0.140 A
HETATM   40  C19 UNL     1      -4.938 -21.122  -5.995  1.00  0.00     0.302 A
HETATM   41  N11 UNL     1      -5.625 -21.848  -6.889  1.00  0.00    -0.167 N
HETATM   42  O14 UNL     1      -5.204 -21.145  -4.757  1.00  0.00    -0.263 OA
BRANCH  37  43
HETATM   43  C5  UNL     1      -2.562 -19.434  -8.264  1.00  0.00     0.229 C
HETATM   44  O3  UNL     1      -2.785 -18.690  -9.244  1.00  0.00    -0.643 OA
HETATM   45  O4  UNL     1      -1.298 -19.396  -7.712  1.00  0.00    -0.643 OA
ENDBRANCH  37  43
BRANCH  39  46
HETATM   46  N2  UNL     1      -3.123 -19.558  -5.467  1.00  0.00    -0.312 N
HETATM   47  C2  UNL     1      -3.501 -18.280  -5.044  1.00  0.00     0.311 C
HETATM   48  O2  UNL     1      -4.547 -17.758  -5.502  1.00  0.00    -0.262 OA
ATOM     49  H2  UNL     1      -2.269 -19.970  -5.091  1.00  0.00     0.169 HD
BRANCH  47  50
HETATM   50  C1  UNL     1      -2.709 -17.542  -4.085  1.00  0.00     0.322 C
HETATM   51  N1  UNL     1      -3.141 -16.283  -3.546  1.00  0.00    -0.053 NA
HETATM   52  O1  UNL     1      -1.585 -17.964  -3.661  1.00  0.00    -0.266 OA
ENDBRANCH  47  50
ENDBRANCH  39  46
BRANCH  41  53
HETATM   53  O13 UNL     1      -6.652 -22.648  -6.458  1.00  0.00    -0.278 OA
ATOM     54  H13 UNL     1      -7.453 -22.638  -6.969  1.00  0.00     0.245 HD
ENDBRANCH  41  53
ENDBRANCH  33  35
ENDBRANCH   1  32
TORSDOF 14
ENDMDL