MODEL 1
REMARK VINA RESULT: -9.037564916      0.000      0.000
REMARK  16 active torsions:
REMARK  status: ('A' for Active; 'I' for Inactive)
REMARK       I    between atoms: C2_2  and  N1_4
REMARK    1  A    between atoms: N1_4  and  C4_6
REMARK    2  A    between atoms: C5_7  and  C6_8
REMARK    3  A    between atoms: C6_8  and  O2_9
REMARK    4  A    between atoms: C6_8  and  N2_11
REMARK    5  A    between atoms: N2_11  and  S1_13
REMARK    6  A    between atoms: S1_13  and  C7_16
REMARK    7  A    between atoms: N8_30  and  C9_31
REMARK    8  A    between atoms: C12_34  and  S3_35
REMARK    9  A    between atoms: S3_35  and  C13_38
REMARK   10  A    between atoms: C13_38  and  C14_39
REMARK   11  A    between atoms: C15_43  and  C16_44
REMARK   12  A    between atoms: C16_44  and  O10_45
REMARK   13  A    between atoms: C16_44  and  C17_47
REMARK   14  A    between atoms: C17_47  and  O11_48
REMARK   15  A    between atoms: C17_47  and  C18_50
REMARK   16  A    between atoms: C18_50  and  O12_51
ROOT
HETATM    1  C4  UNL     1      -3.455 -17.840  -6.092  1.00  0.00     0.166 A
HETATM    2  C5  UNL     1      -3.479 -16.486  -5.930  1.00  0.00     0.147 A
HETATM    3  N6  UNL     1      -2.216 -16.087  -6.317  1.00  0.00    -0.278 N
ATOM      4  H6  UNL     1      -1.881 -15.124  -6.323  1.00  0.00     0.189 HD
HETATM    5  N7  UNL     1      -1.513 -17.130  -6.674  1.00  0.00    -0.233 N
ATOM      6  H7  UNL     1      -0.548 -17.104  -7.001  1.00  0.00     0.209 HD
HETATM    7  N8  UNL     1      -2.262 -18.246  -6.544  1.00  0.00    -0.223 N
ENDROOT
BRANCH   7   8
HETATM    8  C9  UNL     1      -1.774 -19.528  -6.835  1.00  0.00     0.060 A
HETATM    9  C10 UNL     1      -2.315 -20.434  -7.694  1.00  0.00     0.033 A
HETATM   10  C11 UNL     1      -1.764 -21.676  -7.947  1.00  0.00     0.026 A
HETATM   11  C12 UNL     1      -0.601 -22.070  -7.319  1.00  0.00     0.065 A
HETATM   12  C19 UNL     1      -0.028 -21.174  -6.443  1.00  0.00     0.026 A
HETATM   13  C20 UNL     1      -0.587 -19.939  -6.200  1.00  0.00     0.033 A
BRANCH  11  14
HETATM   14  S3  UNL     1       0.031 -23.640  -7.694  1.00  0.00     0.246 S
HETATM   15  O5  UNL     1       0.871 -24.117  -6.553  1.00  0.00    -0.216 OA
HETATM   16  O6  UNL     1      -1.157 -24.562  -7.852  1.00  0.00    -0.216 OA
BRANCH  14  17
HETATM   17  C13 UNL     1       0.988 -23.710  -9.165  1.00  0.00     0.372 C
HETATM   18  O9  UNL     1       2.356 -23.609  -9.003  1.00  0.00    -0.300 OA
HETATM   19  C15 UNL     1       2.262 -22.220  -9.203  1.00  0.00     0.301 C
HETATM   20  O13 UNL     1       1.012 -22.395  -9.726  1.00  0.00    -0.300 OA
BRANCH  17  21
HETATM   21  C14 UNL     1       0.500 -24.612 -10.237  1.00  0.00     0.257 C
HETATM   22  O7  UNL     1       0.613 -25.851 -10.039  1.00  0.00    -0.643 OA
HETATM   23  O8  UNL     1      -0.061 -24.207 -11.419  1.00  0.00    -0.643 OA
ENDBRANCH  17  21
BRANCH  19  24
HETATM   24  C16 UNL     1       3.265 -21.727 -10.195  1.00  0.00     0.204 C
BRANCH  24  25
HETATM   25  O10 UNL     1       3.870 -22.789 -10.845  1.00  0.00    -0.388 OA
ATOM     26  H10 UNL     1       4.813 -22.753 -10.737  1.00  0.00     0.210 HD
ENDBRANCH  24  25
BRANCH  24  27
HETATM   27  C17 UNL     1       4.194 -20.705  -9.639  1.00  0.00     0.175 C
BRANCH  27  28
HETATM   28  O11 UNL     1       4.032 -19.450 -10.212  1.00  0.00    -0.391 OA
ATOM     29  H11 UNL     1       4.853 -18.991 -10.344  1.00  0.00     0.210 HD
ENDBRANCH  27  28
BRANCH  27  30
HETATM   30  C18 UNL     1       4.170 -20.561  -8.149  1.00  0.00     0.198 C
BRANCH  30  31
HETATM   31  O12 UNL     1       5.196 -21.237  -7.501  1.00  0.00    -0.398 OA
ATOM     32  H12 UNL     1       5.569 -20.760  -6.769  1.00  0.00     0.209 HD
ENDBRANCH  30  31
ENDBRANCH  27  30
ENDBRANCH  24  27
ENDBRANCH  19  24
ENDBRANCH  14  17
ENDBRANCH  11  14
ENDBRANCH   7   8
BRANCH   1  33
HETATM   33  N1  UNL     1      -4.553 -18.705  -5.848  1.00  0.00    -0.305 N
HETATM   34  C2  UNL     1      -4.677 -19.469  -4.633  1.00  0.00     0.221 C
HETATM   35  C1  UNL     1      -5.818 -20.382  -4.383  1.00  0.00     0.117 C
HETATM   36  O1  UNL     1      -3.798 -19.383  -3.725  1.00  0.00    -0.273 OA
HETATM   37  C3  UNL     1      -5.617 -18.841  -6.825  1.00  0.00     0.161 C
ENDBRANCH   1  33
BRANCH   2  38
HETATM   38  C6  UNL     1      -4.454 -15.552  -5.446  1.00  0.00     0.182 C
BRANCH  38  39
HETATM   39  O2  UNL     1      -4.869 -15.668  -4.217  1.00  0.00    -0.344 OA
ATOM     40  H2  UNL     1      -5.738 -15.349  -4.000  1.00  0.00     0.219 HD
ENDBRANCH  38  39
BRANCH  38  41
HETATM   41  N2  UNL     1      -5.060 -14.486  -6.129  1.00  0.00    -0.257 N
ATOM     42  H2  UNL     1      -5.533 -13.766  -5.583  1.00  0.00     0.181 HD
BRANCH  41  43
HETATM   43  S1  UNL     1      -5.043 -14.336  -7.851  1.00  0.00     0.288 S
HETATM   44  O3  UNL     1      -4.604 -12.969  -8.219  1.00  0.00    -0.198 OA
HETATM   45  O4  UNL     1      -4.135 -15.369  -8.462  1.00  0.00    -0.198 OA
BRANCH  43  46
HETATM   46  C7  UNL     1      -6.661 -14.633  -8.451  1.00  0.00     0.209 A
HETATM   47  N3  UNL     1      -7.512 -13.745  -8.942  1.00  0.00    -0.281 N
HETATM   48  N4  UNL     1      -8.658 -14.109  -9.343  1.00  0.00    -0.279 N
ATOM     49  H3  UNL     1      -7.244 -12.762  -8.996  1.00  0.00     0.188 HD
HETATM   50  C8  UNL     1      -8.991 -15.402  -9.262  1.00  0.00     0.159 A
ATOM     51  H4  UNL     1      -9.315 -13.428  -9.722  1.00  0.00     0.189 HD
HETATM   52  N5  UNL     1     -10.117 -15.969  -9.620  1.00  0.00    -0.379 N
HETATM   53  S2  UNL     1      -7.573 -16.075  -8.578  1.00  0.00    -0.020 SA
ATOM     54  H52 UNL     1     -10.961 -15.567 -10.028  1.00  0.00     0.158 HD
ATOM     55  H51 UNL     1     -10.371 -16.955  -9.558  1.00  0.00     0.158 HD
ENDBRANCH  43  46
ENDBRANCH  41  43
ENDBRANCH  38  41
ENDBRANCH   2  38
TORSDOF 16
ENDMDL