MODEL 4
REMARK VINA RESULT: -10.052739686      3.813      9.110
REMARK  13 active torsions:
REMARK  status: ('A' for Active; 'I' for Inactive)
REMARK    1  A    between atoms: N2_5  and  C4_6
REMARK    2  A    between atoms: C4_6  and  C5_7
REMARK    3  A    between atoms: C5_7  and  S1_52
REMARK    4  A    between atoms: N3_8  and  N4_10
REMARK    5  A    between atoms: N4_10  and  C6_12
REMARK    6  A    between atoms: C6_12  and  O1_13
REMARK    7  A    between atoms: C6_12  and  C7_15
REMARK    8  A    between atoms: N7_20  and  C8_21
REMARK    9  A    between atoms: C8_21  and  C9_22
REMARK   10  A    between atoms: C9_22  and  C10_24
REMARK   11  A    between atoms: C10_24  and  N8_25
REMARK   12  A    between atoms: C14_31  and  C15_32
REMARK   13  A    between atoms: C22_42  and  N11_43
ROOT
HETATM    1  N1  UNL     1      -1.480 -23.501  -5.742  1.00  0.00    -0.190 NA
HETATM    2  C1  UNL     1      -2.453 -22.976  -6.081  1.00  0.00     0.120 C
HETATM    3  C2  UNL     1      -3.670 -22.341  -6.484  1.00  0.00     0.146 A
HETATM    4  C3  UNL     1      -4.855 -22.307  -5.799  1.00  0.00     0.154 A
HETATM    5  N2  UNL     1      -5.723 -21.603  -6.551  1.00  0.00    -0.280 N
HETATM    6  N14 UNL     1      -5.099 -21.224  -7.641  1.00  0.00    -0.239 N
ATOM      7  H14 UNL     1      -5.512 -20.673  -8.394  1.00  0.00     0.208 HD
HETATM    8  N15 UNL     1      -3.872 -21.658  -7.615  1.00  0.00    -0.275 N
ATOM      9  H15 UNL     1      -3.175 -21.501  -8.343  1.00  0.00     0.189 HD
ENDROOT
BRANCH   5  10
HETATM   10  C4  UNL     1      -7.083 -21.352  -6.185  1.00  0.00     0.223 C
BRANCH  10  11
HETATM   11  C5  UNL     1      -7.338 -20.565  -4.986  1.00  0.00     0.161 C
HETATM   12  N3  UNL     1      -7.446 -19.356  -4.780  1.00  0.00    -0.292 N
ATOM     13  H3  UNL     1      -7.627 -19.197  -3.788  1.00  0.00     0.187 HD
BRANCH  12  14
HETATM   14  N4  UNL     1      -7.406 -18.171  -5.421  1.00  0.00    -0.300 N
ATOM     15  H4  UNL     1      -7.916 -17.378  -5.033  1.00  0.00     0.183 HD
BRANCH  14  16
HETATM   16  C6  UNL     1      -6.641 -17.993  -6.670  1.00  0.00     0.304 C
BRANCH  16  17
HETATM   17  O1  UNL     1      -7.119 -16.850  -7.299  1.00  0.00    -0.368 OA
ATOM     18  H1  UNL     1      -6.380 -16.414  -7.707  1.00  0.00     0.212 HD
ENDBRANCH  16  17
BRANCH  16  19
HETATM   19  C7  UNL     1      -5.232 -17.705  -6.299  1.00  0.00     0.164 A
HETATM   20  N5  UNL     1      -4.825 -16.982  -5.244  1.00  0.00    -0.268 N
HETATM   21  N6  UNL     1      -3.483 -16.923  -5.214  1.00  0.00    -0.224 N
ATOM     22  H5  UNL     1      -5.444 -16.543  -4.563  1.00  0.00     0.190 HD
HETATM   23  N7  UNL     1      -3.050 -17.610  -6.253  1.00  0.00    -0.211 N
ATOM     24  H6  UNL     1      -2.911 -16.440  -4.522  1.00  0.00     0.210 HD
HETATM   25  N13 UNL     1      -4.095 -18.094  -6.926  1.00  0.00    -0.266 N
ATOM     26  H13 UNL     1      -4.046 -18.662  -7.772  1.00  0.00     0.190 HD
BRANCH  23  27
HETATM   27  C8  UNL     1      -1.635 -17.766  -6.553  1.00  0.00     0.251 C
BRANCH  27  28
HETATM   28  C9  UNL     1      -1.353 -19.070  -7.199  1.00  0.00     0.167 C
HETATM   29  O2  UNL     1      -1.808 -19.381  -8.295  1.00  0.00    -0.294 OA
BRANCH  28  30
HETATM   30  C10 UNL     1      -0.481 -20.033  -6.476  1.00  0.00     0.228 C
BRANCH  30  31
HETATM   31  N8  UNL     1       0.375 -20.751  -7.389  1.00  0.00    -0.295 N
HETATM   32  C11 UNL     1       1.704 -20.699  -7.587  1.00  0.00     0.129 A
HETATM   33  C12 UNL     1       2.040 -21.598  -8.584  1.00  0.00     0.075 A
HETATM   34  C13 UNL     1       0.849 -22.174  -8.956  1.00  0.00     0.070 A
HETATM   35  C23 UNL     1       3.121 -22.150  -9.363  1.00  0.00     0.256 A
HETATM   36  N9  UNL     1      -0.132 -21.657  -8.234  1.00  0.00    -0.299 N
HETATM   37  C14 UNL     1       1.131 -23.165 -10.035  1.00  0.00     0.170 A
ATOM     38  H9  UNL     1      -1.118 -21.909  -8.310  1.00  0.00     0.187 HD
HETATM   39  N12 UNL     1       2.567 -23.098 -10.242  1.00  0.00    -0.343 N
ATOM     40  H12 UNL     1       3.092 -23.652 -10.919  1.00  0.00     0.163 HD
HETATM   41  O4  UNL     1       4.350 -21.873  -9.309  1.00  0.00    -0.268 OA
BRANCH  37  42
HETATM   42  C15 UNL     1       0.740 -24.523  -9.550  1.00  0.00    -0.029 A
HETATM   43  C16 UNL     1       1.085 -24.916  -8.270  1.00  0.00     0.011 A
HETATM   44  C17 UNL     1       0.733 -26.166  -7.801  1.00  0.00     0.017 A
HETATM   45  C18 UNL     1       0.032 -27.073  -8.570  1.00  0.00     0.023 A
HETATM   46  C19 UNL     1      -0.320 -26.685  -9.863  1.00  0.00     0.046 A
HETATM   47  C22 UNL     1      -0.457 -28.425  -8.328  1.00  0.00     0.113 A
HETATM   48  C20 UNL     1       0.040 -25.426 -10.322  1.00  0.00     0.027 A
HETATM   49  C21 UNL     1      -1.040 -27.813 -10.436  1.00  0.00     0.258 A
HETATM   50  O3  UNL     1      -1.512 -27.816 -11.609  1.00  0.00    -0.267 OA
HETATM   51  N10 UNL     1      -1.124 -28.878  -9.501  1.00  0.00    -0.308 N
ATOM     52  H10 UNL     1      -1.573 -29.783  -9.642  1.00  0.00     0.170 HD
BRANCH  47  53
HETATM   53  N11 UNL     1      -0.322 -29.120  -7.246  1.00  0.00    -0.385 N
ATOM     54 2H11 UNL     1      -0.991 -29.127  -6.477  1.00  0.00     0.157 HD
ATOM     55 1H11 UNL     1       0.448 -29.745  -7.009  1.00  0.00     0.157 HD
ENDBRANCH  47  53
ENDBRANCH  37  42
ENDBRANCH  30  31
ENDBRANCH  28  30
ENDBRANCH  27  28
ENDBRANCH  23  27
ENDBRANCH  16  19
ENDBRANCH  14  16
ENDBRANCH  12  14
BRANCH  11  56
HETATM   56  S1  UNL     1      -7.558 -21.582  -3.501  1.00  0.00     0.153 S
HETATM   57  O5  UNL     1      -6.359 -21.495  -2.637  1.00  0.00    -0.590 OA
HETATM   58  O6  UNL     1      -8.745 -21.116  -2.738  1.00  0.00    -0.590 OA
HETATM   59  O7  UNL     1      -7.784 -23.180  -3.954  1.00  0.00    -0.590 OA
ENDBRANCH  11  56
ENDBRANCH  10  11
ENDBRANCH   5  10
TORSDOF 13
ENDMDL