MODEL 5
REMARK VINA RESULT: -8.123755790      2.071      8.201
REMARK  17 active torsions:
REMARK  status: ('A' for Active; 'I' for Inactive)
REMARK    1  A    between atoms: C2_3  and  C3_4
REMARK    2  A    between atoms: C4_5  and  C5_6
REMARK    3  A    between atoms: C5_6  and  S1_7
REMARK    4  A    between atoms: S1_7  and  C6_8
REMARK    5  A    between atoms: C6_8  and  C7_9
REMARK    6  A    between atoms: C7_9  and  S2_10
REMARK    7  A    between atoms: S2_10  and  N2_11
REMARK    8  A    between atoms: C8_16  and  C9_17
REMARK       I    between atoms: N3_20  and  C10_21
REMARK    9  A    between atoms: C10_21  and  C11_23
REMARK   10  A    between atoms: C11_23  and  N4_24
REMARK   11  A    between atoms: C12_29  and  C13_30
REMARK   12  A    between atoms: C13_30  and  O6_31
REMARK   13  A    between atoms: C13_30  and  O7_33
REMARK   14  A    between atoms: C14_35  and  O8_36
REMARK   15  A    between atoms: C20_48  and  C21_49
REMARK   16  A    between atoms: C21_49  and  O11_50
REMARK   17  A    between atoms: C22_52  and  O12_53
ROOT
HETATM    1  C3  UNL     1      -2.266 -22.616  -8.667  1.00  0.00     0.123 C
HETATM    2  C4  UNL     1      -0.930 -23.174  -8.398  1.00  0.00    -0.022 C
HETATM    3  C8  UNL     1      -0.999 -24.521  -8.447  1.00  0.00     0.119 C
HETATM    4  N3  UNL     1      -2.341 -24.872  -8.845  1.00  0.00    -0.291 N
HETATM    5  C10 UNL     1      -2.875 -25.888  -9.626  1.00  0.00     0.245 C
HETATM    6  O5  UNL     1      -4.164 -25.940  -9.771  1.00  0.00    -0.271 OA
HETATM    7  C15 UNL     1      -3.172 -23.803  -8.273  1.00  0.00     0.215 C
HETATM    8  C16 UNL     1      -4.418 -23.568  -8.928  1.00  0.00     0.086 C
HETATM    9  N7  UNL     1      -5.432 -23.351  -9.444  1.00  0.00    -0.195 NA
ENDROOT
BRANCH   1  10
HETATM   10  C2  UNL     1      -2.682 -21.453  -7.878  1.00  0.00     0.095 A
HETATM   11  N1  UNL     1      -2.826 -21.431  -6.544  1.00  0.00    -0.334 N
HETATM   12  C1  UNL     1      -2.657 -22.542  -5.623  1.00  0.00     0.158 C
HETATM   13  C18 UNL     1      -3.163 -20.192  -6.143  1.00  0.00     0.137 A
HETATM   14  C17 UNL     1      -3.244 -19.389  -7.229  1.00  0.00     0.075 A
HETATM   15  C19 UNL     1      -3.424 -19.623  -4.814  1.00  0.00     0.312 C
HETATM   16  N8  UNL     1      -2.943 -20.184  -8.304  1.00  0.00    -0.344 N
HETATM   17  C22 UNL     1      -3.603 -17.959  -7.110  1.00  0.00     0.202 C
ATOM     18  H8  UNL     1      -2.917 -19.874  -9.275  1.00  0.00     0.167 HD
HETATM   19  C20 UNL     1      -3.212 -17.385  -5.794  1.00  0.00     0.190 C
HETATM   20  O10 UNL     1      -3.738 -18.268  -4.795  1.00  0.00    -0.306 OA
HETATM   21  O9  UNL     1      -3.366 -20.317  -3.769  1.00  0.00    -0.258 OA
BRANCH  17  22
HETATM   22  O12 UNL     1      -3.153 -17.225  -8.206  1.00  0.00    -0.387 OA
ATOM     23  H12 UNL     1      -3.790 -17.225  -8.911  1.00  0.00     0.210 HD
ENDBRANCH  17  22
BRANCH  19  24
HETATM   24  C21 UNL     1      -3.842 -16.038  -5.570  1.00  0.00     0.199 C
BRANCH  24  25
HETATM   25  O11 UNL     1      -4.476 -16.024  -4.308  1.00  0.00    -0.398 OA
ATOM     26  H11 UNL     1      -4.697 -16.914  -4.058  1.00  0.00     0.209 HD
ENDBRANCH  24  25
ENDBRANCH  19  24
ENDBRANCH   1  10
BRANCH   2  27
HETATM   27  C5  UNL     1       0.271 -22.357  -8.204  1.00  0.00     0.111 C
BRANCH  27  28
HETATM   28  S1  UNL     1       1.405 -22.420  -9.617  1.00  0.00    -0.164 SA
BRANCH  28  29
HETATM   29  C6  UNL     1       2.948 -23.162  -9.011  1.00  0.00     0.090 C
BRANCH  29  30
HETATM   30  C7  UNL     1       4.139 -22.285  -9.292  1.00  0.00     0.173 C
BRANCH  30  31
HETATM   31  S2  UNL     1       4.342 -20.993  -8.100  1.00  0.00     0.225 S
HETATM   32  O1  UNL     1       3.417 -21.186  -6.913  1.00  0.00    -0.206 OA
HETATM   33  O2  UNL     1       5.759 -21.056  -7.598  1.00  0.00    -0.206 OA
BRANCH  31  34
HETATM   34  N2  UNL     1       4.082 -19.445  -8.820  1.00  0.00    -0.328 N
ATOM     35  H22 UNL     1       3.781 -19.312  -9.786  1.00  0.00     0.168 HD
ATOM     36  H21 UNL     1       4.270 -18.697  -8.153  1.00  0.00     0.168 HD
ENDBRANCH  31  34
ENDBRANCH  30  31
ENDBRANCH  29  30
ENDBRANCH  28  29
ENDBRANCH  27  28
ENDBRANCH   2  27
BRANCH   3  37
HETATM   37  C9  UNL     1       0.058 -25.478  -8.234  1.00  0.00     0.227 C
HETATM   38  O3  UNL     1       0.859 -25.945  -9.063  1.00  0.00    -0.643 OA
HETATM   39  O4  UNL     1       0.278 -26.008  -6.939  1.00  0.00    -0.643 OA
ENDBRANCH   3  37
BRANCH   5  40
HETATM   40  C11 UNL     1      -2.155 -26.938 -10.337  1.00  0.00     0.256 C
BRANCH  40  41
HETATM   41  N4  UNL     1      -1.369 -26.376 -11.455  1.00  0.00    -0.246 N
HETATM   42  N5  UNL     1      -0.095 -26.459 -11.717  1.00  0.00    -0.238 N
HETATM   43  N6  UNL     1       0.238 -25.822 -12.820  1.00  0.00    -0.281 N
ATOM     44  H5  UNL     1       0.571 -26.963 -11.132  1.00  0.00     0.208 HD
HETATM   45  C12 UNL     1      -0.875 -25.297 -13.300  1.00  0.00     0.134 A
ATOM     46  H6  UNL     1       1.172 -25.748 -13.225  1.00  0.00     0.188 HD
HETATM   47  C14 UNL     1      -1.925 -25.634 -12.447  1.00  0.00     0.188 A
BRANCH  45  48
HETATM   48  C13 UNL     1      -1.027 -24.463 -14.537  1.00  0.00     0.311 C
BRANCH  48  49
HETATM   49  O6  UNL     1       0.185 -23.820 -14.820  1.00  0.00    -0.366 OA
ATOM     50  H6  UNL     1       0.872 -24.469 -14.924  1.00  0.00     0.213 HD
ENDBRANCH  48  49
BRANCH  48  51
HETATM   51  O7  UNL     1      -1.935 -23.414 -14.296  1.00  0.00    -0.366 OA
ATOM     52  H7  UNL     1      -2.200 -23.421 -13.384  1.00  0.00     0.213 HD
ENDBRANCH  48  51
ENDBRANCH  45  48
BRANCH  47  53
HETATM   53  O8  UNL     1      -3.256 -25.284 -12.587  1.00  0.00    -0.343 OA
ATOM     54  H8  UNL     1      -3.710 -24.565 -12.163  1.00  0.00     0.219 HD
ENDBRANCH  47  53
ENDBRANCH  40  41
ENDBRANCH   5  40
TORSDOF 17
ENDMDL