MODEL 3
REMARK VINA RESULT: -7.819376737      1.354      1.994
REMARK  16 active torsions:
REMARK  status: ('A' for Active; 'I' for Inactive)
REMARK    1  A    between atoms: O1_2  and  C2_3
REMARK    2  A    between atoms: C2_3  and  C3_5
REMARK    3  A    between atoms: C3_5  and  N1_6
REMARK    4  A    between atoms: C3_5  and  C21_45
REMARK    5  A    between atoms: N1_6  and  C4_8
REMARK    6  A    between atoms: C7_14  and  C8_15
REMARK    7  A    between atoms: C8_15  and  O3_16
REMARK    8  A    between atoms: C8_15  and  O4_18
REMARK    9  A    between atoms: C9_20  and  C10_21
REMARK   10  A    between atoms: C10_21  and  O6_23
REMARK   11  A    between atoms: O6_23  and  C11_24
REMARK   12  A    between atoms: C11_24  and  O7_27
REMARK   13  A    between atoms: C16_34  and  N4_35
REMARK       I    between atoms: N4_35  and  C17_37
REMARK   14  A    between atoms: C19_40  and  N5_41
REMARK   15  A    between atoms: C21_45  and  O12_46
REMARK   16  A    between atoms: C21_45  and  N6_48
ROOT
HETATM    1  C4  UNL     1      -1.937 -21.633  -7.450  1.00  0.00     0.112 C
HETATM    2  C5  UNL     1      -2.926 -22.735  -7.142  1.00  0.00     0.106 C
HETATM    3  S1  UNL     1      -3.311 -23.626  -8.710  1.00  0.00    -0.102 SA
HETATM    4  C6  UNL     1      -1.706 -24.315  -9.200  1.00  0.00     0.213 C
HETATM    5  N2  UNL     1      -1.689 -24.540 -10.625  1.00  0.00    -0.345 N
ATOM      6  H2  UNL     1      -1.329 -23.801 -11.229  1.00  0.00     0.163 HD
HETATM    7  C7  UNL     1      -2.153 -25.757 -11.235  1.00  0.00     0.076 C
HETATM    8  C9  UNL     1      -1.808 -26.932 -10.787  1.00  0.00     0.054 C
HETATM    9  C14 UNL     1      -0.838 -27.035  -9.614  1.00  0.00     0.126 C
HETATM   10  S2  UNL     1      -1.448 -25.916  -8.328  1.00  0.00    -0.099 SA
HETATM   11  N3  UNL     1      -0.702 -23.382  -8.735  1.00  0.00    -0.296 N
HETATM   12  C15 UNL     1       0.683 -23.721  -8.489  1.00  0.00     0.248 C
HETATM   13  O8  UNL     1       1.186 -24.816  -8.182  1.00  0.00    -0.271 OA
HETATM   14  C16 UNL     1       1.445 -22.448  -8.679  1.00  0.00     0.208 C
HETATM   15  C19 UNL     1       0.445 -21.501  -7.983  1.00  0.00     0.212 C
HETATM   16  C20 UNL     1      -0.913 -21.996  -8.463  1.00  0.00     0.146 C
ENDROOT
BRANCH   7  17
HETATM   17  C8  UNL     1      -3.021 -25.585 -12.421  1.00  0.00     0.305 C
BRANCH  17  18
HETATM   18  O3  UNL     1      -2.332 -24.700 -13.324  1.00  0.00    -0.366 OA
ATOM     19  H3  UNL     1      -1.997 -25.233 -14.035  1.00  0.00     0.213 HD
ENDBRANCH  17  18
BRANCH  17  20
HETATM   20  O4  UNL     1      -4.271 -25.104 -12.150  1.00  0.00    -0.366 OA
ATOM     21  H4  UNL     1      -4.776 -24.859 -12.915  1.00  0.00     0.213 HD
ENDBRANCH  17  20
ENDBRANCH   7  17
BRANCH   1  22
HETATM   22  N1  UNL     1      -2.694 -20.520  -7.964  1.00  0.00    -0.398 N
ATOM     23  H1  UNL     1      -3.015 -20.503  -8.932  1.00  0.00     0.154 HD
BRANCH  22  24
HETATM   24  C3  UNL     1      -2.977 -19.455  -7.082  1.00  0.00     0.226 C
BRANCH  24  25
HETATM   25  C2  UNL     1      -1.825 -18.905  -6.330  1.00  0.00     0.285 C
HETATM   26  O2  UNL     1      -0.814 -18.371  -6.846  1.00  0.00    -0.263 OA
BRANCH  25  27
HETATM   27  O1  UNL     1      -1.867 -18.985  -4.943  1.00  0.00    -0.325 OA
HETATM   28  C1  UNL     1      -3.066 -19.328  -4.257  1.00  0.00     0.213 C
ENDBRANCH  25  27
ENDBRANCH  24  25
BRANCH  24  29
HETATM   29  C21 UNL     1      -3.474 -18.257  -7.928  1.00  0.00     0.250 C
BRANCH  29  30
HETATM   30  O12 UNL     1      -2.670 -18.286  -9.066  1.00  0.00    -0.374 OA
ATOM     31  H12 UNL     1      -3.276 -18.467  -9.774  1.00  0.00     0.212 HD
ENDBRANCH  29  30
BRANCH  29  32
HETATM   32  N6  UNL     1      -3.392 -17.054  -7.202  1.00  0.00    -0.369 N
HETATM   33  C22 UNL     1      -4.416 -16.316  -7.051  1.00  0.00    -0.024 C
HETATM   34  C23 UNL     1      -5.768 -16.597  -7.589  1.00  0.00     0.062 C
HETATM   35  C24 UNL     1      -4.229 -15.058  -6.267  1.00  0.00     0.062 C
ATOM     36  H6  UNL     1      -2.501 -16.771  -6.792  1.00  0.00     0.161 HD
ENDBRANCH  29  32
ENDBRANCH  24  29
ENDBRANCH  22  24
ENDBRANCH   1  22
BRANCH   8  37
HETATM   37  C10 UNL     1      -2.258 -28.163 -11.359  1.00  0.00     0.294 C
HETATM   38  O5  UNL     1      -2.382 -29.188 -10.599  1.00  0.00    -0.259 OA
BRANCH  37  39
HETATM   39  O6  UNL     1      -2.579 -28.368 -12.652  1.00  0.00    -0.281 OA
BRANCH  39  40
HETATM   40  C11 UNL     1      -1.666 -28.880 -13.604  1.00  0.00     0.163 C
HETATM   41  C12 UNL     1      -2.493 -29.503 -14.717  1.00  0.00     0.078 C
HETATM   42  C13 UNL     1      -0.801 -27.822 -14.205  1.00  0.00     0.078 C
BRANCH  40  43
HETATM   43  O7  UNL     1      -0.839 -29.874 -13.076  1.00  0.00    -0.365 OA
ATOM     44  H7  UNL     1      -0.206 -30.196 -13.707  1.00  0.00     0.213 HD
ENDBRANCH  40  43
ENDBRANCH  39  40
ENDBRANCH  37  39
ENDBRANCH   8  37
BRANCH  14  45
HETATM   45  N4  UNL     1       2.733 -22.443  -8.064  1.00  0.00    -0.346 N
HETATM   46  C17 UNL     1       3.649 -21.427  -8.452  1.00  0.00     0.214 C
HETATM   47  C18 UNL     1       5.010 -21.340  -7.872  1.00  0.00     0.117 C
HETATM   48  O9  UNL     1       3.348 -20.547  -9.311  1.00  0.00    -0.274 OA
ATOM     49  H4  UNL     1       2.989 -23.146  -7.371  1.00  0.00     0.163 HD
ENDBRANCH  14  45
BRANCH  15  50
HETATM   50  N5  UNL     1       0.665 -21.722  -6.578  1.00  0.00    -0.146 N
HETATM   51  O10 UNL     1       1.156 -20.805  -5.897  1.00  0.00    -0.536 OA
HETATM   52  O11 UNL     1       0.354 -22.905  -6.003  1.00  0.00    -0.536 OA
ENDBRANCH  15  50
TORSDOF 16
ENDMDL