MODEL 2
REMARK VINA RESULT: -8.775978884      4.547      9.590
REMARK  16 active torsions:
REMARK  status: ('A' for Active; 'I' for Inactive)
REMARK    1  A    between atoms: C2_2  and  S1_3
REMARK    2  A    between atoms: S1_3  and  N1_6
REMARK       I    between atoms: N1_6  and  C3_8
REMARK       I    between atoms: C3_8  and  N2_10
REMARK    3  A    between atoms: N2_10  and  C4_12
REMARK    4  A    between atoms: C5_14  and  C6_15
REMARK    5  A    between atoms: C9_22  and  O9_23
REMARK    6  A    between atoms: O9_23  and  N3_24
REMARK    7  A    between atoms: N4_27  and  O10_28
REMARK    8  A    between atoms: O10_28  and  S2_29
REMARK    9  A    between atoms: S2_29  and  C11_32
REMARK   10  A    between atoms: C11_32  and  C12_33
REMARK   11  A    between atoms: C12_33  and  O13_35
REMARK   12  A    between atoms: O13_35  and  C13_36
REMARK   13  A    between atoms: C18_41  and  O14_42
REMARK   14  A    between atoms: C18_41  and  C19_44
REMARK   15  A    between atoms: C19_44  and  O15_45
REMARK   16  A    between atoms: C21_48  and  O16_49
ROOT
HETATM    1  C4  UNL     1      -4.946 -15.809  -6.950  1.00  0.00     0.261 C
HETATM    2  O4  UNL     1      -3.682 -15.784  -6.458  1.00  0.00    -0.329 OA
HETATM    3  C5  UNL     1      -3.054 -16.972  -6.213  1.00  0.00     0.284 C
HETATM    4  C7  UNL     1      -3.024 -17.836  -7.450  1.00  0.00     0.310 C
HETATM    5  O7  UNL     1      -2.142 -18.658  -7.675  1.00  0.00    -0.261 OA
HETATM    6  O8  UNL     1      -4.105 -17.587  -8.284  1.00  0.00    -0.304 OA
HETATM    7  C8  UNL     1      -5.257 -17.126  -7.607  1.00  0.00     0.233 C
HETATM    8  C9  UNL     1      -5.761 -18.082  -6.558  1.00  0.00     0.311 C
HETATM    9  N4  UNL     1      -4.797 -18.614  -5.682  1.00  0.00    -0.212 N
HETATM   10  C21 UNL     1      -3.786 -17.782  -5.168  1.00  0.00     0.302 C
ENDROOT
BRANCH   9  11
HETATM   11  O10 UNL     1      -4.330 -19.770  -5.988  1.00  0.00    -0.185 OA
BRANCH  11  12
HETATM   12  S2  UNL     1      -3.966 -21.082  -5.350  1.00  0.00     0.087 S
HETATM   13  C10 UNL     1      -5.624 -21.648  -4.680  1.00  0.00     0.146 C
HETATM   14  O11 UNL     1      -3.121 -22.157  -4.073  1.00  0.00    -0.241 OA
BRANCH  12  15
HETATM   15  C11 UNL     1      -3.049 -21.940  -6.669  1.00  0.00     0.237 C
BRANCH  15  16
HETATM   16  C12 UNL     1      -2.874 -23.419  -6.500  1.00  0.00     0.276 C
HETATM   17  O12 UNL     1      -3.956 -24.097  -6.576  1.00  0.00    -0.264 OA
BRANCH  16  18
HETATM   18  O13 UNL     1      -1.658 -24.021  -6.277  1.00  0.00    -0.290 OA
BRANCH  18  19
HETATM   19  C13 UNL     1      -0.509 -23.323  -6.605  1.00  0.00     0.148 C
HETATM   20  C14 UNL     1       0.511 -23.978  -7.101  1.00  0.00    -0.054 C
HETATM   21  C15 UNL     1       0.421 -25.440  -7.301  1.00  0.00     0.036 C
HETATM   22  C20 UNL     1       1.790 -23.324  -7.486  1.00  0.00     0.076 C
HETATM   23  C16 UNL     1       0.976 -25.732  -8.680  1.00  0.00     0.007 C
HETATM   24  C17 UNL     1       0.970 -24.492  -9.527  1.00  0.00     0.040 C
HETATM   25  C18 UNL     1       1.904 -23.427  -8.988  1.00  0.00     0.083 C
BRANCH  25  26
HETATM   26  O14 UNL     1       3.215 -23.757  -9.328  1.00  0.00    -0.387 OA
ATOM     27  H14 UNL     1       3.270 -23.883 -10.268  1.00  0.00     0.210 HD
ENDBRANCH  25  26
BRANCH  25  28
HETATM   28  C19 UNL     1       1.612 -22.080  -9.623  1.00  0.00     0.202 C
BRANCH  28  29
HETATM   29  O15 UNL     1       2.300 -22.007 -10.822  1.00  0.00    -0.398 OA
ATOM     30  H15 UNL     1       1.776 -22.430 -11.492  1.00  0.00     0.209 HD
ENDBRANCH  28  29
ENDBRANCH  25  28
ENDBRANCH  18  19
ENDBRANCH  16  18
ENDBRANCH  15  16
ENDBRANCH  12  15
ENDBRANCH  11  12
ENDBRANCH   9  11
BRANCH   8  31
HETATM   31  O9  UNL     1      -6.853 -17.492  -5.915  1.00  0.00    -0.256 OA
BRANCH  31  32
HETATM   32  N3  UNL     1      -7.581 -18.395  -5.227  1.00  0.00    -0.309 N
ATOM     33  H32 UNL     1      -7.374 -19.394  -5.224  1.00  0.00     0.184 HD
ATOM     34  H31 UNL     1      -8.349 -17.957  -4.719  1.00  0.00     0.184 HD
ENDBRANCH  31  32
ENDBRANCH   8  31
BRANCH  10  35
HETATM   35  O16 UNL     1      -4.193 -16.899  -4.178  1.00  0.00    -0.371 OA
ATOM     36  H16 UNL     1      -3.818 -17.205  -3.360  1.00  0.00     0.212 HD
ENDBRANCH  10  35
BRANCH   3  37
HETATM   37  C6  UNL     1      -1.687 -16.714  -5.720  1.00  0.00     0.225 C
HETATM   38  O5  UNL     1      -1.342 -17.199  -4.620  1.00  0.00    -0.645 OA
HETATM   39  O6  UNL     1      -0.820 -15.960  -6.452  1.00  0.00    -0.645 OA
ENDBRANCH   3  37
BRANCH   1  40
HETATM   40  N2  UNL     1      -5.138 -14.710  -7.911  1.00  0.00    -0.313 N
HETATM   41  C3  UNL     1      -6.365 -14.615  -8.592  1.00  0.00     0.331 C
HETATM   42  N1  UNL     1      -6.588 -13.581  -9.516  1.00  0.00    -0.236 N
HETATM   43  O3  UNL     1      -7.288 -15.469  -8.374  1.00  0.00    -0.246 OA
ATOM     44  H1  UNL     1      -5.847 -12.900  -9.684  1.00  0.00     0.183 HD
ATOM     45  H2  UNL     1      -4.396 -14.031  -8.079  1.00  0.00     0.167 HD
BRANCH  42  46
HETATM   46  S1  UNL     1      -8.081 -13.424 -10.377  1.00  0.00     0.233 S
HETATM   47  O1  UNL     1      -8.296 -14.604 -11.264  1.00  0.00    -0.206 OA
HETATM   48  O2  UNL     1      -9.190 -13.332  -9.379  1.00  0.00    -0.206 OA
BRANCH  46  49
HETATM   49  C2  UNL     1      -8.089 -11.965 -11.374  1.00  0.00     0.159 C
HETATM   50  C1  UNL     1      -8.716 -12.204 -12.714  1.00  0.00     0.023 C
ENDBRANCH  46  49
ENDBRANCH  42  46
ENDBRANCH   1  40
TORSDOF 16
ENDMDL