MODEL 4
REMARK VINA RESULT: -9.227257352      1.386      1.923
REMARK  16 active torsions:
REMARK  status: ('A' for Active; 'I' for Inactive)
REMARK    1  A    between atoms: O1_2  and  N1_3
REMARK    2  A    between atoms: C2_5  and  C3_6
REMARK    3  A    between atoms: C2_5  and  C22_53
REMARK    4  A    between atoms: N4_11  and  C4_12
REMARK    5  A    between atoms: C4_12  and  C5_13
REMARK    6  A    between atoms: C5_13  and  O2_14
REMARK    7  A    between atoms: C5_13  and  N5_16
REMARK    8  A    between atoms: N5_16  and  C6_18
REMARK    9  A    between atoms: N7_24  and  C9_25
REMARK   10  A    between atoms: C11_27  and  N8_28
REMARK   11  A    between atoms: C14_31  and  N9_32
REMARK       I    between atoms: N11_39  and  C16_40
REMARK   12  A    between atoms: C16_40  and  C17_42
REMARK   13  A    between atoms: C17_42  and  C18_43
REMARK   14  A    between atoms: C17_42  and  C20_46
REMARK   15  A    between atoms: C20_46  and  O7_48
REMARK   16  A    between atoms: C24_56  and  N13_57
ROOT
HETATM    1  C6  UNL     1      -2.617 -21.939  -6.093  1.00  0.00     0.131 A
HETATM    2  C7  UNL     1      -3.301 -21.709  -4.937  1.00  0.00     0.141 A
HETATM    3  N6  UNL     1      -4.375 -22.551  -4.957  1.00  0.00    -0.315 N
ATOM      4  H6  UNL     1      -5.089 -22.625  -4.233  1.00  0.00     0.170 HD
HETATM    5  C8  UNL     1      -4.332 -23.260  -6.086  1.00  0.00     0.330 A
HETATM    6  O3  UNL     1      -5.197 -24.123  -6.379  1.00  0.00    -0.246 OA
HETATM    7  N7  UNL     1      -3.264 -22.908  -6.806  1.00  0.00    -0.254 N
ENDROOT
BRANCH   1   8
HETATM    8  N5  UNL     1      -1.474 -21.295  -6.571  1.00  0.00    -0.324 N
ATOM      9  H5  UNL     1      -0.597 -21.788  -6.399  1.00  0.00     0.169 HD
BRANCH   8  10
HETATM   10  C5  UNL     1      -1.350 -20.091  -7.243  1.00  0.00     0.139 C
BRANCH  10  11
HETATM   11  C4  UNL     1      -0.627 -18.863  -6.900  1.00  0.00     0.255 C
BRANCH  11  12
HETATM   12  N4  UNL     1      -1.501 -17.731  -6.596  1.00  0.00    -0.210 N
HETATM   13  N3  UNL     1      -1.277 -16.719  -5.813  1.00  0.00    -0.224 N
HETATM   14  N2  UNL     1      -2.316 -15.933  -5.803  1.00  0.00    -0.267 N
ATOM     15  H3  UNL     1      -0.418 -16.564  -5.284  1.00  0.00     0.210 HD
HETATM   16  C3  UNL     1      -3.247 -16.411  -6.582  1.00  0.00     0.168 A
ATOM     17  H2  UNL     1      -2.390 -15.069  -5.266  1.00  0.00     0.190 HD
HETATM   18  N12 UNL     1      -2.726 -17.569  -7.094  1.00  0.00    -0.264 N
ATOM     19  H12 UNL     1      -3.195 -18.199  -7.745  1.00  0.00     0.190 HD
BRANCH  16  20
HETATM   20  C2  UNL     1      -4.599 -15.909  -6.890  1.00  0.00     0.128 C
HETATM   21  N1  UNL     1      -4.676 -14.694  -7.207  1.00  0.00    -0.261 N
ATOM     22  H1  UNL     1      -3.755 -14.257  -7.195  1.00  0.00     0.194 HD
BRANCH  21  23
HETATM   23  O1  UNL     1      -5.598 -13.828  -7.547  1.00  0.00    -0.285 OA
HETATM   24  C1  UNL     1      -5.756 -13.198  -8.822  1.00  0.00     0.237 C
ENDBRANCH  21  23
BRANCH  20  25
HETATM   25  C22 UNL     1      -5.769 -16.837  -6.893  1.00  0.00     0.073 A
HETATM   26  C23 UNL     1      -6.604 -16.932  -7.971  1.00  0.00     0.085 A
HETATM   27  S1  UNL     1      -7.796 -18.044  -7.414  1.00  0.00    -0.064 SA
HETATM   28  C24 UNL     1      -7.163 -18.312  -5.866  1.00  0.00     0.142 A
HETATM   29  N14 UNL     1      -6.076 -17.550  -5.834  1.00  0.00    -0.335 N
ATOM     30  H14 UNL     1      -5.490 -17.520  -5.000  1.00  0.00     0.168 HD
BRANCH  28  31
HETATM   31  N13 UNL     1      -7.614 -19.083  -4.893  1.00  0.00    -0.380 N
ATOM     32 2H13 UNL     1      -7.678 -20.100  -4.903  1.00  0.00     0.158 HD
ATOM     33 1H13 UNL     1      -7.969 -18.827  -3.972  1.00  0.00     0.158 HD
ENDBRANCH  28  31
ENDBRANCH  20  25
ENDBRANCH  16  20
ENDBRANCH  11  12
ENDBRANCH  10  11
BRANCH  10  34
HETATM   34  O2  UNL     1      -1.990 -20.009  -8.387  1.00  0.00    -0.348 OA
ATOM     35  H2  UNL     1      -2.867 -20.373  -8.350  1.00  0.00     0.219 HD
ENDBRANCH  10  34
ENDBRANCH   8  10
ENDBRANCH   1   8
BRANCH   7  36
HETATM   36  C9  UNL     1      -2.890 -23.428  -8.090  1.00  0.00     0.268 C
HETATM   37  C10 UNL     1      -2.895 -24.933  -8.094  1.00  0.00     0.106 C
HETATM   38  C11 UNL     1      -1.481 -25.304  -8.345  1.00  0.00     0.231 C
HETATM   39  N11 UNL     1      -0.778 -24.032  -8.458  1.00  0.00    -0.198 N
HETATM   40  C16 UNL     1       0.624 -23.908  -8.493  1.00  0.00     0.259 C
HETATM   41  O8  UNL     1      -1.638 -23.020  -8.510  1.00  0.00    -0.246 OA
HETATM   42  O5  UNL     1       1.284 -25.011  -8.395  1.00  0.00    -0.270 OA
BRANCH  38  43
HETATM   43  N8  UNL     1      -1.307 -26.172  -9.463  1.00  0.00    -0.285 N
HETATM   44  C12 UNL     1      -1.483 -25.697 -10.704  1.00  0.00     0.102 A
HETATM   45  C13 UNL     1      -1.339 -26.445 -11.850  1.00  0.00     0.065 A
HETATM   46  C14 UNL     1      -0.988 -27.774 -11.668  1.00  0.00     0.103 A
HETATM   47  N10 UNL     1      -0.817 -28.228 -10.413  1.00  0.00    -0.295 N
HETATM   48  C15 UNL     1      -0.969 -27.460  -9.323  1.00  0.00     0.329 A
ATOM     49  H10 UNL     1      -0.560 -29.206 -10.284  1.00  0.00     0.172 HD
HETATM   50  O4  UNL     1      -0.785 -27.989  -8.200  1.00  0.00    -0.246 OA
BRANCH  46  51
HETATM   51  N9  UNL     1      -0.832 -28.541 -12.702  1.00  0.00    -0.385 N
ATOM     52  H92 UNL     1       0.090 -28.851 -13.010  1.00  0.00     0.157 HD
ATOM     53  H91 UNL     1      -1.649 -28.847 -13.230  1.00  0.00     0.157 HD
ENDBRANCH  46  51
ENDBRANCH  38  43
BRANCH  40  54
HETATM   54  C17 UNL     1       1.434 -22.699  -8.629  1.00  0.00     0.177 C
BRANCH  54  55
HETATM   55  C18 UNL     1       2.303 -22.647  -9.810  1.00  0.00     0.138 C
HETATM   56  C19 UNL     1       3.798 -22.777  -9.739  1.00  0.00     0.092 C
HETATM   57  O6  UNL     1       1.865 -22.491 -10.938  1.00  0.00    -0.297 OA
ENDBRANCH  54  55
BRANCH  54  58
HETATM   58  C20 UNL     1       2.098 -22.271  -7.339  1.00  0.00     0.134 C
HETATM   59  C21 UNL     1       2.519 -20.850  -7.275  1.00  0.00     0.040 C
BRANCH  58  60
HETATM   60  O7  UNL     1       1.223 -22.472  -6.245  1.00  0.00    -0.395 OA
ATOM     61  H7  UNL     1       1.719 -22.590  -5.443  1.00  0.00     0.210 HD
ENDBRANCH  58  60
ENDBRANCH  54  58
ENDBRANCH  40  54
ENDBRANCH   7  36
TORSDOF 16
ENDMDL