MODEL 5
REMARK VINA RESULT: -6.971729124      4.007      8.355
REMARK  18 active torsions:
REMARK  status: ('A' for Active; 'I' for Inactive)
REMARK    1  A    between atoms: O1_2  and  C2_3
REMARK    2  A    between atoms: C3_4  and  O2_5
REMARK    3  A    between atoms: O2_5  and  C4_6
REMARK    4  A    between atoms: C5_8  and  C6_9
REMARK    5  A    between atoms: C6_9  and  O4_10
REMARK    6  A    between atoms: C7_12  and  O5_13
REMARK    7  A    between atoms: O5_13  and  C8_14
REMARK    8  A    between atoms: C10_17  and  O7_19
REMARK    9  A    between atoms: C12_21  and  O8_22
REMARK   10  A    between atoms: C14_24  and  O9_25
REMARK   11  A    between atoms: C15_27  and  O10_28
REMARK   12  A    between atoms: C17_30  and  O11_31
REMARK   13  A    between atoms: O11_31  and  C18_32
REMARK   14  A    between atoms: C21_36  and  O13_37
REMARK   15  A    between atoms: C22_39  and  O14_40
REMARK   16  A    between atoms: C23_42  and  O15_43
REMARK   17  A    between atoms: C27_48  and  O17_49
REMARK   18  A    between atoms: C28_51  and  O18_52
ROOT
HETATM    1  C4  UNL     1      -2.775 -19.586  -7.405  1.00  0.00     0.295 C
HETATM    2  O3  UNL     1      -1.618 -19.868  -8.186  1.00  0.00    -0.348 OA
HETATM    3  C5  UNL     1      -1.045 -20.985  -7.484  1.00  0.00     0.180 C
HETATM    4  C7  UNL     1      -1.884 -22.139  -7.908  1.00  0.00     0.187 C
HETATM    5  C15 UNL     1      -3.292 -21.950  -7.240  1.00  0.00     0.186 C
HETATM    6  C17 UNL     1      -3.818 -20.623  -7.754  1.00  0.00     0.211 C
ENDROOT
BRANCH   1   7
HETATM    7  O2  UNL     1      -3.123 -18.291  -7.760  1.00  0.00    -0.326 OA
BRANCH   7   8
HETATM    8  C3  UNL     1      -2.881 -17.488  -6.645  1.00  0.00     0.295 C
HETATM    9  C2  UNL     1      -3.404 -16.082  -6.849  1.00  0.00     0.207 C
HETATM   10  C28 UNL     1      -4.177 -15.665  -5.595  1.00  0.00     0.183 C
HETATM   11  C27 UNL     1      -3.222 -15.929  -4.429  1.00  0.00     0.178 C
HETATM   12  C25 UNL     1      -3.025 -17.441  -4.363  1.00  0.00     0.152 C
HETATM   13  O16 UNL     1      -3.481 -18.047  -5.536  1.00  0.00    -0.351 OA
HETATM   14  C26 UNL     1      -1.611 -17.815  -4.036  1.00  0.00     0.042 C
BRANCH   9  15
HETATM   15  O1  UNL     1      -4.226 -15.974  -7.951  1.00  0.00    -0.383 OA
HETATM   16  C1  UNL     1      -5.551 -16.234  -7.608  1.00  0.00     0.202 C
ENDBRANCH   9  15
BRANCH  10  17
HETATM   17  O18 UNL     1      -4.484 -14.328  -5.613  1.00  0.00    -0.390 OA
ATOM     18  H18 UNL     1      -5.385 -14.180  -5.876  1.00  0.00     0.210 HD
ENDBRANCH  10  17
BRANCH  11  19
HETATM   19  O17 UNL     1      -1.982 -15.373  -4.718  1.00  0.00    -0.390 OA
ATOM     20  H17 UNL     1      -1.834 -15.496  -5.649  1.00  0.00     0.210 HD
ENDBRANCH  11  19
ENDBRANCH   7   8
ENDBRANCH   1   7
BRANCH   6  21
HETATM   21  O11 UNL     1      -4.991 -20.217  -7.234  1.00  0.00    -0.346 OA
BRANCH  21  22
HETATM   22  C18 UNL     1      -6.142 -20.790  -7.701  1.00  0.00     0.292 C
HETATM   23  O12 UNL     1      -6.636 -21.579  -6.690  1.00  0.00    -0.351 OA
HETATM   24  C19 UNL     1      -7.466 -21.052  -5.771  1.00  0.00     0.152 C
HETATM   25  C20 UNL     1      -6.632 -20.267  -4.754  1.00  0.00     0.042 C
HETATM   26  C21 UNL     1      -8.505 -20.134  -6.310  1.00  0.00     0.178 C
HETATM   27  C22 UNL     1      -7.824 -19.103  -7.188  1.00  0.00     0.183 C
HETATM   28  C23 UNL     1      -7.175 -19.934  -8.298  1.00  0.00     0.207 C
BRANCH  26  29
HETATM   29  O13 UNL     1      -9.267 -19.524  -5.331  1.00  0.00    -0.390 OA
ATOM     30  H13 UNL     1      -9.710 -18.738  -5.629  1.00  0.00     0.210 HD
ENDBRANCH  26  29
BRANCH  27  31
HETATM   31  O14 UNL     1      -8.840 -18.379  -7.810  1.00  0.00    -0.390 OA
ATOM     32  H14 UNL     1      -8.926 -18.734  -8.687  1.00  0.00     0.210 HD
ENDBRANCH  27  31
BRANCH  28  33
HETATM   33  O15 UNL     1      -8.207 -20.752  -8.790  1.00  0.00    -0.383 OA
HETATM   34  C24 UNL     1      -7.867 -21.364  -9.987  1.00  0.00     0.202 C
ENDBRANCH  28  33
ENDBRANCH  21  22
ENDBRANCH   6  21
BRANCH   3  35
HETATM   35  C6  UNL     1       0.370 -21.027  -7.899  1.00  0.00     0.198 C
BRANCH  35  36
HETATM   36  O4  UNL     1       0.653 -21.780  -9.012  1.00  0.00    -0.398 OA
ATOM     37  H4  UNL     1       0.125 -21.605  -9.782  1.00  0.00     0.209 HD
ENDBRANCH  35  36
ENDBRANCH   3  35
BRANCH   5  38
HETATM   38  O10 UNL     1      -3.228 -22.069  -5.887  1.00  0.00    -0.385 OA
HETATM   39  C16 UNL     1      -4.049 -23.053  -5.347  1.00  0.00     0.202 C
ENDBRANCH   5  38
BRANCH   4  40
HETATM   40  O5  UNL     1      -1.355 -23.325  -7.567  1.00  0.00    -0.348 OA
BRANCH  40  41
HETATM   41  C8  UNL     1      -1.807 -24.401  -8.376  1.00  0.00     0.291 C
HETATM   42  O6  UNL     1      -2.115 -25.366  -7.414  1.00  0.00    -0.355 OA
HETATM   43  C9  UNL     1      -2.331 -26.625  -7.877  1.00  0.00     0.211 C
HETATM   44  C10 UNL     1      -0.999 -27.093  -8.482  1.00  0.00     0.104 C
HETATM   45  C11 UNL     1      -0.986 -28.555  -8.765  1.00  0.00     0.051 C
HETATM   46  C12 UNL     1      -0.873 -26.299  -9.759  1.00  0.00     0.190 C
HETATM   47  C14 UNL     1      -0.812 -24.834  -9.367  1.00  0.00     0.205 C
BRANCH  44  48
HETATM   48  O7  UNL     1       0.056 -26.750  -7.652  1.00  0.00    -0.385 OA
ATOM     49  H7  UNL     1      -0.112 -25.917  -7.229  1.00  0.00     0.210 HD
ENDBRANCH  44  48
BRANCH  46  50
HETATM   50  O8  UNL     1       0.216 -26.627 -10.523  1.00  0.00    -0.385 OA
HETATM   51  C13 UNL     1      -0.234 -26.996 -11.803  1.00  0.00     0.202 C
ENDBRANCH  46  50
BRANCH  47  52
HETATM   52  O9  UNL     1      -0.979 -24.148 -10.597  1.00  0.00    -0.388 OA
ATOM     53  H9  UNL     1      -0.286 -24.365 -11.210  1.00  0.00     0.210 HD
ENDBRANCH  47  52
ENDBRANCH  40  41
ENDBRANCH   4  40
TORSDOF 18
ENDMDL