MODEL 2
REMARK VINA RESULT: -4.006502195      1.479      1.813
REMARK  0 active torsions:
REMARK  status: ('A' for Active; 'I' for Inactive)
ROOT
HETATM    1  S1  UNL     1     -36.935 -41.150  56.574  1.00  0.00     0.009 SA
HETATM    2  N1  UNL     1     -36.028 -39.661  56.695  1.00  0.00    -0.243 NA
HETATM    3  C1  UNL     1     -35.311 -39.560  57.938  1.00  0.00     0.108 C
HETATM    4  C2  UNL     1     -34.046 -38.741  57.645  1.00  0.00    -0.000 C
HETATM    5  C3  UNL     1     -34.494 -37.528  56.877  1.00  0.00     0.007 C
HETATM    6  C4  UNL     1     -34.811 -37.949  55.448  1.00  0.00     0.021 C
HETATM    7  C5  UNL     1     -35.210 -39.427  55.534  1.00  0.00     0.070 C
HETATM    8  C6  UNL     1     -33.882 -40.178  55.607  1.00  0.00     0.021 C
HETATM    9  C7  UNL     1     -33.153 -39.652  56.815  1.00  0.00     0.007 C
ENDROOT
TORSDOF 0
ENDMDL