MODEL 1
REMARK VINA RESULT: -4.682246442      0.000      0.000
REMARK  1 active torsions:
REMARK  status: ('A' for Active; 'I' for Inactive)
REMARK    1  A    between atoms: N1_1  and  C1_5
ROOT
HETATM    1  C1  UNL     1     -35.319 -38.878  57.413  1.00  0.00     0.183 C
HETATM    2  C2  UNL     1     -35.769 -40.142  58.048  1.00  0.00     0.033 C
HETATM    3  C3  UNL     1     -36.031 -41.301  57.147  1.00  0.00     0.002 C
HETATM    4  C4  UNL     1     -37.235 -41.125  56.289  1.00  0.00     0.002 C
HETATM    5  C5  UNL     1     -37.057 -41.396  54.836  1.00  0.00     0.019 C
HETATM    6  C6  UNL     1     -35.780 -40.895  54.229  1.00  0.00     0.113 C
HETATM    7  N2  UNL     1     -35.706 -39.490  54.394  1.00  0.00    -0.421 N
ATOM      8  H2  UNL     1     -36.545 -38.912  54.452  1.00  0.00     0.153 HD
HETATM    9  C7  UNL     1     -34.409 -38.925  54.474  1.00  0.00     0.113 C
HETATM   10  C8  UNL     1     -33.568 -39.336  55.616  1.00  0.00     0.021 C
HETATM   11  C9  UNL     1     -33.924 -38.826  56.952  1.00  0.00     0.034 C
ENDROOT
BRANCH   1  12
HETATM   12  N1  UNL     1     -35.383 -37.914  58.548  1.00  0.00    -0.075 N
ATOM     13  H13 UNL     1     -34.697 -37.160  58.512  1.00  0.00     0.274 HD
ATOM     14  H12 UNL     1     -36.200 -37.303  58.549  1.00  0.00     0.274 HD
ATOM     15  H11 UNL     1     -35.304 -38.530  59.358  1.00  0.00     0.274 HD
ENDBRANCH   1  12
TORSDOF 1
ENDMDL