MODEL 3
REMARK VINA RESULT: -4.251529410      1.823      2.665
REMARK  2 active torsions:
REMARK  status: ('A' for Active; 'I' for Inactive)
REMARK    1  A    between atoms: C4_4  and  N1_5
REMARK    2  A    between atoms: C7_11  and  N2_13
ROOT
HETATM    1  C1  UNL     1     -36.475 -41.040  54.885  1.00  0.00     0.012 C
HETATM    2  C2  UNL     1     -35.567 -39.997  55.549  1.00  0.00     0.019 C
HETATM    3  C3  UNL     1     -35.840 -40.056  57.006  1.00  0.00     0.039 C
HETATM    4  C4  UNL     1     -34.883 -39.370  57.892  1.00  0.00     0.184 C
HETATM    5  C5  UNL     1     -33.597 -38.955  57.264  1.00  0.00     0.035 C
HETATM    6  C6  UNL     1     -33.144 -39.900  56.212  1.00  0.00     0.040 C
HETATM    7  C7  UNL     1     -34.157 -40.121  55.135  1.00  0.00     0.123 C
HETATM    8  C8  UNL     1     -33.872 -39.161  53.970  1.00  0.00     0.046 C
ENDROOT
BRANCH   7   9
HETATM    9  N2  UNL     1     -33.871 -41.458  54.587  1.00  0.00    -0.070 N
ATOM     10  H23 UNL     1     -34.725 -41.998  54.454  1.00  0.00     0.275 HD
ATOM     11  H22 UNL     1     -33.564 -41.407  53.616  1.00  0.00     0.275 HD
ATOM     12  H21 UNL     1     -33.197 -41.962  55.164  1.00  0.00     0.275 HD
ENDBRANCH   7   9
BRANCH   4  13
HETATM   13  N1  UNL     1     -35.473 -38.167  58.501  1.00  0.00    -0.075 N
ATOM     14  H13 UNL     1     -36.454 -38.313  58.738  1.00  0.00     0.274 HD
ATOM     15  H12 UNL     1     -35.104 -38.005  59.438  1.00  0.00     0.274 HD
ATOM     16  H11 UNL     1     -35.352 -37.347  57.906  1.00  0.00     0.274 HD
ENDBRANCH   4  13
TORSDOF 2
ENDMDL