MODEL 2
REMARK VINA RESULT: -4.528163524      1.568      3.844
REMARK  1 active torsions:
REMARK  status: ('A' for Active; 'I' for Inactive)
REMARK    1  A    between atoms: O1_1  and  C1_3
ROOT
HETATM    1  C1  UNL     1     -36.367 -41.261  56.694  1.00  0.00     0.122 C
HETATM    2  C2  UNL     1     -36.326 -41.570  58.185  1.00  0.00     0.032 C
HETATM    3  C3  UNL     1     -35.213 -40.691  58.751  1.00  0.00     0.007 C
HETATM    4  C4  UNL     1     -35.173 -39.608  57.749  1.00  0.00    -0.008 C
HETATM    5  C5  UNL     1     -34.043 -38.673  57.773  1.00  0.00     0.005 C
HETATM    6  C6  UNL     1     -34.294 -37.697  56.621  1.00  0.00     0.000 C
HETATM    7  C7  UNL     1     -34.279 -38.392  55.304  1.00  0.00     0.000 C
HETATM    8  C8  UNL     1     -35.117 -39.632  55.242  1.00  0.00     0.007 C
HETATM    9  C9  UNL     1     -35.104 -40.456  56.471  1.00  0.00     0.018 C
ENDROOT
BRANCH   1  10
HETATM   10  O1  UNL     1     -37.439 -40.378  56.441  1.00  0.00    -0.395 OA
ATOM     11  H1  UNL     1     -37.904 -40.674  55.666  1.00  0.00     0.210 HD
ENDBRANCH   1  10
TORSDOF 1
ENDMDL