MODEL 1
REMARK VINA RESULT: -4.983524636      0.000      0.000
REMARK  1 active torsions:
REMARK  status: ('A' for Active; 'I' for Inactive)
REMARK    1  A    between atoms: C6_7  and  N2_8
ROOT
HETATM    1  N1  UNL     1     -34.986 -42.193  53.110  1.00  0.00    -0.197 NA
HETATM    2  C1  UNL     1     -35.000 -41.411  53.954  1.00  0.00     0.070 C
HETATM    3  C2  UNL     1     -34.996 -40.409  55.024  1.00  0.00     0.138 C
HETATM    4  C3  UNL     1     -33.608 -40.244  55.609  1.00  0.00     0.025 C
HETATM    5  C4  UNL     1     -33.537 -38.861  56.214  1.00  0.00     0.004 C
HETATM    6  C5  UNL     1     -33.992 -38.815  57.633  1.00  0.00     0.033 C
HETATM    7  C6  UNL     1     -35.464 -39.000  57.811  1.00  0.00     0.189 C
HETATM    8  C7  UNL     1     -35.918 -40.420  57.574  1.00  0.00     0.086 C
HETATM    9  C8  UNL     1     -35.896 -40.793  56.140  1.00  0.00    -0.001 C
HETATM   10  N3  UNL     1     -36.828 -41.592  55.806  1.00  0.00    -0.404 N
ATOM     11  H31 UNL     1     -37.446 -41.856  56.573  1.00  0.00     0.155 HD
ATOM     12  H32 UNL     1     -36.813 -41.848  54.818  1.00  0.00     0.155 HD
ENDROOT
BRANCH   7  13
HETATM   13  N2  UNL     1     -36.269 -38.091  57.052  1.00  0.00    -0.075 N
ATOM     14  H23 UNL     1     -35.705 -37.624  56.342  1.00  0.00     0.274 HD
ATOM     15  H22 UNL     1     -36.914 -38.603  56.452  1.00  0.00     0.274 HD
ATOM     16  H21 UNL     1     -36.772 -37.406  57.614  1.00  0.00     0.274 HD
ENDBRANCH   7  13
TORSDOF 1
ENDMDL