MODEL 1
REMARK VINA RESULT: -4.820760585      0.000      0.000
REMARK  2 active torsions:
REMARK  status: ('A' for Active; 'I' for Inactive)
REMARK    1  A    between atoms: N1_1  and  C1_5
REMARK    2  A    between atoms: C8_12  and  O1_13
ROOT
HETATM    1  C1  UNL     1     -35.238 -39.113  57.819  1.00  0.00     0.129 C
HETATM    2  C2  UNL     1     -35.709 -37.715  58.250  1.00  0.00     0.039 C
HETATM    3  C3  UNL     1     -35.452 -36.904  57.005  1.00  0.00     0.003 C
HETATM    4  C4  UNL     1     -34.185 -37.491  56.435  1.00  0.00     0.007 C
HETATM    5  C5  UNL     1     -33.943 -38.798  57.163  1.00  0.00     0.021 C
HETATM    6  C6  UNL     1     -33.442 -39.803  56.200  1.00  0.00     0.009 C
HETATM    7  C7  UNL     1     -34.491 -40.433  55.335  1.00  0.00     0.032 C
HETATM    8  C8  UNL     1     -35.602 -40.942  56.247  1.00  0.00     0.120 C
HETATM    9  C9  UNL     1     -36.224 -39.712  56.861  1.00  0.00     0.070 C
ENDROOT
BRANCH   1  10
HETATM   10  N1  UNL     1     -35.111 -39.882  59.036  1.00  0.00    -0.070 N
ATOM     11  H13 UNL     1     -34.658 -40.786  58.901  1.00  0.00     0.275 HD
ATOM     12  H12 UNL     1     -34.429 -39.500  59.690  1.00  0.00     0.275 HD
ATOM     13  H11 UNL     1     -36.052 -39.951  59.423  1.00  0.00     0.275 HD
ENDBRANCH   1  10
BRANCH   8  14
HETATM   14  O1  UNL     1     -36.523 -41.722  55.554  1.00  0.00    -0.396 OA
ATOM     15  H1  UNL     1     -37.002 -42.301  56.134  1.00  0.00     0.210 HD
ENDBRANCH   8  14
TORSDOF 2
ENDMDL