MODEL 5
REMARK VINA RESULT: -4.406703438     10.855     11.989
REMARK  2 active torsions:
REMARK  status: ('A' for Active; 'I' for Inactive)
REMARK    1  A    between atoms: O1_1  and  C1_3
REMARK    2  A    between atoms: C6_8  and  O2_9
ROOT
HETATM    1  C1  UNL     1     -27.352 -40.752  49.331  1.00  0.00     0.118 C
HETATM    2  C2  UNL     1     -26.698 -42.122  49.345  1.00  0.00     0.032 C
HETATM    3  C3  UNL     1     -26.844 -42.717  50.704  1.00  0.00     0.002 C
HETATM    4  C4  UNL     1     -27.873 -43.800  50.800  1.00  0.00     0.002 C
HETATM    5  C5  UNL     1     -29.065 -43.577  49.900  1.00  0.00     0.032 C
HETATM    6  C6  UNL     1     -29.614 -42.203  50.220  1.00  0.00     0.118 C
HETATM    7  C7  UNL     1     -29.777 -41.348  49.020  1.00  0.00     0.034 C
HETATM    8  C8  UNL     1     -28.544 -40.795  48.435  1.00  0.00     0.034 C
ENDROOT
BRANCH   1   9
HETATM    9  O1  UNL     1     -26.422 -39.866  48.736  1.00  0.00    -0.396 OA
ATOM     10  H1  UNL     1     -25.649 -40.380  48.533  1.00  0.00     0.210 HD
ENDBRANCH   1   9
BRANCH   6  11
HETATM   11  O2  UNL     1     -30.862 -42.345  50.866  1.00  0.00    -0.396 OA
ATOM     12  H2  UNL     1     -30.767 -42.104  51.781  1.00  0.00     0.210 HD
ENDBRANCH   6  11
TORSDOF 2
ENDMDL