MODEL 5
REMARK VINA RESULT: -4.353173956      0.619      3.175
REMARK  0 active torsions:
REMARK  status: ('A' for Active; 'I' for Inactive)
ROOT
HETATM    1  C1  UNL     1     -32.774 -39.658  55.057  1.00  0.00     0.002 C
HETATM    2  C2  UNL     1     -33.094 -39.799  56.514  1.00  0.00     0.002 C
HETATM    3  C3  UNL     1     -34.049 -38.678  56.907  1.00  0.00     0.027 C
HETATM    4  C4  UNL     1     -35.287 -39.211  57.588  1.00  0.00     0.232 C
HETATM    5  N1  UNL     1     -36.440 -39.233  56.719  1.00  0.00    -0.074 N
ATOM      6  H11 UNL     1     -36.335 -38.559  55.961  1.00  0.00     0.277 HD
ATOM      7  H12 UNL     1     -37.254 -38.834  57.188  1.00  0.00     0.277 HD
HETATM    8  C5  UNL     1     -36.739 -40.543  56.201  1.00  0.00     0.259 C
HETATM    9  C6  UNL     1     -36.247 -40.721  54.768  1.00  0.00     0.259 C
HETATM   10  N2  UNL     1     -35.019 -41.469  54.786  1.00  0.00    -0.074 N
ATOM     11  H21 UNL     1     -35.210 -42.471  54.822  1.00  0.00     0.277 HD
ATOM     12  H22 UNL     1     -34.541 -41.353  55.679  1.00  0.00     0.277 HD
HETATM   13  C7  UNL     1     -34.134 -41.165  53.698  1.00  0.00     0.232 C
HETATM   14  C8  UNL     1     -32.743 -40.961  54.314  1.00  0.00     0.027 C
ENDROOT
TORSDOF 0
ENDMDL