MODEL 5
REMARK VINA RESULT: -3.514226476      1.907      2.952
REMARK  1 active torsions:
REMARK  status: ('A' for Active; 'I' for Inactive)
REMARK    1  A    between atoms: N1_1  and  C1_5
ROOT
HETATM    1  C1  UNL     1     -34.611 -38.960  57.939  1.00  0.00     0.192 C
HETATM    2  C2  UNL     1     -33.543 -38.582  56.980  1.00  0.00     0.033 C
HETATM    3  C3  UNL     1     -32.887 -39.697  56.252  1.00  0.00     0.002 C
HETATM    4  C4  UNL     1     -33.227 -39.736  54.778  1.00  0.00     0.001 C
HETATM    5  C5  UNL     1     -34.694 -39.893  54.518  1.00  0.00     0.010 C
HETATM    6  C6  UNL     1     -35.356 -40.959  55.315  1.00  0.00     0.074 C
HETATM    7  S1  UNL     1     -36.537 -40.331  56.507  1.00  0.00    -0.167 SA
HETATM    8  C7  UNL     1     -36.003 -38.840  57.341  1.00  0.00     0.106 C
ENDROOT
BRANCH   1   9
HETATM    9  N1  UNL     1     -34.474 -40.256  58.531  1.00  0.00    -0.074 N
ATOM     10  H13 UNL     1     -33.488 -40.472  58.675  1.00  0.00     0.274 HD
ATOM     11  H12 UNL     1     -34.796 -40.235  59.499  1.00  0.00     0.274 HD
ATOM     12  H11 UNL     1     -34.929 -41.018  58.028  1.00  0.00     0.274 HD
ENDBRANCH   1   9
TORSDOF 1
ENDMDL