MODEL 1
REMARK VINA RESULT: -4.660497838      0.000      0.000
REMARK  1 active torsions:
REMARK  status: ('A' for Active; 'I' for Inactive)
REMARK    1  A    between atoms: O1_1  and  C1_3
ROOT
HETATM    1  C1  UNL     1     -35.424 -38.804  56.650  1.00  0.00     0.118 C
HETATM    2  C2  UNL     1     -34.419 -39.204  57.744  1.00  0.00     0.036 C
HETATM    3  C3  UNL     1     -35.225 -40.227  58.452  1.00  0.00    -0.008 C
HETATM    4  C4  UNL     1     -34.516 -41.080  59.426  1.00  0.00     0.005 C
HETATM    5  C5  UNL     1     -35.491 -42.152  59.886  1.00  0.00     0.000 C
HETATM    6  C6  UNL     1     -36.876 -41.929  59.345  1.00  0.00     0.000 C
HETATM    7  C7  UNL     1     -36.879 -41.868  57.825  1.00  0.00     0.005 C
HETATM    8  C8  UNL     1     -35.686 -41.128  57.299  1.00  0.00    -0.008 C
HETATM    9  C9  UNL     1     -35.991 -40.141  56.231  1.00  0.00     0.036 C
ENDROOT
BRANCH   1  10
HETATM   10  O1  UNL     1     -36.465 -38.081  57.262  1.00  0.00    -0.396 OA
ATOM     11  H1  UNL     1     -37.231 -38.642  57.295  1.00  0.00     0.210 HD
ENDBRANCH   1  10
TORSDOF 1
ENDMDL