MODEL 4
REMARK VINA RESULT: -5.218553875      3.642      5.934
REMARK  2 active torsions:
REMARK  status: ('A' for Active; 'I' for Inactive)
REMARK    1  A    between atoms: N1_1  and  C1_5
REMARK    2  A    between atoms: C6_10  and  C7_11
ROOT
HETATM    1  C1  UNL     1     -38.675  34.660  58.131  1.00  0.00     0.188 C
HETATM    2  C2  UNL     1     -40.152  34.302  57.944  1.00  0.00     0.033 C
HETATM    3  C3  UNL     1     -40.371  33.618  56.609  1.00  0.00     0.002 C
HETATM    4  C4  UNL     1     -39.130  32.861  56.182  1.00  0.00     0.001 C
HETATM    5  C5  UNL     1     -37.965  33.796  55.949  1.00  0.00     0.007 C
HETATM    6  C6  UNL     1     -38.135  35.034  56.800  1.00  0.00     0.020 C
ENDROOT
BRANCH   6   7
HETATM    7  C7  UNL     1     -36.914  35.896  56.832  1.00  0.00    -0.008 C
HETATM    8  C8  UNL     1     -35.794  35.448  55.971  1.00  0.00     0.005 C
HETATM    9  C9  UNL     1     -35.026  36.725  55.655  1.00  0.00     0.000 C
HETATM   10  C10 UNL     1     -35.819  37.867  56.205  1.00  0.00     0.000 C
HETATM   11  C11 UNL     1     -37.232  37.272  56.265  1.00  0.00     0.005 C
ENDBRANCH   6   7
BRANCH   1  12
HETATM   12  N1  UNL     1     -38.622  35.707  59.111  1.00  0.00    -0.075 N
ATOM     13  H13 UNL     1     -38.434  35.365  60.054  1.00  0.00     0.274 HD
ATOM     14  H12 UNL     1     -37.796  36.299  59.022  1.00  0.00     0.274 HD
ATOM     15  H11 UNL     1     -39.497  36.225  59.039  1.00  0.00     0.274 HD
ENDBRANCH   1  12
TORSDOF 2
ENDMDL