MODEL 2
REMARK VINA RESULT: -4.889022350      2.429      4.733
REMARK  2 active torsions:
REMARK  status: ('A' for Active; 'I' for Inactive)
REMARK    1  A    between atoms: N1_1  and  C1_5
REMARK    2  A    between atoms: C3_7  and  C4_8
ROOT
HETATM    1  C1  UNL     1     -32.519  35.129  54.190  1.00  0.00     0.184 C
HETATM    2  C2  UNL     1     -33.771  35.985  53.950  1.00  0.00     0.037 C
HETATM    3  C3  UNL     1     -34.407  35.136  55.050  1.00  0.00    -0.007 C
HETATM    4  C10 UNL     1     -33.017  35.034  55.642  1.00  0.00     0.037 C
ENDROOT
BRANCH   3   5
HETATM    5  C4  UNL     1     -35.424  35.854  55.878  1.00  0.00    -0.010 C
HETATM    6  C5  UNL     1     -36.375  34.879  56.547  1.00  0.00     0.005 C
HETATM    7  C6  UNL     1     -37.065  35.665  57.644  1.00  0.00     0.000 C
HETATM    8  C7  UNL     1     -37.908  36.717  56.964  1.00  0.00     0.000 C
HETATM    9  C8  UNL     1     -37.143  37.605  56.055  1.00  0.00     0.000 C
HETATM   10  C9  UNL     1     -36.152  36.940  55.172  1.00  0.00     0.005 C
ENDBRANCH   3   5
BRANCH   1  11
HETATM   11  N1  UNL     1     -32.683  33.861  53.556  1.00  0.00    -0.075 N
ATOM     12  H13 UNL     1     -33.579  33.431  53.780  1.00  0.00     0.274 HD
ATOM     13  H12 UNL     1     -32.811  33.948  52.548  1.00  0.00     0.274 HD
ATOM     14  H11 UNL     1     -31.895  33.259  53.795  1.00  0.00     0.274 HD
ENDBRANCH   1  11
TORSDOF 2
ENDMDL