MODEL 5
REMARK VINA RESULT: -4.673700953      1.532      2.651
REMARK  2 active torsions:
REMARK  status: ('A' for Active; 'I' for Inactive)
REMARK    1  A    between atoms: C1_2  and  C2_3
REMARK    2  A    between atoms: C2_3  and  O2_4
ROOT
HETATM    1  C2  UNL     1     -34.576  35.058  54.617  1.00  0.00     0.110 C
HETATM    2  C3  UNL     1     -35.826  34.284  54.828  1.00  0.00     0.045 C
HETATM    3  C4  UNL     1     -36.413  34.341  56.190  1.00  0.00     0.003 C
HETATM    4  C5  UNL     1     -36.536  35.674  56.814  1.00  0.00     0.000 C
HETATM    5  C6  UNL     1     -36.777  36.797  55.832  1.00  0.00     0.000 C
HETATM    6  C7  UNL     1     -35.578  37.684  55.742  1.00  0.00     0.000 C
HETATM    7  C8  UNL     1     -34.772  37.562  54.512  1.00  0.00     0.003 C
HETATM    8  C9  UNL     1     -34.855  36.272  53.786  1.00  0.00     0.045 C
ENDROOT
BRANCH   1   9
HETATM    9  C1  UNL     1     -33.629  34.206  53.836  1.00  0.00     0.268 C
HETATM   10  O1  UNL     1     -33.997  33.076  53.519  1.00  0.00    -0.304 OA
ENDBRANCH   1   9
BRANCH   1  11
HETATM   11  O2  UNL     1     -33.913  35.384  55.795  1.00  0.00    -0.383 OA
ATOM     12  H2  UNL     1     -34.536  35.233  56.496  1.00  0.00     0.211 HD
ENDBRANCH   1  11
TORSDOF 2
ENDMDL