MODEL 1
REMARK VINA RESULT: -5.269007929      0.000      0.000
REMARK  2 active torsions:
REMARK  status: ('A' for Active; 'I' for Inactive)
REMARK    1  A    between atoms: O1_1  and  C1_3
REMARK    2  A    between atoms: C1_3  and  C2_4
ROOT
HETATM    1  C2  UNL     1     -36.580  31.976  54.395  1.00  0.00     0.009 C
HETATM    2  C3  UNL     1     -36.933  33.224  55.117  1.00  0.00     0.007 C
HETATM    3  C4  UNL     1     -36.404  34.479  54.463  1.00  0.00     0.010 C
HETATM    4  C5  UNL     1     -34.906  34.294  54.347  1.00  0.00    -0.040 C
HETATM    5  C6  UNL     1     -34.229  34.187  55.673  1.00  0.00     0.009 C
HETATM    6  C7  UNL     1     -33.001  35.076  55.626  1.00  0.00     0.001 C
HETATM    7  C8  UNL     1     -32.885  35.529  54.176  1.00  0.00     0.001 C
HETATM    8  C9  UNL     1     -34.347  35.583  53.768  1.00  0.00     0.009 C
HETATM    9  C10 UNL     1     -34.538  33.140  53.479  1.00  0.00     0.010 C
HETATM   10  C11 UNL     1     -35.619  32.143  53.262  1.00  0.00     0.007 C
ENDROOT
BRANCH   1  11
HETATM   11  C1  UNL     1     -37.838  31.297  53.838  1.00  0.00     0.168 C
BRANCH  11  12
HETATM   12  O1  UNL     1     -38.009  31.550  52.499  1.00  0.00    -0.400 OA
ATOM     13  H1  UNL     1     -38.917  31.730  52.284  1.00  0.00     0.209 HD
ENDBRANCH  11  12
ENDBRANCH   1  11
TORSDOF 2
ENDMDL