MODEL 3
REMARK VINA RESULT: -5.108502978      1.546      1.878
REMARK  1 active torsions:
REMARK  status: ('A' for Active; 'I' for Inactive)
REMARK    1  A    between atoms: C1_2  and  C2_4
ROOT
HETATM    1  C2  UNL     1     -34.649  35.207  54.739  1.00  0.00     0.087 C
HETATM    2  C3  UNL     1     -35.930  34.458  54.883  1.00  0.00     0.015 C
HETATM    3  C4  UNL     1     -36.479  34.430  56.268  1.00  0.00     0.001 C
HETATM    4  C5  UNL     1     -36.611  35.745  56.932  1.00  0.00     0.000 C
HETATM    5  C6  UNL     1     -36.723  36.919  56.023  1.00  0.00     0.000 C
HETATM    6  C7  UNL     1     -35.413  37.662  55.972  1.00  0.00     0.000 C
HETATM    7  C8  UNL     1     -34.772  37.671  54.630  1.00  0.00     0.001 C
HETATM    8  C9  UNL     1     -34.910  36.411  53.852  1.00  0.00     0.015 C
ENDROOT
BRANCH   1   9
HETATM    9  C1  UNL     1     -33.615  34.383  54.047  1.00  0.00     0.177 C
HETATM   10  O1  UNL     1     -32.454  34.863  53.916  1.00  0.00    -0.648 OA
HETATM   11  O2  UNL     1     -33.946  33.128  53.571  1.00  0.00    -0.648 OA
ENDBRANCH   1   9
TORSDOF 1
ENDMDL