MODEL 2
REMARK VINA RESULT: -4.969085996      2.763      4.081
REMARK  2 active torsions:
REMARK  status: ('A' for Active; 'I' for Inactive)
REMARK    1  A    between atoms: O1_1  and  C1_3
REMARK    2  A    between atoms: C5_7  and  C6_8
ROOT
HETATM    1  C1  UNL     1     -34.942  33.489  55.298  1.00  0.00     0.122 C
HETATM    2  C2  UNL     1     -33.999  33.911  54.148  1.00  0.00     0.032 C
HETATM    3  C3  UNL     1     -34.045  35.415  54.109  1.00  0.00     0.003 C
HETATM    4  C4  UNL     1     -34.677  35.781  55.456  1.00  0.00     0.007 C
HETATM    5  C5  UNL     1     -35.780  34.727  55.516  1.00  0.00     0.018 C
ENDROOT
BRANCH   5   6
HETATM    6  C6  UNL     1     -36.550  34.733  56.787  1.00  0.00    -0.008 C
HETATM    7  C7  UNL     1     -36.815  36.060  57.403  1.00  0.00     0.005 C
HETATM    8  C8  UNL     1     -38.092  35.867  58.234  1.00  0.00     0.000 C
HETATM    9  C9  UNL     1     -38.549  34.460  57.971  1.00  0.00     0.000 C
HETATM   10  C10 UNL     1     -37.971  34.191  56.576  1.00  0.00     0.005 C
ENDBRANCH   5   6
BRANCH   1  11
HETATM   11  O1  UNL     1     -34.140  33.324  56.443  1.00  0.00    -0.395 OA
ATOM     12  H1  UNL     1     -34.680  32.899  57.098  1.00  0.00     0.210 HD
ENDBRANCH   1  11
TORSDOF 2
ENDMDL