MODEL 5
REMARK VINA RESULT: -5.057329645      2.659      3.630
REMARK  1 active torsions:
REMARK  status: ('A' for Active; 'I' for Inactive)
REMARK    1  A    between atoms: C1_2  and  C2_4
ROOT
HETATM    1  C2  UNL     1     -34.816  35.576  55.309  1.00  0.00     0.049 C
HETATM    2  C3  UNL     1     -33.349  35.682  55.400  1.00  0.00     0.020 C
HETATM    3  C4  UNL     1     -32.552  34.757  54.578  1.00  0.00     0.002 C
HETATM    4  C5  UNL     1     -33.271  33.975  53.552  1.00  0.00     0.005 C
HETATM    5  C6  UNL     1     -34.737  33.742  53.905  1.00  0.00    -0.013 C
HETATM    6  C7  UNL     1     -34.833  33.237  55.331  1.00  0.00     0.006 C
HETATM    7  C8  UNL     1     -35.373  34.403  56.133  1.00  0.00     0.021 C
HETATM    8  C9  UNL     1     -35.327  35.160  53.940  1.00  0.00     0.025 C
ENDROOT
BRANCH   1   9
HETATM    9  C1  UNL     1     -35.455  36.812  55.792  1.00  0.00     0.181 C
HETATM   10  O1  UNL     1     -36.486  36.835  56.504  1.00  0.00    -0.647 OA
HETATM   11  O2  UNL     1     -34.891  38.019  55.443  1.00  0.00    -0.647 OA
ENDBRANCH   1   9
TORSDOF 1
ENDMDL