MODEL 1
REMARK VINA RESULT: -5.334223280      0.000      0.000
REMARK  2 active torsions:
REMARK  status: ('A' for Active; 'I' for Inactive)
REMARK    1  A    between atoms: N1_1  and  C1_5
REMARK    2  A    between atoms: C1_5  and  C2_6
ROOT
HETATM    1  C2  UNL     1     -35.474  35.622  54.216  1.00  0.00    -0.016 C
HETATM    2  C3  UNL     1     -35.555  35.354  55.688  1.00  0.00     0.015 C
HETATM    3  C4  UNL     1     -34.537  34.292  56.075  1.00  0.00    -0.013 C
HETATM    4  C5  UNL     1     -33.167  34.915  55.834  1.00  0.00     0.009 C
HETATM    5  C6  UNL     1     -33.057  35.269  54.376  1.00  0.00    -0.013 C
HETATM    6  C7  UNL     1     -33.139  33.988  53.567  1.00  0.00     0.009 C
HETATM    7  C8  UNL     1     -34.506  33.408  53.777  1.00  0.00    -0.013 C
HETATM    8  C9  UNL     1     -34.742  33.055  55.230  1.00  0.00     0.009 C
HETATM    9  C10 UNL     1     -35.592  34.395  53.366  1.00  0.00     0.015 C
HETATM   10  C11 UNL     1     -34.107  36.243  53.949  1.00  0.00     0.015 C
ENDROOT
BRANCH   1  11
HETATM   11  C1  UNL     1     -36.510  36.618  53.796  1.00  0.00     0.239 C
BRANCH  11  12
HETATM   12  N1  UNL     1     -36.666  36.747  52.381  1.00  0.00    -0.079 N
ATOM     13  H13 UNL     1     -35.786  36.549  51.906  1.00  0.00     0.274 HD
ATOM     14  H12 UNL     1     -37.238  35.986  52.016  1.00  0.00     0.274 HD
ATOM     15  H11 UNL     1     -37.039  37.647  52.079  1.00  0.00     0.274 HD
ENDBRANCH  11  12
ENDBRANCH   1  11
TORSDOF 2
ENDMDL