MODEL 4
REMARK VINA RESULT: -4.937686474      2.307      4.378
REMARK  2 active torsions:
REMARK  status: ('A' for Active; 'I' for Inactive)
REMARK    1  A    between atoms: N1_1  and  C1_5
REMARK    2  A    between atoms: C4_8  and  C5_9
ROOT
HETATM    1  C1  UNL     1     -36.291  37.413  55.979  1.00  0.00     0.188 C
HETATM    2  C2  UNL     1     -36.984  36.609  57.084  1.00  0.00     0.033 C
HETATM    3  C3  UNL     1     -37.585  35.764  55.974  1.00  0.00     0.009 C
HETATM    4  C4  UNL     1     -36.450  36.228  55.083  1.00  0.00     0.020 C
ENDROOT
BRANCH   4   5
HETATM    5  C5  UNL     1     -35.279  35.266  55.046  1.00  0.00    -0.008 C
HETATM    6  C6  UNL     1     -35.439  34.438  53.787  1.00  0.00     0.005 C
HETATM    7  C7  UNL     1     -34.322  33.401  53.855  1.00  0.00     0.000 C
HETATM    8  C8  UNL     1     -33.042  34.128  53.649  1.00  0.00     0.000 C
HETATM    9  C9  UNL     1     -32.807  35.294  54.524  1.00  0.00     0.000 C
HETATM   10  C10 UNL     1     -33.961  35.949  55.145  1.00  0.00     0.005 C
ENDBRANCH   4   5
BRANCH   1  11
HETATM   11  N1  UNL     1     -37.174  38.491  55.531  1.00  0.00    -0.075 N
ATOM     12  H13 UNL     1     -37.750  38.211  54.736  1.00  0.00     0.274 HD
ATOM     13  H12 UNL     1     -37.923  38.677  56.197  1.00  0.00     0.274 HD
ATOM     14  H11 UNL     1     -36.621  39.324  55.331  1.00  0.00     0.274 HD
ENDBRANCH   1  11
TORSDOF 2
ENDMDL