MODEL 2
REMARK VINA RESULT: -5.417895622      1.491      2.442
REMARK  2 active torsions:
REMARK  status: ('A' for Active; 'I' for Inactive)
REMARK    1  A    between atoms: N1_1  and  C1_5
REMARK    2  A    between atoms: C5_9  and  C6_10
ROOT
HETATM    1  C1  UNL     1     -36.538  35.855  55.904  1.00  0.00     0.188 C
HETATM    2  C2  UNL     1     -37.028  37.013  56.788  1.00  0.00     0.033 C
HETATM    3  C3  UNL     1     -36.605  38.205  55.989  1.00  0.00     0.002 C
HETATM    4  C4  UNL     1     -35.216  37.815  55.532  1.00  0.00     0.007 C
HETATM    5  C5  UNL     1     -35.165  36.301  55.556  1.00  0.00     0.020 C
ENDROOT
BRANCH   5   6
HETATM    6  C6  UNL     1     -34.740  35.867  54.147  1.00  0.00    -0.008 C
HETATM    7  C7  UNL     1     -35.456  34.630  53.700  1.00  0.00     0.005 C
HETATM    8  C8  UNL     1     -34.748  33.353  54.066  1.00  0.00     0.000 C
HETATM    9  C9  UNL     1     -33.439  33.427  53.319  1.00  0.00     0.000 C
HETATM   10  C10 UNL     1     -32.612  34.517  53.887  1.00  0.00     0.000 C
HETATM   11  C11 UNL     1     -33.273  35.832  54.064  1.00  0.00     0.005 C
ENDBRANCH   5   6
BRANCH   1  12
HETATM   12  N1  UNL     1     -36.545  34.688  56.801  1.00  0.00    -0.075 N
ATOM     13  H13 UNL     1     -37.418  34.160  56.794  1.00  0.00     0.274 HD
ATOM     14  H12 UNL     1     -35.949  33.920  56.492  1.00  0.00     0.274 HD
ATOM     15  H11 UNL     1     -36.295  35.071  57.713  1.00  0.00     0.274 HD
ENDBRANCH   1  12
TORSDOF 2
ENDMDL