MODEL 5
REMARK VINA RESULT: -7.119007121      1.335      1.354
REMARK  3 active torsions:
REMARK  status: ('A' for Active; 'I' for Inactive)
REMARK    1  A    between atoms: C10_19  and  C11_20
REMARK    2  A    between atoms: C11_20  and  C12_21
REMARK    3  A    between atoms: C12_21  and  N3_22
ROOT
HETATM    1  N1  UNL     1      29.838  -5.568  16.601  1.00  0.00    -0.196 NA
HETATM    2  C1  UNL     1      29.750  -4.407  16.688  1.00  0.00     0.073 C
HETATM    3  C2  UNL     1      29.625  -2.945  16.819  1.00  0.00     0.176 C
HETATM    4  C3  UNL     1      28.299  -2.570  17.319  1.00  0.00     0.136 C
HETATM    5  N2  UNL     1      28.169  -1.955  18.429  1.00  0.00    -0.382 N
ATOM      6  H21 UNL     1      27.247  -1.693  18.776  1.00  0.00     0.158 HD
ATOM      7  H22 UNL     1      28.991  -1.717  18.983  1.00  0.00     0.158 HD
HETATM    8  O1  UNL     1      27.187  -2.892  16.568  1.00  0.00    -0.294 OA
HETATM    9  C4  UNL     1      27.410  -2.986  15.178  1.00  0.00     0.109 A
HETATM   10  C5  UNL     1      26.317  -3.309  14.397  1.00  0.00     0.092 A
HETATM   11 CL1  UNL     1      24.744  -3.581  15.119  1.00  0.00    -0.079 Cl
HETATM   12  C6  UNL     1      26.511  -3.409  13.031  1.00  0.00     0.082 A
HETATM   13 CL2  UNL     1      25.160  -3.814  12.025  1.00  0.00    -0.081 Cl
HETATM   14  C7  UNL     1      27.758  -3.194  12.457  1.00  0.00     0.080 A
HETATM   15 CL3  UNL     1      28.017  -3.318  10.725  1.00  0.00    -0.081 Cl
HETATM   16  C8  UNL     1      28.850  -2.871  13.238  1.00  0.00     0.067 A
HETATM   17 CL4  UNL     1      30.429  -2.597  12.526  1.00  0.00    -0.082 Cl
HETATM   18  C9  UNL     1      28.649  -2.771  14.608  1.00  0.00     0.007 A
HETATM   19  C10 UNL     1      29.867  -2.409  15.412  1.00  0.00     0.050 C
ENDROOT
BRANCH  19  20
HETATM   20  C11 UNL     1      30.023  -0.914  15.479  1.00  0.00     0.038 C
BRANCH  20  21
HETATM   21  C12 UNL     1      31.197  -0.429  16.256  1.00  0.00     0.230 C
BRANCH  21  22
HETATM   22  N3  UNL     1      30.795   0.432  17.371  1.00  0.00    -0.079 N
ATOM     23  H33 UNL     1      31.390   0.286  18.186  1.00  0.00     0.274 HD
ATOM     24  H32 UNL     1      31.018   1.409  17.183  1.00  0.00     0.274 HD
ATOM     25  H31 UNL     1      29.810   0.315  17.606  1.00  0.00     0.274 HD
ENDBRANCH  21  22
ENDBRANCH  20  21
ENDBRANCH  19  20
TORSDOF 3
ENDMDL