MODEL 2
REMARK VINA RESULT: -8.166494148      3.570      6.421
REMARK  5 active torsions:
REMARK  status: ('A' for Active; 'I' for Inactive)
REMARK    1  A    between atoms: O1_2  and  C2_3
REMARK    2  A    between atoms: C4_5  and  O2_6
REMARK    3  A    between atoms: C5_8  and  C6_9
REMARK    4  A    between atoms: C8_12  and  O4_13
REMARK    5  A    between atoms: C9_15  and  C10_16
ROOT
HETATM    1  C2  UNL     1      29.190  -2.283  14.416  1.00  0.00     0.085 A
HETATM    2  C3  UNL     1      28.249  -1.495  15.005  1.00  0.00     0.075 A
HETATM    3  C4  UNL     1      27.135  -2.026  15.696  1.00  0.00     0.085 A
HETATM    4  C5  UNL     1      26.985  -3.416  15.783  1.00  0.00     0.076 A
HETATM    5  C8  UNL     1      27.953  -4.202  15.178  1.00  0.00     0.096 A
HETATM    6  C9  UNL     1      29.019  -3.639  14.516  1.00  0.00     0.048 A
ENDROOT
BRANCH   6   7
HETATM    7  C10 UNL     1      29.987  -4.524  13.910  1.00  0.00     0.063 A
HETATM    8  C11 UNL     1      29.798  -4.939  12.610  1.00  0.00     0.171 A
HETATM    9  F1  UNL     1      28.716  -4.538  11.863  1.00  0.00    -0.202 F
HETATM   10  C12 UNL     1      30.746  -5.783  12.071  1.00  0.00     0.180 A
HETATM   11  F2  UNL     1      30.600  -6.217  10.792  1.00  0.00    -0.201 F
HETATM   12  C13 UNL     1      31.851  -6.206  12.798  1.00  0.00     0.117 A
HETATM   13 CL1  UNL     1      33.053  -7.279  12.109  1.00  0.00    -0.077 Cl
HETATM   14  C14 UNL     1      32.012  -5.769  14.106  1.00  0.00     0.180 A
HETATM   15  F3  UNL     1      33.076  -6.164  14.839  1.00  0.00    -0.201 F
HETATM   16  C15 UNL     1      31.072  -4.926  14.656  1.00  0.00     0.171 A
HETATM   17  F4  UNL     1      31.275  -4.521  15.953  1.00  0.00    -0.202 F
ENDBRANCH   6   7
BRANCH   1  18
HETATM   18  O1  UNL     1      30.294  -1.725  13.730  1.00  0.00    -0.355 OA
HETATM   19  C1  UNL     1      30.950  -0.605  14.294  1.00  0.00     0.210 C
ENDBRANCH   1  18
BRANCH   5  20
HETATM   20  O4  UNL     1      27.816  -5.604  15.257  1.00  0.00    -0.359 OA
ATOM     21  H4  UNL     1      28.450  -6.087  15.775  1.00  0.00     0.217 HD
ENDBRANCH   5  20
BRANCH   4  22
HETATM   22  C6  UNL     1      25.875  -4.035  16.472  1.00  0.00     0.161 C
HETATM   23  C7  UNL     1      24.553  -4.259  15.856  1.00  0.00     0.097 C
HETATM   24  O3  UNL     1      25.991  -4.422  17.658  1.00  0.00    -0.293 OA
ENDBRANCH   4  22
BRANCH   3  25
HETATM   25  O2  UNL     1      26.269  -1.130  16.237  1.00  0.00    -0.360 OA
ATOM     26  H2  UNL     1      26.651  -0.380  16.678  1.00  0.00     0.217 HD
ENDBRANCH   3  25
TORSDOF 5
ENDMDL