MODEL 5
REMARK VINA RESULT: -7.982988691      3.568      5.412
REMARK  5 active torsions:
REMARK  status: ('A' for Active; 'I' for Inactive)
REMARK    1  A    between atoms: C2_2  and  C3_3
REMARK    2  A    between atoms: C3_3  and  C4_5
REMARK    3  A    between atoms: C5_7  and  C6_8
REMARK    4  A    between atoms: C7_11  and  O4_12
REMARK    5  A    between atoms: C8_14  and  C9_15
ROOT
HETATM    1  C4  UNL     1      26.722  -4.176  14.373  1.00  0.00     0.065 A
HETATM    2  S1  UNL     1      25.084  -4.598  14.513  1.00  0.00    -0.076 SA
HETATM    3  C5  UNL     1      24.668  -3.652  15.872  1.00  0.00     0.116 A
HETATM    4  C7  UNL     1      25.842  -3.020  16.185  1.00  0.00     0.102 A
HETATM    5  C8  UNL     1      26.915  -3.294  15.403  1.00  0.00     0.033 A
ENDROOT
BRANCH   5   6
HETATM    6  C9  UNL     1      28.268  -2.676  15.627  1.00  0.00     0.023 A
HETATM    7  C10 UNL     1      28.535  -1.419  15.152  1.00  0.00     0.061 A
HETATM    8  C11 UNL     1      29.775  -0.858  15.361  1.00  0.00     0.159 A
HETATM    9  F1  UNL     1      30.053   0.385  14.896  1.00  0.00    -0.203 F
HETATM   10  C12 UNL     1      30.778  -1.545  16.050  1.00  0.00     0.196 A
HETATM   11  F2  UNL     1      31.997  -1.000  16.257  1.00  0.00    -0.199 F
HETATM   12  C13 UNL     1      30.506  -2.809  16.525  1.00  0.00     0.197 A
HETATM   13  F3  UNL     1      31.477  -3.482  17.197  1.00  0.00    -0.199 F
HETATM   14  C14 UNL     1      29.258  -3.349  16.306  1.00  0.00     0.169 A
HETATM   15  F4  UNL     1      29.022  -4.590  16.784  1.00  0.00    -0.202 F
ENDBRANCH   5   6
BRANCH   1  16
HETATM   16  C3  UNL     1      27.730  -4.635  13.384  1.00  0.00     0.167 C
HETATM   17  O1  UNL     1      27.970  -4.028  12.326  1.00  0.00    -0.292 OA
BRANCH  16  18
HETATM   18  C2  UNL     1      28.455  -5.877  13.721  1.00  0.00     0.080 C
HETATM   19  C1  UNL     1      29.922  -5.788  13.515  1.00  0.00     0.013 C
ENDBRANCH  16  18
ENDBRANCH   1  16
BRANCH   4  20
HETATM   20  O4  UNL     1      25.844  -2.131  17.301  1.00  0.00    -0.358 OA
ATOM     21  H4  UNL     1      26.486  -1.431  17.309  1.00  0.00     0.217 HD
ENDBRANCH   4  20
BRANCH   3  22
HETATM   22  C6  UNL     1      23.353  -3.543  16.547  1.00  0.00     0.219 C
HETATM   23  O2  UNL     1      23.312  -3.647  17.781  1.00  0.00    -0.643 OA
HETATM   24  O3  UNL     1      22.197  -3.331  15.837  1.00  0.00    -0.643 OA
ENDBRANCH   3  22
TORSDOF 5
ENDMDL