MODEL 1
REMARK VINA RESULT: -7.419537046      0.000      0.000
REMARK  7 active torsions:
REMARK  status: ('A' for Active; 'I' for Inactive)
REMARK    1  A    between atoms: C2_2  and  C4_4
REMARK    2  A    between atoms: C4_4  and  S1_5
REMARK    3  A    between atoms: S1_5  and  C5_6
REMARK    4  A    between atoms: C5_6  and  N1_8
REMARK    5  A    between atoms: N1_8  and  C6_10
REMARK    6  A    between atoms: C6_10  and  C7_15
REMARK    7  A    between atoms: N2_11  and  O1_13
ROOT
HETATM    1  C6  UNL     1      27.845  -3.060  17.130  1.00  0.00     0.143 C
HETATM    2  N2  UNL     1      28.222  -2.491  18.187  1.00  0.00    -0.252 N
ATOM      3  H2  UNL     1      29.105  -2.838  18.560  1.00  0.00     0.196 HD
ENDROOT
BRANCH   1   4
HETATM    4  N1  UNL     1      28.661  -4.090  16.580  1.00  0.00    -0.326 N
ATOM      5  H1  UNL     1      28.245  -5.002  16.392  1.00  0.00     0.169 HD
BRANCH   4   6
HETATM    6  C5  UNL     1      30.041  -3.887  16.285  1.00  0.00     0.140 C
HETATM    7  S2  UNL     1      31.199  -4.855  16.910  1.00  0.00    -0.053 SA
BRANCH   6   8
HETATM    8  S1  UNL     1      30.591  -2.568  15.215  1.00  0.00    -0.100 SA
BRANCH   8   9
HETATM    9  C4  UNL     1      30.895  -1.063  16.176  1.00  0.00     0.085 C
BRANCH   9  10
HETATM   10  C2  UNL     1      31.562   0.004  15.377  1.00  0.00    -0.013 C
HETATM   11  C1  UNL     1      31.775  -0.431  13.927  1.00  0.00     0.010 C
HETATM   12  C3  UNL     1      30.867   1.335  15.445  1.00  0.00     0.010 C
ENDBRANCH   9  10
ENDBRANCH   8   9
ENDBRANCH   6   8
ENDBRANCH   4   6
ENDBRANCH   1   4
BRANCH   1  13
HETATM   13  C7  UNL     1      26.621  -2.746  16.438  1.00  0.00     0.093 A
HETATM   14  C8  UNL     1      26.486  -1.788  15.451  1.00  0.00     0.175 A
HETATM   15  F1  UNL     1      27.558  -1.022  15.089  1.00  0.00    -0.202 F
HETATM   16  C9  UNL     1      25.293  -1.537  14.802  1.00  0.00     0.197 A
HETATM   17  F2  UNL     1      25.176  -0.596  13.834  1.00  0.00    -0.199 F
HETATM   18  C10 UNL     1      24.182  -2.271  15.150  1.00  0.00     0.199 A
HETATM   19  F3  UNL     1      22.964  -2.086  14.556  1.00  0.00    -0.199 F
HETATM   20  C11 UNL     1      24.310  -3.227  16.135  1.00  0.00     0.197 A
HETATM   21  F4  UNL     1      23.227  -3.986  16.518  1.00  0.00    -0.199 F
HETATM   22  C12 UNL     1      25.485  -3.493  16.792  1.00  0.00     0.175 A
HETATM   23  F5  UNL     1      25.582  -4.450  17.769  1.00  0.00    -0.202 F
ENDBRANCH   1  13
BRANCH   2  24
HETATM   24  O1  UNL     1      27.661  -1.505  18.910  1.00  0.00    -0.288 OA
ATOM     25  H1  UNL     1      27.049  -1.532  19.636  1.00  0.00     0.244 HD
ENDBRANCH   2  24
TORSDOF 7
ENDMDL