MODEL 5
REMARK VINA RESULT: -7.166368760      3.515      4.679
REMARK  5 active torsions:
REMARK  status: ('A' for Active; 'I' for Inactive)
REMARK    1  A    between atoms: C3_4  and  O1_5
REMARK    2  A    between atoms: N2_7  and  C4_8
REMARK    3  A    between atoms: C4_8  and  C5_9
REMARK    4  A    between atoms: C5_9  and  C7_11
REMARK    5  A    between atoms: C5_9  and  C13_17
ROOT
HETATM    1  C4  UNL     1      29.486  -5.168  14.527  1.00  0.00     0.106 C
ENDROOT
BRANCH   1   2
HETATM    2  N2  UNL     1      28.738  -4.559  15.560  1.00  0.00    -0.139 N
HETATM    3  C3  UNL     1      29.172  -4.002  16.687  1.00  0.00     0.178 A
HETATM    4  C2  UNL     1      28.059  -3.558  17.377  1.00  0.00     0.165 A
HETATM    5  N1  UNL     1      26.963  -3.832  16.693  1.00  0.00    -0.193 N
HETATM    6  C1  UNL     1      25.568  -3.533  17.069  1.00  0.00     0.175 C
HETATM    7  C14 UNL     1      27.376  -4.446  15.574  1.00  0.00     0.685 A
HETATM    8  N3  UNL     1      26.530  -4.824  14.675  1.00  0.00    -0.234 N
ATOM      9  H32 UNL     1      25.513  -4.740  14.686  1.00  0.00     0.174 HD
ATOM     10  H31 UNL     1      26.843  -5.291  13.825  1.00  0.00     0.174 HD
BRANCH   3  11
HETATM   11  O1  UNL     1      30.508  -3.841  17.169  1.00  0.00    -0.344 OA
ATOM     12  H1  UNL     1      30.889  -2.996  17.375  1.00  0.00     0.219 HD
ENDBRANCH   3  11
ENDBRANCH   1   2
BRANCH   1  13
HETATM   13  C5  UNL     1      30.137  -4.420  13.438  1.00  0.00     0.058 C
HETATM   14  C6  UNL     1      30.788  -3.123  13.885  1.00  0.00     0.027 C
BRANCH  13  15
HETATM   15  C7  UNL     1      31.211  -5.361  12.894  1.00  0.00     0.004 C
HETATM   16  C8  UNL     1      32.296  -5.723  13.842  1.00  0.00     0.006 C
HETATM   17  C9  UNL     1      33.051  -6.935  13.277  1.00  0.00     0.000 C
HETATM   18  C10 UNL     1      32.969  -7.046  11.795  1.00  0.00     0.000 C
HETATM   19  C11 UNL     1      31.562  -7.141  11.276  1.00  0.00     0.000 C
HETATM   20  C12 UNL     1      30.657  -6.689  12.434  1.00  0.00     0.006 C
ENDBRANCH  13  15
BRANCH  13  21
HETATM   21  C13 UNL     1      29.216  -4.064  12.323  1.00  0.00     0.267 C
HETATM   22  F1  UNL     1      28.158  -4.965  12.171  1.00  0.00    -0.206 F
HETATM   23 CL1  UNL     1      28.285  -2.551  12.716  1.00  0.00    -0.065 Cl
HETATM   24 CL2  UNL     1      30.010  -3.869  10.760  1.00  0.00    -0.065 Cl
ENDBRANCH  13  21
ENDBRANCH   1  13
TORSDOF 5
ENDMDL