MODEL 2
REMARK VINA RESULT: -8.814723140      0.429      1.119
REMARK  4 active torsions:
REMARK  status: ('A' for Active; 'I' for Inactive)
REMARK    1  A    between atoms: N2_7  and  N3_9
REMARK    2  A    between atoms: C4_11  and  C5_12
REMARK    3  A    between atoms: C6_13  and  O2_14
REMARK    4  A    between atoms: C9_19  and  C10_20
ROOT
HETATM    1  C5  UNL     1      31.119  -5.766  12.908  1.00  0.00     0.021 A
HETATM    2  C6  UNL     1      31.333  -6.358  11.667  1.00  0.00     0.080 A
HETATM    3  C7  UNL     1      32.495  -7.021  11.366  1.00  0.00     0.080 A
HETATM    4  C8  UNL     1      33.458  -7.075  12.355  1.00  0.00     0.133 A
HETATM    5  F1  UNL     1      34.608  -7.723  12.069  1.00  0.00    -0.205 F
HETATM    6  C9  UNL     1      33.301  -6.503  13.611  1.00  0.00     0.054 A
HETATM    7  C12 UNL     1      32.114  -5.857  13.848  1.00  0.00    -0.031 A
HETATM    8  C13 UNL     1      31.860  -5.283  15.192  1.00  0.00     0.050 C
ENDROOT
BRANCH   1   9
HETATM    9  C4  UNL     1      29.882  -5.044  13.203  1.00  0.00     0.122 C
HETATM   10  N3  UNL     1      28.874  -5.684  13.496  1.00  0.00    -0.309 N
ATOM     11  H3  UNL     1      29.195  -6.651  13.456  1.00  0.00     0.186 HD
BRANCH  10  12
HETATM   12  N2  UNL     1      27.630  -5.801  13.826  1.00  0.00    -0.278 N
HETATM   13  C3  UNL     1      26.829  -4.980  14.418  1.00  0.00     0.192 A
HETATM   14  O1  UNL     1      27.000  -3.786  14.876  1.00  0.00    -0.218 OA
HETATM   15  C14 UNL     1      25.490  -5.302  14.695  1.00  0.00     0.017 A
HETATM   16  N1  UNL     1      25.915  -3.293  15.421  1.00  0.00    -0.263 N
HETATM   17  C2  UNL     1      24.935  -4.226  15.325  1.00  0.00     0.039 A
ATOM     18  H1  UNL     1      25.824  -2.370  15.845  1.00  0.00     0.194 HD
HETATM   19  C1  UNL     1      23.522  -4.123  15.816  1.00  0.00     0.071 C
HETATM   20  C15 UNL     1      24.837  -6.601  14.340  1.00  0.00     0.055 C
ATOM     21  H2  UNL     1      27.208  -6.696  13.577  1.00  0.00     0.189 HD
ENDBRANCH  10  12
ENDBRANCH   1   9
BRANCH   2  22
HETATM   22  O2  UNL     1      30.307  -6.246  10.745  1.00  0.00    -0.360 OA
ATOM     23  H2  UNL     1      30.526  -5.841   9.915  1.00  0.00     0.217 HD
ENDBRANCH   2  22
BRANCH   6  24
HETATM   24  C10 UNL     1      34.400  -6.660  14.551  1.00  0.00     0.197 C
HETATM   25  F2  UNL     1      35.350  -5.637  14.581  1.00  0.00    -0.199 F
HETATM   26  C11 UNL     1      34.598  -7.636  15.369  1.00  0.00     0.306 C
HETATM   27  F3  UNL     1      33.789  -8.697  15.487  1.00  0.00    -0.170 F
HETATM   28  F4  UNL     1      35.690  -7.633  16.188  1.00  0.00    -0.170 F
ENDBRANCH   6  24
TORSDOF 4
ENDMDL