MODEL 4
REMARK VINA RESULT: -7.307643294      4.816      6.170
REMARK  5 active torsions:
REMARK  status: ('A' for Active; 'I' for Inactive)
REMARK    1  A    between atoms: C2_2  and  C3_3
REMARK    2  A    between atoms: C3_3  and  N1_4
REMARK    3  A    between atoms: C10_15  and  C12_17
REMARK    4  A    between atoms: C12_17  and  C13_18
REMARK    5  A    between atoms: N4_22  and  O1_24
ROOT
HETATM    1  N1  UNL     1      28.986  -1.868  14.747  1.00  0.00    -0.276 NA
HETATM    2  C4  UNL     1      28.836  -2.512  13.478  1.00  0.00     0.155 C
HETATM    3  C5  UNL     1      29.760  -3.639  13.244  1.00  0.00     0.049 A
HETATM    4  C6  UNL     1      30.793  -3.872  14.092  1.00  0.00     0.037 A
HETATM    5  N2  UNL     1      31.446  -4.945  13.630  1.00  0.00    -0.335 N
ATOM      6  H2  UNL     1      32.272  -5.361  14.060  1.00  0.00     0.168 HD
HETATM    7  C7  UNL     1      30.851  -5.389  12.516  1.00  0.00     0.178 A
HETATM    8  S1  UNL     1      31.268  -6.667  11.579  1.00  0.00    -0.040 SA
HETATM    9  N3  UNL     1      29.793  -4.558  12.287  1.00  0.00    -0.329 N
HETATM   10  C8  UNL     1      28.892  -4.729  11.143  1.00  0.00     0.158 C
HETATM   11  C9  UNL     1      31.045  -3.022  15.277  1.00  0.00     0.084 C
HETATM   12  C10 UNL     1      30.336  -1.662  15.115  1.00  0.00     0.027 C
HETATM   13  C11 UNL     1      31.038  -1.015  13.919  1.00  0.00     0.033 C
ENDROOT
BRANCH   1  14
HETATM   14  C3  UNL     1      28.103  -2.404  15.697  1.00  0.00     0.087 C
BRANCH  14  15
HETATM   15  C2  UNL     1      26.702  -2.004  15.409  1.00  0.00     0.038 C
HETATM   16  C1  UNL     1      25.636  -3.039  15.160  1.00  0.00     0.071 C
HETATM   17  N4  UNL     1      26.296  -0.784  15.367  1.00  0.00    -0.273 N
ATOM     18  H4  UNL     1      26.998  -0.062  15.531  1.00  0.00     0.194 HD
BRANCH  17  19
HETATM   19  O1  UNL     1      25.039  -0.363  15.130  1.00  0.00    -0.290 OA
ATOM     20  H1  UNL     1      24.481  -0.623  14.407  1.00  0.00     0.244 HD
ENDBRANCH  17  19
ENDBRANCH  14  15
ENDBRANCH   1  14
BRANCH  12  21
HETATM   21  C12 UNL     1      30.597  -0.935  16.382  1.00  0.00     0.143 C
BRANCH  21  22
HETATM   22  C13 UNL     1      31.064   0.466  16.331  1.00  0.00     0.389 C
HETATM   23  F1  UNL     1      32.437   0.601  16.069  1.00  0.00    -0.171 F
HETATM   24  F2  UNL     1      30.328   1.349  15.611  1.00  0.00    -0.171 F
HETATM   25  F3  UNL     1      30.992   0.955  17.658  1.00  0.00    -0.171 F
ENDBRANCH  21  22
ENDBRANCH  12  21
TORSDOF 5
ENDMDL