MODEL 2
REMARK VINA RESULT: -7.838018312      1.399      1.454
REMARK  5 active torsions:
REMARK  status: ('A' for Active; 'I' for Inactive)
REMARK    1  A    between atoms: C1_4  and  S1_6
REMARK    2  A    between atoms: S1_6  and  C2_7
REMARK    3  A    between atoms: C2_7  and  C3_9
REMARK    4  A    between atoms: C3_9  and  C4_11
REMARK    5  A    between atoms: C4_11  and  C5_13
ROOT
HETATM    1  C4  UNL     1      30.191  -4.742  14.599  1.00  0.00     0.187 C
HETATM    2  O2  UNL     1      30.398  -3.469  14.610  1.00  0.00    -0.290 OA
ENDROOT
BRANCH   1   3
HETATM    3  C3  UNL     1      28.930  -5.216  15.173  1.00  0.00     0.238 C
HETATM    4 CL1  UNL     1      28.545  -6.833  14.435  1.00  0.00    -0.107 Cl
BRANCH   3   5
HETATM    5  C2  UNL     1      27.746  -4.382  14.891  1.00  0.00     0.219 C
HETATM    6  O1  UNL     1      27.259  -4.337  13.803  1.00  0.00    -0.283 OA
BRANCH   5   7
HETATM    7  S1  UNL     1      27.049  -3.426  16.222  1.00  0.00    -0.018 SA
BRANCH   7   8
HETATM    8  C1  UNL     1      28.246  -3.056  17.493  1.00  0.00     0.155 C
HETATM    9  N1  UNL     1      29.069  -2.098  17.284  1.00  0.00    -0.382 N
ATOM     10  H12 UNL     1      29.753  -1.886  18.010  1.00  0.00     0.157 HD
ATOM     11  H11 UNL     1      28.967  -1.561  16.423  1.00  0.00     0.157 HD
HETATM   12  N2  UNL     1      28.386  -3.797  18.682  1.00  0.00    -0.075 NA
ENDBRANCH   7   8
ENDBRANCH   5   7
ENDBRANCH   3   5
ENDBRANCH   1   3
BRANCH   1  13
HETATM   13  C5  UNL     1      31.248  -5.535  14.015  1.00  0.00     0.035 A
HETATM   14  C6  UNL     1      32.270  -5.999  14.803  1.00  0.00     0.042 A
HETATM   15  C7  UNL     1      33.282  -6.776  14.282  1.00  0.00     0.056 A
HETATM   16 CL2  UNL     1      34.576  -7.352  15.341  1.00  0.00    -0.083 Cl
HETATM   17  C8  UNL     1      33.310  -7.117  12.952  1.00  0.00     0.057 A
HETATM   18 CL3  UNL     1      34.613  -8.118  12.302  1.00  0.00    -0.082 Cl
HETATM   19  C9  UNL     1      32.289  -6.659  12.148  1.00  0.00     0.050 A
HETATM   20  C10 UNL     1      31.264  -5.870  12.687  1.00  0.00     0.049 A
HETATM   21 CL4  UNL     1      29.985  -5.327  11.621  1.00  0.00    -0.083 Cl
ENDBRANCH   1  13
TORSDOF 5
ENDMDL