MODEL 5
REMARK VINA RESULT: -7.048484116      2.286      3.382
REMARK  6 active torsions:
REMARK  status: ('A' for Active; 'I' for Inactive)
REMARK    1  A    between atoms: O1_2  and  C2_3
REMARK    2  A    between atoms: C4_5  and  O2_6
REMARK    3  A    between atoms: C5_8  and  C6_9
REMARK    4  A    between atoms: C7_10  and  C8_11
REMARK    5  A    between atoms: C8_11  and  C9_13
REMARK    6  A    between atoms: C11_19  and  O4_20
ROOT
HETATM    1  C2  UNL     1      31.866  -6.829  10.551  1.00  0.00     0.105 A
HETATM    2  C3  UNL     1      30.791  -6.008  10.791  1.00  0.00     0.077 A
HETATM    3  C4  UNL     1      30.522  -5.455  12.030  1.00  0.00     0.080 A
HETATM    4  C5  UNL     1      31.407  -5.758  13.090  1.00  0.00     0.022 A
HETATM    5  C10 UNL     1      32.470  -6.580  12.819  1.00  0.00     0.083 A
HETATM    6 CL4  UNL     1      33.635  -7.043  14.049  1.00  0.00    -0.080 Cl
HETATM    7  C11 UNL     1      32.736  -7.138  11.560  1.00  0.00     0.122 A
ENDROOT
BRANCH   4   8
HETATM    8  C6  UNL     1      31.098  -5.170  14.385  1.00  0.00     0.020 C
HETATM    9  C7  UNL     1      30.429  -5.665  15.375  1.00  0.00     0.056 C
BRANCH   9  10
HETATM   10  C8  UNL     1      30.228  -4.907  16.600  1.00  0.00     0.203 C
HETATM   11  O3  UNL     1      30.983  -5.192  17.603  1.00  0.00    -0.288 OA
BRANCH  10  12
HETATM   12  C9  UNL     1      29.236  -3.839  16.787  1.00  0.00     0.252 C
HETATM   13 CL1  UNL     1      27.898  -4.086  15.646  1.00  0.00    -0.075 Cl
HETATM   14 CL2  UNL     1      28.615  -3.746  18.433  1.00  0.00    -0.075 Cl
HETATM   15 CL3  UNL     1      30.017  -2.240  16.433  1.00  0.00    -0.075 Cl
ENDBRANCH  10  12
ENDBRANCH   9  10
ENDBRANCH   4   8
BRANCH   3  16
HETATM   16  O2  UNL     1      29.431  -4.654  12.163  1.00  0.00    -0.360 OA
ATOM     17  H2  UNL     1      29.391  -3.852  11.655  1.00  0.00     0.217 HD
ENDBRANCH   3  16
BRANCH   7  18
HETATM   18  O4  UNL     1      33.838  -7.971  11.343  1.00  0.00    -0.356 OA
ATOM     19  H4  UNL     1      33.900  -8.826  11.751  1.00  0.00     0.218 HD
ENDBRANCH   7  18
BRANCH   1  20
HETATM   20  O1  UNL     1      32.107  -7.372   9.281  1.00  0.00    -0.353 OA
HETATM   21  C1  UNL     1      31.556  -6.738   8.147  1.00  0.00     0.210 C
ENDBRANCH   1  20
TORSDOF 6
ENDMDL