MODEL 2
REMARK VINA RESULT: -7.969500951      1.228      1.418
REMARK  5 active torsions:
REMARK  status: ('A' for Active; 'I' for Inactive)
REMARK    1  A    between atoms: O1_2  and  C2_3
REMARK    2  A    between atoms: C2_3  and  C3_5
REMARK    3  A    between atoms: N1_9  and  C5_10
REMARK    4  A    between atoms: C5_10  and  C6_11
REMARK    5  A    between atoms: C12_21  and  O3_22
ROOT
HETATM    1  C3  UNL     1      28.546  -3.557  16.393  1.00  0.00     0.134 A
HETATM    2  S1  UNL     1      29.392  -2.153  15.964  1.00  0.00    -0.050 SA
HETATM    3  C4  UNL     1      29.983  -2.682  14.453  1.00  0.00     0.148 A
HETATM    4  S2  UNL     1      30.920  -1.725  13.495  1.00  0.00    -0.052 SA
HETATM    5  N1  UNL     1      29.521  -3.916  14.315  1.00  0.00    -0.307 N
HETATM    6  C12 UNL     1      28.767  -4.376  15.330  1.00  0.00     0.168 A
ENDROOT
BRANCH   5   7
HETATM    7  C5  UNL     1      29.687  -4.753  13.104  1.00  0.00     0.178 C
BRANCH   7   8
HETATM    8  C6  UNL     1      30.836  -5.610  13.057  1.00  0.00     0.043 A
HETATM    9  C7  UNL     1      31.261  -6.117  11.823  1.00  0.00     0.166 A
HETATM   10  F1  UNL     1      30.521  -5.977  10.676  1.00  0.00    -0.202 F
HETATM   11  C8  UNL     1      32.383  -6.873  11.683  1.00  0.00     0.158 A
HETATM   12  F2  UNL     1      32.794  -7.368  10.458  1.00  0.00    -0.203 F
HETATM   13  C9  UNL     1      33.174  -7.192  12.756  1.00  0.00     0.090 A
HETATM   14  C10 UNL     1      32.795  -6.722  13.983  1.00  0.00     0.158 A
HETATM   15  F3  UNL     1      33.575  -7.039  15.052  1.00  0.00    -0.203 F
HETATM   16  C11 UNL     1      31.635  -5.937  14.120  1.00  0.00     0.166 A
HETATM   17  F4  UNL     1      31.398  -5.566  15.389  1.00  0.00    -0.202 F
ENDBRANCH   7   8
ENDBRANCH   5   7
BRANCH   6  18
HETATM   18  O3  UNL     1      28.169  -5.678  15.364  1.00  0.00    -0.345 OA
ATOM     19  H3  UNL     1      28.712  -6.416  15.113  1.00  0.00     0.219 HD
ENDBRANCH   6  18
BRANCH   1  20
HETATM   20  C2  UNL     1      27.746  -3.818  17.625  1.00  0.00     0.304 C
HETATM   21  O2  UNL     1      28.295  -3.692  18.739  1.00  0.00    -0.259 OA
BRANCH  20  22
HETATM   22  O1  UNL     1      26.418  -4.192  17.489  1.00  0.00    -0.322 OA
HETATM   23  C1  UNL     1      25.539  -3.411  16.714  1.00  0.00     0.213 C
ENDBRANCH  20  22
ENDBRANCH   1  20
TORSDOF 5
ENDMDL