MODEL 4
REMARK VINA RESULT: -6.753059610      4.777      6.044
REMARK  4 active torsions:
REMARK  status: ('A' for Active; 'I' for Inactive)
REMARK    1  A    between atoms: C2_7  and  C3_8
REMARK    2  A    between atoms: N3_12  and  C6_13
REMARK    3  A    between atoms: C6_13  and  C7_14
REMARK    4  A    between atoms: C7_14  and  C8_16
ROOT
HETATM    1  C3  UNL     1      29.937  -3.050  14.852  1.00  0.00     0.104 A
HETATM    2  C4  UNL     1      28.715  -3.682  14.879  1.00  0.00     0.079 A
HETATM    3  C5  UNL     1      28.833  -4.945  14.332  1.00  0.00     0.122 A
HETATM    4 CL1  UNL     1      27.535  -6.115  14.158  1.00  0.00    -0.063 Cl
HETATM    5  N3  UNL     1      30.126  -5.058  13.982  1.00  0.00    -0.275 N
HETATM    6  N4  UNL     1      30.781  -3.942  14.286  1.00  0.00    -0.293 N
ATOM      7  H4  UNL     1      31.774  -3.782  14.117  1.00  0.00     0.187 HD
ENDROOT
BRANCH   1   8
HETATM    8  C2  UNL     1      30.287  -1.717  15.317  1.00  0.00     0.193 A
HETATM    9  N2  UNL     1      30.186  -1.299  16.588  1.00  0.00    -0.275 N
HETATM   10  N1  UNL     1      30.580  -0.046  16.684  1.00  0.00    -0.268 N
ATOM     11  H2  UNL     1      29.854  -1.869  17.366  1.00  0.00     0.189 HD
HETATM   12  C1  UNL     1      30.940   0.348  15.453  1.00  0.00     0.235 A
ATOM     13  H1  UNL     1      30.606   0.518  17.534  1.00  0.00     0.190 HD
HETATM   14  S1  UNL     1      31.511   1.841  15.021  1.00  0.00    -0.031 SA
HETATM   15  O1  UNL     1      30.749  -0.681  14.668  1.00  0.00    -0.262 OA
ENDBRANCH   1   8
BRANCH   5  16
HETATM   16  C6  UNL     1      30.681  -6.268  13.354  1.00  0.00     0.204 C
BRANCH  16  17
HETATM   17  C7  UNL     1      30.836  -6.093  11.898  1.00  0.00     0.065 C
HETATM   18 CL2  UNL     1      29.719  -5.039  11.060  1.00  0.00    -0.084 Cl
BRANCH  17  19
HETATM   19  C8  UNL     1      31.802  -6.722  11.249  1.00  0.00     0.122 C
HETATM   20 CL3  UNL     1      33.219  -7.271  12.108  1.00  0.00    -0.069 Cl
HETATM   21 CL4  UNL     1      31.697  -7.023   9.530  1.00  0.00    -0.069 Cl
ENDBRANCH  17  19
ENDBRANCH  16  17
ENDBRANCH   5  16
TORSDOF 4
ENDMDL