MODEL 4
REMARK VINA RESULT: -9.022579609      2.017      2.835
REMARK  4 active torsions:
REMARK  status: ('A' for Active; 'I' for Inactive)
REMARK    1  A    between atoms: C4_4  and  C5_5
REMARK    2  A    between atoms: C5_5  and  O2_7
REMARK    3  A    between atoms: O2_7  and  C6_8
REMARK    4  A    between atoms: C6_8  and  C7_9
ROOT
HETATM    1  C5  UNL     1      30.259  -5.191  14.992  1.00  0.00     0.295 C
HETATM    2  O1  UNL     1      29.471  -5.845  15.706  1.00  0.00    -0.259 OA
ENDROOT
BRANCH   1   3
HETATM    3  C4  UNL     1      31.435  -5.861  14.396  1.00  0.00     0.063 A
HETATM    4  C3  UNL     1      32.535  -6.179  15.161  1.00  0.00     0.028 A
HETATM    5  C2  UNL     1      33.645  -6.806  14.650  1.00  0.00    -0.035 A
HETATM    6  C1  UNL     1      34.754  -7.094  15.568  1.00  0.00     0.050 C
HETATM    7  C12 UNL     1      33.678  -7.144  13.300  1.00  0.00     0.075 A
HETATM    8  C11 UNL     1      32.578  -6.828  12.532  1.00  0.00     0.081 A
HETATM    9  N2  UNL     1      34.811  -7.801  12.756  1.00  0.00    -0.100 NA
HETATM   10  C10 UNL     1      31.452  -6.188  13.064  1.00  0.00     0.073 A
HETATM   11 CL3  UNL     1      32.626  -7.259  10.823  1.00  0.00    -0.080 Cl
HETATM   12 CL2  UNL     1      30.089  -5.815  12.020  1.00  0.00    -0.081 Cl
ENDBRANCH   1   3
BRANCH   1  13
HETATM   13  O2  UNL     1      30.002  -3.868  14.787  1.00  0.00    -0.309 OA
BRANCH  13  14
HETATM   14  C6  UNL     1      29.430  -2.923  15.616  1.00  0.00     0.263 C
BRANCH  14  15
HETATM   15  C7  UNL     1      30.119  -1.640  15.780  1.00  0.00     0.152 A
HETATM   16  N1  UNL     1      29.747  -0.438  15.308  1.00  0.00    -0.325 N
HETATM   17  C8  UNL     1      30.659   0.475  15.683  1.00  0.00     0.169 A
ATOM     18  H1  UNL     1      28.909  -0.250  14.757  1.00  0.00     0.169 HD
HETATM   19 CL1  UNL     1      30.642   2.185  15.328  1.00  0.00    -0.059 Cl
HETATM   20  C9  UNL     1      31.600  -0.225  16.401  1.00  0.00     0.270 A
HETATM   21  F1  UNL     1      32.718   0.283  16.981  1.00  0.00    -0.174 F
HETATM   22  O3  UNL     1      31.273  -1.479  16.454  1.00  0.00    -0.266 OA
ENDBRANCH  14  15
ENDBRANCH  13  14
ENDBRANCH   1  13
TORSDOF 4
ENDMDL