MODEL 5
REMARK VINA RESULT: -7.886973206      1.723      2.396
REMARK  4 active torsions:
REMARK  status: ('A' for Active; 'I' for Inactive)
REMARK    1  A    between atoms: N1_2  and  C1_4
REMARK    2  A    between atoms: C2_9  and  S1_10
REMARK    3  A    between atoms: S1_10  and  C3_11
REMARK    4  A    between atoms: C3_11  and  C4_12
ROOT
HETATM    1  S1  UNL     1      28.255  -3.374  14.593  1.00  0.00    -0.099 SA
ENDROOT
BRANCH   1   2
HETATM    2  C2  UNL     1      29.338  -2.104  15.248  1.00  0.00     0.130 A
HETATM    3  N3  UNL     1      29.442  -1.687  16.521  1.00  0.00    -0.286 N
HETATM    4  N2  UNL     1      30.297  -0.823  16.835  1.00  0.00    -0.278 N
ATOM      5  H3  UNL     1      28.824  -2.075  17.235  1.00  0.00     0.188 HD
HETATM    6  C1  UNL     1      31.102  -0.310  15.887  1.00  0.00     0.176 A
ATOM      7  H2  UNL     1      30.381  -0.511  17.803  1.00  0.00     0.189 HD
HETATM    8  S2  UNL     1      30.570  -1.146  14.501  1.00  0.00    -0.025 SA
BRANCH   6   9
HETATM    9  N1  UNL     1      32.055   0.602  15.969  1.00  0.00    -0.277 N
HETATM   10 CL1  UNL     1      32.339   1.552  14.571  1.00  0.00     0.013 Cl
ATOM     11  H1  UNL     1      32.597   0.733  16.823  1.00  0.00     0.182 HD
ENDBRANCH   6   9
ENDBRANCH   1   2
BRANCH   1  12
HETATM   12  C3  UNL     1      28.902  -4.966  15.210  1.00  0.00     0.121 C
BRANCH  12  13
HETATM   13  C4  UNL     1      30.222  -5.344  14.736  1.00  0.00    -0.025 A
HETATM   14  C5  UNL     1      30.417  -5.711  13.419  1.00  0.00     0.035 A
HETATM   15  C6  UNL     1      31.581  -6.296  12.948  1.00  0.00     0.056 A
HETATM   16 CL2  UNL     1      31.674  -6.769  11.274  1.00  0.00    -0.083 Cl
HETATM   17  C7  UNL     1      32.584  -6.522  13.821  1.00  0.00     0.057 A
HETATM   18 CL3  UNL     1      34.070  -7.275  13.214  1.00  0.00    -0.082 Cl
HETATM   19  C8  UNL     1      32.451  -6.177  15.134  1.00  0.00     0.050 A
HETATM   20  C9  UNL     1      31.277  -5.589  15.611  1.00  0.00     0.042 A
HETATM   21 CL4  UNL     1      31.102  -5.121  17.272  1.00  0.00    -0.084 Cl
ENDBRANCH  12  13
ENDBRANCH   1  12
TORSDOF 4
ENDMDL