MODEL 5
REMARK VINA RESULT: -8.073051556      3.489      4.448
REMARK  3 active torsions:
REMARK  status: ('A' for Active; 'I' for Inactive)
REMARK    1  A    between atoms: C6_10  and  O3_11
REMARK    2  A    between atoms: O3_11  and  C7_12
REMARK    3  A    between atoms: C7_12  and  C8_13
ROOT
HETATM    1  O1  UNL     1      31.119  -7.088   7.972  1.00  0.00    -0.251 OA
HETATM    2  C1  UNL     1      31.087  -6.733   9.204  1.00  0.00     0.332 A
HETATM    3  O2  UNL     1      31.852  -7.176  10.135  1.00  0.00    -0.268 OA
HETATM    4  C2  UNL     1      31.744  -6.764  11.323  1.00  0.00     0.101 A
HETATM    5  C3  UNL     1      32.523  -7.175  12.429  1.00  0.00     0.064 A
HETATM    6  C4  UNL     1      32.319  -6.660  13.683  1.00  0.00     0.061 A
HETATM    7 CL1  UNL     1      33.320  -7.210  15.017  1.00  0.00    -0.082 Cl
HETATM    8  C5  UNL     1      31.342  -5.716  13.919  1.00  0.00     0.090 A
HETATM    9 CL2  UNL     1      31.047  -5.029  15.503  1.00  0.00    -0.079 Cl
HETATM   10  C6  UNL     1      30.559  -5.286  12.868  1.00  0.00     0.112 A
HETATM   11  C12 UNL     1      30.784  -5.827  11.595  1.00  0.00     0.079 A
HETATM   12  S1  UNL     1      30.098  -5.619  10.037  1.00  0.00    -0.016 SA
ENDROOT
BRANCH  10  13
HETATM   13  O3  UNL     1      29.562  -4.359  12.974  1.00  0.00    -0.343 OA
BRANCH  13  14
HETATM   14  C7  UNL     1      29.596  -3.067  12.422  1.00  0.00     0.219 C
BRANCH  14  15
HETATM   15  C8  UNL     1      30.099  -2.089  13.415  1.00  0.00     0.026 A
HETATM   16  C9  UNL     1      31.139  -1.213  13.212  1.00  0.00     0.075 A
HETATM   17  C10 UNL     1      31.330  -0.447  14.367  1.00  0.00     0.191 A
HETATM   18  F1  UNL     1      32.275   0.508  14.495  1.00  0.00    -0.186 F
HETATM   19  N1  UNL     1      30.407  -0.864  15.257  1.00  0.00    -0.309 N
HETATM   20  C11 UNL     1      29.664  -1.847  14.699  1.00  0.00     0.199 A
ATOM     21  H1  UNL     1      30.289  -0.498  16.201  1.00  0.00     0.170 HD
HETATM   22  F2  UNL     1      28.660  -2.467  15.340  1.00  0.00    -0.185 F
ENDBRANCH  14  15
ENDBRANCH  13  14
ENDBRANCH  10  13
TORSDOF 3
ENDMDL