MODEL 5
REMARK VINA RESULT: -6.611679728      2.917      3.898
REMARK  6 active torsions:
REMARK  status: ('A' for Active; 'I' for Inactive)
REMARK    1  A    between atoms: C2_2  and  N1_5
REMARK    2  A    between atoms: C4_6  and  O1_7
REMARK    3  A    between atoms: N2_10  and  N3_11
REMARK    4  A    between atoms: C6_13  and  C7_15
REMARK    5  A    between atoms: C7_15  and  C8_16
REMARK    6  A    between atoms: C8_16  and  C9_17
ROOT
HETATM    1  N1  UNL     1      27.154  -4.262  14.999  1.00  0.00    -0.279 N
HETATM    2  C4  UNL     1      26.921  -5.351  14.246  1.00  0.00     0.164 A
HETATM    3  C5  UNL     1      28.066  -6.095  14.270  1.00  0.00     0.175 A
HETATM    4  N2  UNL     1      29.011  -5.472  15.037  1.00  0.00    -0.236 N
HETATM    5  C10 UNL     1      28.426  -4.353  15.471  1.00  0.00     0.203 A
HETATM    6  S1  UNL     1      29.085  -3.215  16.447  1.00  0.00    -0.038 SA
ENDROOT
BRANCH   4   7
HETATM    7  N3  UNL     1      30.289  -5.930  15.302  1.00  0.00    -0.285 N
HETATM    8  C6  UNL     1      31.281  -6.018  14.502  1.00  0.00     0.099 C
HETATM    9 CL2  UNL     1      32.813  -6.662  15.166  1.00  0.00    -0.068 Cl
ATOM     10  H3  UNL     1      30.462  -6.235  16.259  1.00  0.00     0.188 HD
BRANCH   8  11
HETATM   11  C7  UNL     1      31.295  -5.663  13.085  1.00  0.00     0.101 C
BRANCH  11  12
HETATM   12  C8  UNL     1      31.455  -6.792  12.167  1.00  0.00     0.017 C
BRANCH  12  13
HETATM   13  C9  UNL     1      32.430  -7.156  11.410  1.00  0.00     0.100 C
HETATM   14 CL3  UNL     1      32.187  -7.192   9.646  1.00  0.00    -0.071 Cl
HETATM   15 CL4  UNL     1      33.996  -7.588  12.003  1.00  0.00    -0.071 Cl
ENDBRANCH  12  13
ENDBRANCH  11  12
ENDBRANCH   8  11
ENDBRANCH   4   7
BRANCH   2  16
HETATM   16  O1  UNL     1      25.761  -5.695  13.559  1.00  0.00    -0.345 OA
ATOM     17  H1  UNL     1      25.587  -6.478  13.051  1.00  0.00     0.219 HD
ENDBRANCH   2  16
BRANCH   1  18
HETATM   18  C2  UNL     1      26.182  -3.230  15.221  1.00  0.00     0.111 C
HETATM   19  C1  UNL     1      26.380  -2.451  16.492  1.00  0.00     0.056 C
HETATM   20  C3  UNL     1      26.245  -2.286  14.038  1.00  0.00     0.056 C
HETATM   21 CL1  UNL     1      24.568  -3.970  15.264  1.00  0.00    -0.096 Cl
ENDBRANCH   1  18
TORSDOF 6
ENDMDL