MODEL 4
REMARK VINA RESULT: -7.721601688      1.947      2.968
REMARK  9 active torsions:
REMARK  status: ('A' for Active; 'I' for Inactive)
REMARK    1  A    between atoms: C2_2  and  O1_3
REMARK    2  A    between atoms: O1_3  and  C3_4
REMARK    3  A    between atoms: C3_4  and  C4_6
REMARK    4  A    between atoms: C5_7  and  C6_8
REMARK    5  A    between atoms: C6_8  and  C7_11
REMARK    6  A    between atoms: C8_16  and  C9_17
REMARK    7  A    between atoms: C9_17  and  N1_18
REMARK    8  A    between atoms: N1_18  and  C10_20
REMARK    9  A    between atoms: C14_24  and  O3_25
ROOT
HETATM    1  C4  UNL     1      26.529  -3.464  15.807  1.00  0.00     0.093 A
HETATM    2  C5  UNL     1      26.146  -2.604  14.842  1.00  0.00     0.083 A
HETATM    3  S1  UNL     1      27.573  -1.590  14.665  1.00  0.00    -0.083 SA
HETATM    4  C8  UNL     1      28.570  -2.325  15.820  1.00  0.00     0.054 A
HETATM    5  C14 UNL     1      27.791  -3.322  16.313  1.00  0.00     0.101 A
ENDROOT
BRANCH   2   6
HETATM    6  C6  UNL     1      25.039  -2.439  13.878  1.00  0.00     0.373 C
HETATM    7  F1  UNL     1      25.460  -1.575  12.848  1.00  0.00    -0.190 F
HETATM    8  F2  UNL     1      24.839  -3.645  13.163  1.00  0.00    -0.190 F
BRANCH   6   9
HETATM    9  C7  UNL     1      23.722  -2.010  14.375  1.00  0.00     0.459 C
HETATM   10  F3  UNL     1      23.110  -2.611  15.399  1.00  0.00    -0.165 F
HETATM   11  F4  UNL     1      23.885  -0.644  14.771  1.00  0.00    -0.165 F
HETATM   12  F5  UNL     1      22.800  -1.898  13.298  1.00  0.00    -0.165 F
ENDBRANCH   6   9
ENDBRANCH   2   6
BRANCH   1  13
HETATM   13  C3  UNL     1      25.619  -4.455  16.392  1.00  0.00     0.297 C
HETATM   14  O2  UNL     1      25.512  -4.538  17.644  1.00  0.00    -0.259 OA
BRANCH  13  15
HETATM   15  O1  UNL     1      24.861  -5.297  15.665  1.00  0.00    -0.318 OA
BRANCH  15  16
HETATM   16  C2  UNL     1      25.295  -6.252  14.746  1.00  0.00     0.174 C
HETATM   17  C1  UNL     1      24.262  -7.325  14.484  1.00  0.00     0.034 C
ENDBRANCH  15  16
ENDBRANCH  13  15
ENDBRANCH   1  13
BRANCH   5  18
HETATM   18  O3  UNL     1      28.333  -4.158  17.325  1.00  0.00    -0.358 OA
ATOM     19  H3  UNL     1      27.807  -4.597  17.984  1.00  0.00     0.217 HD
ENDBRANCH   5  18
BRANCH   4  20
HETATM   20  C9  UNL     1      29.953  -1.963  16.194  1.00  0.00     0.105 C
BRANCH  20  21
HETATM   21  N1  UNL     1      30.188  -0.748  16.474  1.00  0.00    -0.390 N
ATOM     22  H1  UNL     1      29.686  -0.351  17.269  1.00  0.00     0.159 HD
BRANCH  21  23
HETATM   23  C10 UNL     1      31.086   0.113  15.786  1.00  0.00     0.018 C
HETATM   24  C11 UNL     1      32.361   0.244  16.615  1.00  0.00     0.037 C
HETATM   25  C12 UNL     1      30.528   1.510  15.625  1.00  0.00     0.037 C
HETATM   26  C13 UNL     1      31.467  -0.427  14.433  1.00  0.00     0.037 C
ENDBRANCH  21  23
ENDBRANCH  20  21
ENDBRANCH   4  20
TORSDOF 9
ENDMDL