MODEL 2
REMARK VINA RESULT: -8.044828985      1.376      1.807
REMARK  4 active torsions:
REMARK  status: ('A' for Active; 'I' for Inactive)
REMARK    1  A    between atoms: O1_1  and  C1_3
REMARK    2  A    between atoms: N1_8  and  C4_9
REMARK    3  A    between atoms: C4_9  and  N2_10
REMARK    4  A    between atoms: C8_14  and  C9_15
ROOT
HETATM    1  N2  UNL     1      30.692  -4.275  15.180  1.00  0.00     0.115 N
HETATM    2  C5  UNL     1      30.942  -4.392  16.629  1.00  0.00     0.275 C
HETATM    3  C6  UNL     1      29.643  -4.069  17.284  1.00  0.00     0.033 C
HETATM    4  C7  UNL     1      28.842  -3.372  16.215  1.00  0.00     0.042 C
HETATM    5  C8  UNL     1      29.777  -3.169  15.054  1.00  0.00     0.261 C
ENDROOT
BRANCH   1   6
HETATM    6  C4  UNL     1      30.279  -5.553  14.745  1.00  0.00     0.406 C
BRANCH   6   7
HETATM    7  N1  UNL     1      30.852  -5.987  13.446  1.00  0.00    -0.285 N
HETATM    8  C1  UNL     1      30.292  -5.774  12.288  1.00  0.00     0.151 A
HETATM    9  C2  UNL     1      30.957  -6.197  11.161  1.00  0.00     0.108 A
HETATM   10  S1  UNL     1      32.367  -6.888  11.821  1.00  0.00    -0.068 SA
HETATM   11  C3  UNL     1      32.043  -6.608  13.462  1.00  0.00     0.148 A
HETATM   12  S2  UNL     1      32.986  -7.017  14.750  1.00  0.00    -0.052 SA
BRANCH   8  13
HETATM   13  O1  UNL     1      29.027  -5.132  12.130  1.00  0.00    -0.346 OA
ATOM     14  H1  UNL     1      28.240  -5.633  12.308  1.00  0.00     0.219 HD
ENDBRANCH   8  13
ENDBRANCH   6   7
ENDBRANCH   1   6
BRANCH   5  15
HETATM   15  C9  UNL     1      30.513  -1.870  15.115  1.00  0.00     0.017 A
HETATM   16  C10 UNL     1      30.689  -1.237  16.309  1.00  0.00     0.058 A
HETATM   17  C11 UNL     1      31.395  -0.028  16.302  1.00  0.00     0.155 A
HETATM   18  F1  UNL     1      31.588   0.628  17.474  1.00  0.00    -0.203 F
HETATM   19  C12 UNL     1      31.902   0.521  15.146  1.00  0.00     0.157 A
HETATM   20  F2  UNL     1      32.592   1.705  15.155  1.00  0.00    -0.203 F
HETATM   21  C13 UNL     1      31.701  -0.151  13.962  1.00  0.00     0.088 A
HETATM   22  C14 UNL     1      31.005  -1.354  13.924  1.00  0.00     0.128 A
HETATM   23  F3  UNL     1      30.831  -1.971  12.740  1.00  0.00    -0.205 F
ENDBRANCH   5  15
TORSDOF 4
ENDMDL