MODEL 2
REMARK VINA RESULT: -7.411352997      0.105      1.117
REMARK  5 active torsions:
REMARK  status: ('A' for Active; 'I' for Inactive)
REMARK    1  A    between atoms: O1_2  and  N1_3
REMARK    2  A    between atoms: C2_5  and  N2_6
REMARK    3  A    between atoms: C2_5  and  C10_19
REMARK    4  A    between atoms: N2_6  and  C3_8
REMARK    5  A    between atoms: C5_10  and  N3_11
ROOT
HETATM    1  C3  UNL     1      30.758  -5.355  12.752  1.00  0.00     0.042 A
HETATM    2  C4  UNL     1      31.659  -5.672  13.746  1.00  0.00     0.068 A
HETATM    3  C5  UNL     1      32.685  -6.590  13.500  1.00  0.00     0.126 A
HETATM    4  C6  UNL     1      32.800  -7.182  12.265  1.00  0.00     0.067 A
HETATM    5 CL1  UNL     1      34.078  -8.317  11.985  1.00  0.00    -0.082 Cl
HETATM    6  C7  UNL     1      31.911  -6.879  11.261  1.00  0.00     0.035 A
HETATM    7  C8  UNL     1      30.894  -5.961  11.523  1.00  0.00    -0.034 A
HETATM    8  C9  UNL     1      29.917  -5.609  10.463  1.00  0.00     0.050 C
ENDROOT
BRANCH   1   9
HETATM    9  N2  UNL     1      29.717  -4.438  12.966  1.00  0.00    -0.340 N
ATOM     10  H2  UNL     1      29.247  -4.046  12.150  1.00  0.00     0.167 HD
BRANCH   9  11
HETATM   11  C2  UNL     1      29.277  -4.022  14.256  1.00  0.00     0.157 C
HETATM   12  N1  UNL     1      28.498  -4.793  14.892  1.00  0.00    -0.251 N
ATOM     13  H1  UNL     1      28.235  -5.667  14.436  1.00  0.00     0.196 HD
BRANCH  12  14
HETATM   14  O1  UNL     1      27.980  -4.561  16.130  1.00  0.00    -0.284 OA
HETATM   15  C1  UNL     1      26.617  -4.197  16.226  1.00  0.00     0.237 C
ENDBRANCH  12  14
BRANCH  11  16
HETATM   16  C10 UNL     1      29.755  -2.717  14.777  1.00  0.00     0.248 C
HETATM   17 CL2  UNL     1      30.995  -2.020  13.692  1.00  0.00    -0.075 Cl
HETATM   18 CL3  UNL     1      30.574  -2.957  16.361  1.00  0.00    -0.075 Cl
HETATM   19 CL4  UNL     1      28.476  -1.513  14.960  1.00  0.00    -0.075 Cl
ENDBRANCH  11  16
ENDBRANCH   9  11
ENDBRANCH   1   9
BRANCH   3  20
HETATM   20  N3  UNL     1      33.620  -6.931  14.509  1.00  0.00    -0.114 N
HETATM   21  O2  UNL     1      33.468  -7.861  15.322  1.00  0.00    -0.532 OA
HETATM   22  O3  UNL     1      34.767  -6.183  14.593  1.00  0.00    -0.532 OA
ENDBRANCH   3  20
TORSDOF 5
ENDMDL