MODEL 5
REMARK VINA RESULT: -5.528131509      5.029      7.148
REMARK  1 active torsions:
REMARK  status: ('A' for Active; 'I' for Inactive)
REMARK    1  A    between atoms: C2_7  and  C3_8
ROOT
HETATM    1  C3  UNL     1      33.191  -6.062  14.229  1.00  0.00     0.181 C
HETATM    2  C4  UNL     1      32.407  -5.661  12.996  1.00  0.00     0.066 C
HETATM    3  C5  UNL     1      32.294  -6.845  12.053  1.00  0.00     0.235 C
HETATM    4  N3  UNL     1      33.541  -7.168  11.426  1.00  0.00    -0.073 N
ATOM      5  H31 UNL     1      33.765  -6.490  10.698  1.00  0.00     0.277 HD
ATOM      6  H32 UNL     1      33.450  -8.008  10.855  1.00  0.00     0.277 HD
HETATM    7  C6  UNL     1      34.635  -7.301  12.352  1.00  0.00     0.258 C
HETATM    8  C7  UNL     1      34.264  -8.016  13.613  1.00  0.00     0.196 C
HETATM    9  O1  UNL     1      33.218  -7.451  14.296  1.00  0.00    -0.378 OA
ENDROOT
BRANCH   1  10
HETATM   10  C2  UNL     1      32.445  -5.501  15.408  1.00  0.00     0.099 A
HETATM   11  N2  UNL     1      32.905  -5.177  16.613  1.00  0.00    -0.293 N
HETATM   12  N1  UNL     1      32.117  -4.715  17.484  1.00  0.00    -0.269 N
ATOM     13  H2  UNL     1      33.893  -5.303  16.833  1.00  0.00     0.187 HD
HETATM   14  C1  UNL     1      30.830  -4.554  17.194  1.00  0.00     0.247 A
ATOM     15  H1  UNL     1      32.467  -4.467  18.409  1.00  0.00     0.190 HD
HETATM   16  F1  UNL     1      29.837  -4.068  18.015  1.00  0.00    -0.176 F
HETATM   17  S1  UNL     1      30.786  -5.106  15.576  1.00  0.00    -0.023 SA
ENDBRANCH   1  10
TORSDOF 1
ENDMDL