MODEL 2
REMARK VINA RESULT: -4.285748267      1.626      1.626
REMARK  1 active torsions:
REMARK  status: ('A' for Active; 'I' for Inactive)
REMARK    1  A    between atoms: C1_2  and  C2_4
ROOT
HETATM    1  C2  UNL     1      25.381  -2.732  15.341  1.00  0.00     0.133 A
HETATM    2  N2  UNL     1      24.258  -2.044  15.273  1.00  0.00    -0.315 N
ATOM      3  H2  UNL     1      23.843  -1.663  16.124  1.00  0.00     0.175 HD
HETATM    4  S1  UNL     1      23.519  -1.796  13.816  1.00  0.00     0.026 SA
HETATM    5  S2  UNL     1      24.959  -2.840  12.794  1.00  0.00    -0.021 SA
HETATM    6  C3  UNL     1      25.904  -3.227  14.174  1.00  0.00     0.112 A
HETATM    7  S3  UNL     1      27.320  -4.116  14.109  1.00  0.00    -0.069 SA
ENDROOT
BRANCH   1   8
HETATM    8  C1  UNL     1      26.031  -2.943  16.670  1.00  0.00     0.284 C
HETATM    9  N1  UNL     1      25.768  -4.091  17.422  1.00  0.00    -0.056 NA
HETATM   10  O1  UNL     1      26.822  -2.091  17.127  1.00  0.00    -0.269 OA
ENDBRANCH   1   8
TORSDOF 1
ENDMDL