MODEL 5
REMARK VINA RESULT: -5.125676014      1.668      1.750
REMARK  3 active torsions:
REMARK  status: ('A' for Active; 'I' for Inactive)
REMARK    1  A    between atoms: C2_2  and  O1_5
REMARK    2  A    between atoms: O1_5  and  N1_6
REMARK    3  A    between atoms: N2_13  and  O3_14
ROOT
HETATM    1  N1  UNL     1      26.507  -2.831  14.497  1.00  0.00    -0.245 N
ATOM      2  H1  UNL     1      26.731  -2.984  13.515  1.00  0.00     0.196 HD
HETATM    3  C4  UNL     1      27.503  -2.732  15.278  1.00  0.00     0.143 C
HETATM    4  C5  UNL     1      28.890  -2.834  14.765  1.00  0.00     0.165 C
HETATM    5  S1  UNL     1      29.699  -3.644  16.202  1.00  0.00    -0.059 SA
HETATM    6  C6  UNL     1      28.416  -3.237  17.405  1.00  0.00     0.311 C
HETATM    7  O2  UNL     1      28.461  -3.565  18.621  1.00  0.00    -0.258 OA
HETATM    8  N2  UNL     1      27.436  -2.517  16.673  1.00  0.00    -0.167 N
ENDROOT
BRANCH   1   9
HETATM    9  O1  UNL     1      25.202  -2.764  14.789  1.00  0.00    -0.239 OA
BRANCH   9  10
HETATM   10  C2  UNL     1      24.382  -3.682  15.344  1.00  0.00     0.099 C
HETATM   11  C1  UNL     1      23.519  -3.282  16.477  1.00  0.00     0.081 C
HETATM   12  C3  UNL     1      24.323  -4.920  14.915  1.00  0.00     0.222 C
HETATM   13  F1  UNL     1      25.122  -5.295  13.864  1.00  0.00    -0.217 F
ENDBRANCH   9  10
ENDBRANCH   1   9
BRANCH   8  14
HETATM   14  O3  UNL     1      26.542  -1.711  17.346  1.00  0.00    -0.278 OA
ATOM     15  H3  UNL     1      25.598  -1.814  17.386  1.00  0.00     0.245 HD
ENDBRANCH   8  14
TORSDOF 3
ENDMDL