MODEL 1
REMARK VINA RESULT: -6.539906704      0.000      0.000
REMARK  2 active torsions:
REMARK  status: ('A' for Active; 'I' for Inactive)
REMARK    1  A    between atoms: N1_7  and  N2_9
REMARK    2  A    between atoms: N2_9  and  C6_11
ROOT
HETATM    1  N2  UNL     1      33.235  -5.738  14.510  1.00  0.00    -0.277 N
ATOM      2  H2  UNL     1      34.218  -6.003  14.579  1.00  0.00     0.189 HD
ENDROOT
BRANCH   1   3
HETATM    3  N1  UNL     1      32.534  -5.784  13.309  1.00  0.00    -0.304 N
HETATM    4  C5  UNL     1      32.699  -6.624  12.384  1.00  0.00     0.037 C
HETATM    5  C1  UNL     1      31.949  -6.658  11.123  1.00  0.00     0.217 C
HETATM    6  C4  UNL     1      33.645  -7.739  12.336  1.00  0.00     0.057 C
HETATM    7  F1  UNL     1      31.091  -7.735  11.034  1.00  0.00    -0.243 F
HETATM    8  C2  UNL     1      33.074  -6.905  10.131  1.00  0.00     0.044 C
HETATM    9  C3  UNL     1      34.049  -7.775  10.874  1.00  0.00     0.009 C
ATOM     10  H1  UNL     1      31.820  -5.071  13.164  1.00  0.00     0.186 HD
ENDBRANCH   1   3
BRANCH   1  11
HETATM   11  C6  UNL     1      32.540  -5.328  15.551  1.00  0.00     0.197 A
HETATM   12  N3  UNL     1      32.976  -5.108  16.793  1.00  0.00    -0.262 N
HETATM   13  N4  UNL     1      32.139  -4.712  17.661  1.00  0.00    -0.234 N
ATOM     14  H3  UNL     1      33.955  -5.254  17.038  1.00  0.00     0.190 HD
HETATM   15  N5  UNL     1      30.892  -4.529  17.336  1.00  0.00    -0.252 N
ATOM     16  H4  UNL     1      32.445  -4.536  18.618  1.00  0.00     0.209 HD
HETATM   17  S1  UNL     1      30.879  -4.938  15.699  1.00  0.00     0.043 SA
ATOM     18  H5  UNL     1      30.118  -4.218  17.922  1.00  0.00     0.197 HD
ENDBRANCH   1  11
TORSDOF 2
ENDMDL