MODEL 5
REMARK VINA RESULT: -5.144042701      3.280      3.847
REMARK  2 active torsions:
REMARK  status: ('A' for Active; 'I' for Inactive)
REMARK    1  A    between atoms: N1_2  and  C1_4
REMARK    2  A    between atoms: N3_9  and  O3_10
ROOT
HETATM    1  C1  UNL     1      31.593  -5.816  11.847  1.00  0.00     0.216 A
HETATM    2  N2  UNL     1      32.660  -6.476  12.338  1.00  0.00    -0.310 N
ATOM      3  H2  UNL     1      32.862  -6.398  13.335  1.00  0.00     0.170 HD
HETATM    4  C2  UNL     1      33.474  -7.234  11.578  1.00  0.00     0.204 A
HETATM    5  S1  UNL     1      34.767  -8.024  12.212  1.00  0.00    -0.038 SA
HETATM    6  N3  UNL     1      33.238  -7.359  10.258  1.00  0.00    -0.206 N
HETATM    7  C3  UNL     1      32.180  -6.711   9.745  1.00  0.00     0.172 A
HETATM    8  C4  UNL     1      31.341  -5.934  10.508  1.00  0.00     0.184 A
HETATM    9  F1  UNL     1      30.264  -5.275   9.981  1.00  0.00    -0.200 F
ENDROOT
BRANCH   1  10
HETATM   10  N1  UNL     1      30.766  -5.029  12.696  1.00  0.00    -0.095 N
HETATM   11  O1  UNL     1      31.251  -4.020  13.246  1.00  0.00    -0.530 OA
HETATM   12  O2  UNL     1      29.456  -5.411  12.877  1.00  0.00    -0.530 OA
ENDBRANCH   1  10
BRANCH   6  13
HETATM   13  O3  UNL     1      34.082  -8.138   9.502  1.00  0.00    -0.281 OA
ATOM     14  H3  UNL     1      33.709  -8.781   8.911  1.00  0.00     0.245 HD
ENDBRANCH   6  13
TORSDOF 2
ENDMDL