MODEL 3
REMARK VINA RESULT: -4.747945864      2.898      4.033
REMARK  1 active torsions:
REMARK  status: ('A' for Active; 'I' for Inactive)
REMARK    1  A    between atoms: O1_2  and  C2_3
ROOT
HETATM    1  C2  UNL     1      25.914  -3.828  12.602  1.00  0.00     0.226 C
HETATM    2  C3  UNL     1      26.187  -4.097  14.049  1.00  0.00     0.125 C
HETATM    3  C4  UNL     1      24.969  -4.098  14.918  1.00  0.00     0.249 C
HETATM    4  F1  UNL     1      24.285  -5.278  14.702  1.00  0.00    -0.214 F
HETATM    5  C5  UNL     1      25.427  -4.089  16.321  1.00  0.00     0.115 C
HETATM    6  N1  UNL     1      25.798  -4.099  17.421  1.00  0.00    -0.193 NA
HETATM    7  S1  UNL     1      23.931  -2.643  14.656  1.00  0.00    -0.039 SA
HETATM    8  C6  UNL     1      24.236  -2.091  12.985  1.00  0.00     0.156 C
HETATM    9  N2  UNL     1      23.519  -0.971  12.453  1.00  0.00    -0.075 NA
HETATM   10  N3  UNL     1      25.094  -2.723  12.318  1.00  0.00    -0.346 N
ATOM     11  H3  UNL     1      25.221  -2.358  11.375  1.00  0.00     0.163 HD
ENDROOT
BRANCH   1  12
HETATM   12  O1  UNL     1      25.380  -4.931  11.945  1.00  0.00    -0.371 OA
HETATM   13  C1  UNL     1      25.413  -4.680  10.583  1.00  0.00     0.204 C
ENDBRANCH   1  12
TORSDOF 1
ENDMDL