MODEL 3
REMARK VINA RESULT: -5.279940107      1.388      1.436
REMARK  2 active torsions:
REMARK  status: ('A' for Active; 'I' for Inactive)
REMARK    1  A    between atoms: S1_2  and  C2_3
REMARK    2  A    between atoms: C2_3  and  C3_7
ROOT
HETATM    1  C3  UNL     1      26.748  -2.964  16.591  1.00  0.00     0.240 C
HETATM    2  C4  UNL     1      27.433  -3.427  15.317  1.00  0.00     0.214 C
HETATM    3  O1  UNL     1      28.432  -4.338  15.736  1.00  0.00    -0.343 OA
HETATM    4  C5  UNL     1      29.145  -3.659  16.723  1.00  0.00     0.396 C
HETATM    5 CL1  UNL     1      30.779  -4.297  16.929  1.00  0.00    -0.063 Cl
HETATM    6  O2  UNL     1      28.409  -3.737  17.904  1.00  0.00    -0.191 OA
HETATM    7  O3  UNL     1      27.140  -3.680  17.695  1.00  0.00    -0.223 OA
ENDROOT
BRANCH   1   8
HETATM    8  C2  UNL     1      25.274  -3.124  16.440  1.00  0.00     0.074 C
HETATM    9  N1  UNL     1      24.492  -2.910  17.419  1.00  0.00    -0.395 N
ATOM     10  H12 UNL     1      23.483  -3.019  17.316  1.00  0.00     0.156 HD
ATOM     11  H11 UNL     1      24.890  -2.626  18.314  1.00  0.00     0.156 HD
BRANCH   8  12
HETATM   12  S1  UNL     1      24.578  -3.621  14.873  1.00  0.00    -0.119 SA
HETATM   13  C1  UNL     1      23.520  -2.304  14.218  1.00  0.00     0.097 C
ENDBRANCH   8  12
ENDBRANCH   1   8
TORSDOF 2
ENDMDL