MODEL 5
REMARK VINA RESULT: -4.842140090      2.042      4.507
REMARK  2 active torsions:
REMARK  status: ('A' for Active; 'I' for Inactive)
REMARK    1  A    between atoms: C2_2  and  S1_4
REMARK    2  A    between atoms: S1_4  and  C3_5
ROOT
HETATM    1  C3  UNL     1      29.294  -4.586  15.553  1.00  0.00     0.127 C
HETATM    2  C4  UNL     1      30.033  -4.287  16.813  1.00  0.00     0.065 C
HETATM    3  N1  UNL     1      29.593  -3.692  17.869  1.00  0.00    -0.398 N
ATOM      4  H11 UNL     1      30.099  -3.487  18.731  1.00  0.00     0.156 HD
ATOM      5  H12 UNL     1      28.652  -3.325  18.011  1.00  0.00     0.156 HD
HETATM    6  C5  UNL     1      31.380  -4.812  16.610  1.00  0.00     0.173 C
HETATM    7  O2  UNL     1      32.337  -4.769  17.417  1.00  0.00    -0.291 OA
HETATM    8  C6  UNL     1      31.447  -5.427  15.259  1.00  0.00     0.107 C
HETATM    9  C7  UNL     1      30.393  -4.588  14.532  1.00  0.00     0.110 C
HETATM   10 CL1  UNL     1      31.067  -2.972  14.353  1.00  0.00    -0.123 Cl
ENDROOT
BRANCH   1  11
HETATM   11  S1  UNL     1      28.096  -3.267  15.285  1.00  0.00    -0.080 SA
BRANCH  11  12
HETATM   12  C2  UNL     1      26.551  -3.577  16.094  1.00  0.00     0.182 C
HETATM   13  C1  UNL     1      25.294  -3.455  15.339  1.00  0.00     0.104 C
HETATM   14  O1  UNL     1      26.536  -3.885  17.253  1.00  0.00    -0.286 OA
ENDBRANCH  11  12
ENDBRANCH   1  11
TORSDOF 2
ENDMDL