MODEL 5
REMARK VINA RESULT: -4.741612915      2.437      3.297
REMARK  2 active torsions:
REMARK  status: ('A' for Active; 'I' for Inactive)
REMARK    1  A    between atoms: C1_2  and  O2_4
REMARK    2  A    between atoms: O2_4  and  N2_5
ROOT
HETATM    1  N2  UNL     1      26.190  -3.725  16.619  1.00  0.00    -0.253 N
ATOM      2  H2  UNL     1      25.474  -3.964  17.306  1.00  0.00     0.195 HD
HETATM    3  C2  UNL     1      26.129  -4.226  15.456  1.00  0.00     0.087 C
HETATM    4  S1  UNL     1      24.857  -5.367  14.853  1.00  0.00    -0.113 SA
HETATM    5  C3  UNL     1      25.313  -5.313  13.068  1.00  0.00     0.082 C
HETATM    6  C4  UNL     1      26.104  -4.008  13.056  1.00  0.00     0.037 C
HETATM    7  C5  UNL     1      27.011  -4.072  14.260  1.00  0.00     0.141 C
HETATM    8 CL1  UNL     1      28.123  -5.431  14.073  1.00  0.00    -0.118 Cl
ENDROOT
BRANCH   1   9
HETATM    9  O2  UNL     1      27.198  -2.870  16.970  1.00  0.00    -0.183 OA
BRANCH   9  10
HETATM   10  C1  UNL     1      28.431  -3.276  17.422  1.00  0.00     0.394 C
HETATM   11  N1  UNL     1      29.598  -3.215  16.610  1.00  0.00    -0.031 NA
HETATM   12  O1  UNL     1      28.535  -3.712  18.578  1.00  0.00    -0.240 OA
ENDBRANCH   9  10
ENDBRANCH   1   9
TORSDOF 2
ENDMDL