MODEL 2
REMARK VINA RESULT: -6.202926523      1.166      1.565
REMARK  15 active torsions:
REMARK  status: ('A' for Active; 'I' for Inactive)
REMARK    1  A    between atoms: C2_2  and  C3_3
REMARK    2  A    between atoms: C3_3  and  O1_4
REMARK    3  A    between atoms: C3_3  and  C4_6
REMARK    4  A    between atoms: C4_6  and  N1_7
REMARK    5  A    between atoms: C4_6  and  C6_11
REMARK    6  A    between atoms: N1_7  and  C5_9
REMARK    7  A    between atoms: C6_11  and  C7_13
REMARK    8  A    between atoms: C7_13  and  O4_14
REMARK    9  A    between atoms: O4_14  and  C8_15
REMARK   10  A    between atoms: C10_19  and  C11_20
REMARK   11  A    between atoms: C11_20  and  N3_22
REMARK       I    between atoms: N3_22  and  C13_24
REMARK   12  A    between atoms: C13_24  and  C14_26
REMARK   13  A    between atoms: C14_26  and  N4_27
REMARK   14  A    between atoms: C14_26  and  C15_31
REMARK   15  A    between atoms: C15_31  and  S1_32
ROOT
HETATM    1  C8  UNL     1     -26.896  13.015 -15.846  1.00  0.00     0.270 A
HETATM    2  N2  UNL     1     -27.753  12.343 -15.040  1.00  0.00    -0.324 N
ATOM      3  H2  UNL     1     -28.763  12.480 -14.997  1.00  0.00     0.169 HD
HETATM    4  C9  UNL     1     -27.046  11.466 -14.309  1.00  0.00     0.127 A
HETATM    5  C10 UNL     1     -25.723  11.602 -14.674  1.00  0.00     0.095 A
HETATM    6  O6  UNL     1     -25.708  12.533 -15.585  1.00  0.00    -0.275 OA
ENDROOT
BRANCH   1   7
HETATM    7  O4  UNL     1     -27.246  14.013 -16.759  1.00  0.00    -0.309 OA
BRANCH   7   8
HETATM    8  C7  UNL     1     -28.522  13.993 -17.294  1.00  0.00     0.260 C
BRANCH   8   9
HETATM    9  C6  UNL     1     -28.716  13.183 -18.513  1.00  0.00     0.175 C
HETATM   10  O3  UNL     1     -29.500  12.223 -18.321  1.00  0.00    -0.293 OA
BRANCH   9  11
HETATM   11  C4  UNL     1     -28.101  13.405 -19.828  1.00  0.00     0.184 C
BRANCH  11  12
HETATM   12  C3  UNL     1     -27.209  12.301 -20.328  1.00  0.00     0.148 C
BRANCH  12  13
HETATM   13  C2  UNL     1     -25.760  12.648 -20.420  1.00  0.00     0.029 C
HETATM   14  C1  UNL     1     -25.205  12.742 -21.807  1.00  0.00     0.007 C
ENDBRANCH  12  13
BRANCH  12  15
HETATM   15  O1  UNL     1     -27.346  11.085 -19.725  1.00  0.00    -0.393 OA
ATOM     16  H1  UNL     1     -28.178  11.051 -19.269  1.00  0.00     0.210 HD
ENDBRANCH  12  15
ENDBRANCH  11  12
BRANCH  11  17
HETATM   17  N1  UNL     1     -27.245  14.606 -19.798  1.00  0.00    -0.354 N
ATOM     18  H1  UNL     1     -26.457  14.625 -19.151  1.00  0.00     0.162 HD
BRANCH  17  19
HETATM   19  C5  UNL     1     -27.465  15.730 -20.620  1.00  0.00     0.349 C
HETATM   20  O2  UNL     1     -27.755  15.528 -21.835  1.00  0.00    -0.284 OA
ENDBRANCH  17  19
ENDBRANCH  11  17
ENDBRANCH   9  11
ENDBRANCH   8   9
ENDBRANCH   7   8
ENDBRANCH   1   7
BRANCH   5  21
HETATM   21  C11 UNL     1     -24.554  10.841 -14.137  1.00  0.00     0.139 C
HETATM   22  C12 UNL     1     -23.509  11.786 -13.598  1.00  0.00     0.039 C
BRANCH  21  23
HETATM   23  N3  UNL     1     -24.947   9.930 -13.098  1.00  0.00    -0.349 N
HETATM   24  C13 UNL     1     -24.936   8.533 -13.287  1.00  0.00     0.249 C
HETATM   25  O5  UNL     1     -24.558   8.095 -14.421  1.00  0.00    -0.271 OA
ATOM     26  H3  UNL     1     -25.243  10.305 -12.197  1.00  0.00     0.163 HD
BRANCH  24  27
HETATM   27  C14 UNL     1     -25.317   7.509 -12.302  1.00  0.00     0.283 C
BRANCH  27  28
HETATM   28  N4  UNL     1     -24.607   6.289 -12.482  1.00  0.00    -0.066 N
ATOM     29  H43 UNL     1     -25.088   5.513 -12.028  1.00  0.00     0.275 HD
ATOM     30  H42 UNL     1     -24.662   5.972 -13.449  1.00  0.00     0.275 HD
ATOM     31  H41 UNL     1     -23.637   6.353 -12.171  1.00  0.00     0.275 HD
ENDBRANCH  27  28
BRANCH  27  32
HETATM   32  C15 UNL     1     -25.234   8.023 -10.885  1.00  0.00     0.116 C
BRANCH  32  33
HETATM   33  S1  UNL     1     -23.590   7.709 -10.215  1.00  0.00    -0.171 SA
HETATM   34  C16 UNL     1     -22.493   9.107 -10.492  1.00  0.00     0.089 C
ENDBRANCH  32  33
ENDBRANCH  27  32
ENDBRANCH  24  27
ENDBRANCH  21  23
ENDBRANCH   5  21
TORSDOF 15
ENDMDL