MODEL 3
REMARK VINA RESULT: -6.006795576      1.711      2.058
REMARK  16 active torsions:
REMARK  status: ('A' for Active; 'I' for Inactive)
REMARK    1  A    between atoms: C2_2  and  N1_3
REMARK    2  A    between atoms: C2_2  and  C3_7
REMARK    3  A    between atoms: C3_7  and  N2_8
REMARK    4  A    between atoms: C3_7  and  N5_32
REMARK    5  A    between atoms: N2_8  and  C4_11
REMARK    6  A    between atoms: C4_11  and  C5_12
REMARK    7  A    between atoms: C6_13  and  O1_14
REMARK    8  A    between atoms: O1_14  and  C7_15
REMARK    9  A    between atoms: C7_15  and  C8_17
REMARK   10  A    between atoms: C8_17  and  N3_18
REMARK   11  A    between atoms: N3_18  and  C9_21
REMARK   12  A    between atoms: C9_21  and  C10_22
REMARK   13  A    between atoms: C10_22  and  S1_23
REMARK   14  A    between atoms: S1_23  and  C11_24
REMARK   15  A    between atoms: C11_24  and  C12_25
REMARK   16  A    between atoms: N5_32  and  N6_34
ROOT
HETATM    1  C5  UNL     1     -28.072   8.713 -13.655  1.00  0.00     0.025 C
HETATM    2  C6  UNL     1     -27.595   9.914 -13.862  1.00  0.00     0.143 C
ENDROOT
BRANCH   2   3
HETATM    3  O1  UNL     1     -26.397  10.341 -13.330  1.00  0.00    -0.290 OA
BRANCH   3   4
HETATM    4  C7  UNL     1     -25.372  10.912 -14.078  1.00  0.00     0.289 C
HETATM    5  O2  UNL     1     -24.943  10.277 -15.057  1.00  0.00    -0.263 OA
BRANCH   4   6
HETATM    6  C8  UNL     1     -24.888  12.234 -13.633  1.00  0.00     0.343 C
BRANCH   6   7
HETATM    7  N3  UNL     1     -24.845  13.215 -14.688  1.00  0.00    -0.066 N
ATOM      8  H32 UNL     1     -23.978  13.751 -14.689  1.00  0.00     0.277 HD
ATOM      9  H31 UNL     1     -24.749  12.793 -15.611  1.00  0.00     0.277 HD
BRANCH   7  10
HETATM   10  C9  UNL     1     -25.998  14.039 -14.580  1.00  0.00     0.243 C
BRANCH  10  11
HETATM   11  C10 UNL     1     -26.448  14.639 -15.887  1.00  0.00     0.101 C
BRANCH  11  12
HETATM   12  S1  UNL     1     -27.143  13.439 -17.016  1.00  0.00    -0.163 SA
BRANCH  12  13
HETATM   13  C11 UNL     1     -27.555  14.233 -18.585  1.00  0.00     0.113 C
BRANCH  13  14
HETATM   14  C12 UNL     1     -26.748  13.658 -19.684  1.00  0.00    -0.034 A
HETATM   15  C13 UNL     1     -26.313  14.453 -20.707  1.00  0.00     0.011 A
HETATM   16  C14 UNL     1     -25.569  13.929 -21.724  1.00  0.00     0.018 A
HETATM   17  C15 UNL     1     -25.244  12.586 -21.733  1.00  0.00     0.087 A
HETATM   18  N4  UNL     1     -25.664  11.813 -20.739  1.00  0.00    -0.375 N
HETATM   19  C16 UNL     1     -26.407  12.313 -19.718  1.00  0.00     0.095 A
ATOM     20  H4  UNL     1     -25.424  10.822 -20.743  1.00  0.00     0.164 HD
ENDBRANCH  13  14
ENDBRANCH  12  13
ENDBRANCH  11  12
ENDBRANCH  10  11
ENDBRANCH   7  10
ENDBRANCH   6   7
ENDBRANCH   4   6
ENDBRANCH   3   4
ENDBRANCH   2   3
BRANCH   1  21
HETATM   21  C4  UNL     1     -27.317   7.757 -12.823  1.00  0.00     0.264 C
BRANCH  21  22
HETATM   22  N2  UNL     1     -27.143   8.280 -11.482  1.00  0.00    -0.048 N
ATOM     23  H22 UNL     1     -27.920   8.008 -10.881  1.00  0.00     0.280 HD
ATOM     24  H21 UNL     1     -27.266   9.292 -11.467  1.00  0.00     0.280 HD
BRANCH  22  25
HETATM   25  C3  UNL     1     -25.893   7.910 -10.898  1.00  0.00     0.334 C
BRANCH  25  26
HETATM   26  C2  UNL     1     -24.985   7.273 -11.932  1.00  0.00     0.230 C
HETATM   27  C1  UNL     1     -23.800   8.177 -12.229  1.00  0.00     0.044 C
BRANCH  26  28
HETATM   28  N1  UNL     1     -24.455   6.025 -11.491  1.00  0.00    -0.072 N
ATOM     29  H13 UNL     1     -23.998   5.498 -12.236  1.00  0.00     0.274 HD
ATOM     30  H12 UNL     1     -23.641   6.126 -10.885  1.00  0.00     0.274 HD
ATOM     31  H11 UNL     1     -25.221   5.515 -11.052  1.00  0.00     0.274 HD
ENDBRANCH  26  28
ENDBRANCH  25  26
BRANCH  25  32
HETATM   32  N5  UNL     1     -26.002   7.100  -9.711  1.00  0.00    -0.244 N
ATOM     33  H5  UNL     1     -25.322   7.256  -8.968  1.00  0.00     0.189 HD
BRANCH  32  34
HETATM   34  N6  UNL     1     -26.967   6.120  -9.504  1.00  0.00    -0.042 N
HETATM   35  O3  UNL     1     -26.692   4.919  -9.350  1.00  0.00    -0.517 OA
HETATM   36  O4  UNL     1     -28.286   6.486  -9.464  1.00  0.00    -0.517 OA
ENDBRANCH  32  34
ENDBRANCH  25  32
ENDBRANCH  22  25
ENDBRANCH  21  22
ENDBRANCH   1  21
TORSDOF 16
ENDMDL