MODEL 5
REMARK VINA RESULT: -6.615409311      2.185      3.486
REMARK  17 active torsions:
REMARK  status: ('A' for Active; 'I' for Inactive)
REMARK    1  A    between atoms: O1_1  and  N1_3
REMARK    2  A    between atoms: N1_3  and  N2_5
REMARK    3  A    between atoms: N2_5  and  C1_6
REMARK    4  A    between atoms: N2_5  and  C13_31
REMARK    5  A    between atoms: C1_6  and  C2_7
REMARK    6  A    between atoms: C2_7  and  N3_8
REMARK    7  A    between atoms: N3_8  and  C3_11
REMARK    8  A    between atoms: C3_11  and  C4_12
REMARK    9  A    between atoms: C4_12  and  C5_13
REMARK   10  A    between atoms: C5_13  and  N4_14
REMARK   11  A    between atoms: N4_14  and  C6_17
REMARK   12  A    between atoms: C6_17  and  C7_18
REMARK   13  A    between atoms: C7_18  and  O2_19
REMARK   14  A    between atoms: C7_18  and  N5_21
REMARK   15  A    between atoms: N5_21  and  N6_23
REMARK       I    between atoms: N6_23  and  C8_24
REMARK   16  A    between atoms: C8_24  and  C9_26
REMARK   17  A    between atoms: C13_31  and  C14_32
ROOT
HETATM    1  C3  UNL     1     -29.372  13.312 -15.006  1.00  0.00     0.234 C
ENDROOT
BRANCH   1   2
HETATM    2  N3  UNL     1     -29.984  14.197 -15.889  1.00  0.00    -0.071 N
ATOM      3  H32 UNL     1     -30.711  14.747 -15.433  1.00  0.00     0.277 HD
ATOM      4  H31 UNL     1     -30.567  13.711 -16.570  1.00  0.00     0.277 HD
BRANCH   2   5
HETATM    5  C2  UNL     1     -28.968  15.058 -16.544  1.00  0.00     0.278 C
BRANCH   5   6
HETATM    6  C1  UNL     1     -29.119  14.850 -18.036  1.00  0.00     0.112 C
BRANCH   6   7
HETATM    7  N2  UNL     1     -28.544  13.693 -18.590  1.00  0.00    -0.282 N
BRANCH   7   8
HETATM    8  N1  UNL     1     -29.313  12.636 -19.105  1.00  0.00    -0.208 N
ATOM      9  H1  UNL     1     -28.835  11.772 -19.360  1.00  0.00     0.216 HD
BRANCH   8  10
HETATM   10  O1  UNL     1     -30.550  12.695 -19.267  1.00  0.00    -0.274 OA
ATOM     11  H1  UNL     1     -31.064  11.998 -19.657  1.00  0.00     0.246 HD
ENDBRANCH   8  10
ENDBRANCH   7   8
BRANCH   7  12
HETATM   12  C13 UNL     1     -27.091  13.492 -18.567  1.00  0.00     0.188 C
BRANCH  12  13
HETATM   13  C14 UNL     1     -26.540  13.514 -19.929  1.00  0.00    -0.036 A
HETATM   14  C15 UNL     1     -25.831  12.436 -20.370  1.00  0.00     0.026 A
HETATM   15  C16 UNL     1     -25.269  12.459 -21.625  1.00  0.00     0.088 A
HETATM   16  N7  UNL     1     -25.445  13.600 -22.391  1.00  0.00    -0.375 N
HETATM   17  C17 UNL     1     -26.124  14.660 -21.994  1.00  0.00     0.088 A
ATOM     18  H7  UNL     1     -25.023  13.622 -23.320  1.00  0.00     0.164 HD
HETATM   19  C18 UNL     1     -26.686  14.621 -20.751  1.00  0.00     0.026 A
ENDBRANCH  12  13
ENDBRANCH   7  12
ENDBRANCH   6   7
ENDBRANCH   5   6
ENDBRANCH   2   5
ENDBRANCH   1   2
BRANCH   1  20
HETATM   20  C4  UNL     1     -29.583  11.840 -15.125  1.00  0.00     0.055 C
BRANCH  20  21
HETATM   21  C5  UNL     1     -29.778  11.382 -13.648  1.00  0.00     0.234 C
BRANCH  21  22
HETATM   22  N4  UNL     1     -29.936   9.929 -13.712  1.00  0.00    -0.068 N
ATOM     23  H42 UNL     1     -30.469   9.556 -12.927  1.00  0.00     0.277 HD
ATOM     24  H41 UNL     1     -30.565   9.635 -14.459  1.00  0.00     0.277 HD
BRANCH  22  25
HETATM   25  C6  UNL     1     -28.629   9.341 -13.824  1.00  0.00     0.318 C
BRANCH  25  26
HETATM   26  C7  UNL     1     -28.627   8.038 -13.144  1.00  0.00     0.167 C
BRANCH  26  27
HETATM   27  O2  UNL     1     -28.138   6.972 -13.749  1.00  0.00    -0.347 OA
ATOM     28  H2  UNL     1     -28.721   6.294 -14.070  1.00  0.00     0.219 HD
ENDBRANCH  26  27
BRANCH  26  29
HETATM   29  N5  UNL     1     -29.125   7.792 -11.855  1.00  0.00    -0.211 N
ATOM     30  H5  UNL     1     -30.120   7.938 -11.689  1.00  0.00     0.204 HD
BRANCH  29  31
HETATM   31  N6  UNL     1     -28.378   7.382 -10.842  1.00  0.00    -0.277 NA
HETATM   32  C8  UNL     1     -27.643   6.977  -9.827  1.00  0.00     0.369 C
HETATM   33  O3  UNL     1     -27.806   6.818  -8.650  1.00  0.00    -0.247 OA
BRANCH  32  34
HETATM   34  C9  UNL     1     -26.197   6.529 -10.195  1.00  0.00     0.159 A
HETATM   35  C10 UNL     1     -25.332   7.389 -10.908  1.00  0.00     0.046 A
HETATM   36  C11 UNL     1     -24.190   6.677 -11.018  1.00  0.00     0.027 A
HETATM   37  C12 UNL     1     -24.405   5.446 -10.406  1.00  0.00     0.143 A
HETATM   38  O4  UNL     1     -25.624   5.466  -9.951  1.00  0.00    -0.316 OA
ENDBRANCH  32  34
ENDBRANCH  29  31
ENDBRANCH  26  29
ENDBRANCH  25  26
ENDBRANCH  22  25
ENDBRANCH  21  22
ENDBRANCH  20  21
ENDBRANCH   1  20
TORSDOF 17
ENDMDL