MODEL 2
REMARK VINA RESULT: -5.764044752      1.450      1.833
REMARK  17 active torsions:
REMARK  status: ('A' for Active; 'I' for Inactive)
REMARK    1  A    between atoms: C2_2  and  C3_3
REMARK    2  A    between atoms: C3_3  and  C4_4
REMARK    3  A    between atoms: C4_4  and  C5_5
REMARK    4  A    between atoms: C4_4  and  C8_8
REMARK    5  A    between atoms: C5_5  and  C6_6
REMARK    6  A    between atoms: C8_8  and  N1_9
REMARK    7  A    between atoms: N1_9  and  C9_11
REMARK    8  A    between atoms: C9_11  and  O1_12
REMARK    9  A    between atoms: C9_11  and  C10_14
REMARK   10  A    between atoms: C10_14  and  O2_15
REMARK   11  A    between atoms: C10_14  and  C11_17
REMARK       I    between atoms: C11_17  and  N2_19
REMARK   12  A    between atoms: N2_19  and  C12_21
REMARK   13  A    between atoms: C12_21  and  C14_23
REMARK   14  A    between atoms: C14_23  and  O4_24
REMARK   15  A    between atoms: O4_24  and  S1_25
REMARK   16  A    between atoms: S1_25  and  O6_27
REMARK   17  A    between atoms: O6_27  and  C15_28
ROOT
HETATM    1  C10 UNL     1     -25.680  11.568 -13.855  1.00  0.00     0.257 C
ENDROOT
BRANCH   1   2
HETATM    2  C9  UNL     1     -25.491  11.872 -15.299  1.00  0.00     0.252 C
BRANCH   2   3
HETATM    3  N1  UNL     1     -26.605  12.282 -16.050  1.00  0.00    -0.391 N
ATOM      4  H1  UNL     1     -27.389  11.645 -16.195  1.00  0.00     0.156 HD
BRANCH   3   5
HETATM    5  C8  UNL     1     -26.631  13.595 -16.606  1.00  0.00     0.154 C
BRANCH   5   6
HETATM    6  C4  UNL     1     -27.232  13.502 -18.023  1.00  0.00    -0.048 C
BRANCH   6   7
HETATM    7  C3  UNL     1     -26.493  12.537 -18.858  1.00  0.00    -0.019 C
BRANCH   7   8
HETATM    8  C2  UNL     1     -26.825  12.306 -20.262  1.00  0.00     0.023 C
HETATM    9  C1  UNL     1     -25.553  12.631 -21.093  1.00  0.00     0.009 C
ENDBRANCH   7   8
ENDBRANCH   6   7
BRANCH   6  10
HETATM   10  C5  UNL     1     -27.682  14.787 -18.543  1.00  0.00    -0.019 C
BRANCH  10  11
HETATM   11  C6  UNL     1     -29.072  15.222 -18.575  1.00  0.00     0.023 C
HETATM   12  C7  UNL     1     -29.135  16.572 -19.326  1.00  0.00     0.009 C
ENDBRANCH  10  11
ENDBRANCH   6  10
ENDBRANCH   5   6
ENDBRANCH   3   5
ENDBRANCH   2   3
BRANCH   2  13
HETATM   13  O1  UNL     1     -25.009  10.679 -15.905  1.00  0.00    -0.374 OA
ATOM     14  H1  UNL     1     -24.592  10.174 -15.217  1.00  0.00     0.212 HD
ENDBRANCH   2  13
ENDBRANCH   1   2
BRANCH   1  15
HETATM   15  O2  UNL     1     -25.469  12.702 -13.086  1.00  0.00    -0.382 OA
ATOM     16  H2  UNL     1     -25.380  12.471 -12.169  1.00  0.00     0.210 HD
ENDBRANCH   1  15
BRANCH   1  17
HETATM   17  C11 UNL     1     -24.708  10.528 -13.409  1.00  0.00     0.251 C
HETATM   18  O3  UNL     1     -23.488  10.799 -13.411  1.00  0.00    -0.270 OA
HETATM   19  N2  UNL     1     -25.146   9.249 -12.986  1.00  0.00    -0.352 N
ATOM     20  H2  UNL     1     -26.148   9.060 -12.994  1.00  0.00     0.163 HD
BRANCH  19  21
HETATM   21  C12 UNL     1     -24.262   8.192 -12.542  1.00  0.00     0.105 C
HETATM   22  C13 UNL     1     -24.252   7.016 -13.479  1.00  0.00     0.034 C
BRANCH  21  23
HETATM   23  C14 UNL     1     -24.793   7.750 -11.187  1.00  0.00     0.214 C
BRANCH  23  24
HETATM   24  O4  UNL     1     -25.836   6.830 -11.351  1.00  0.00    -0.272 OA
BRANCH  24  25
HETATM   25  S1  UNL     1     -27.001   7.105 -10.159  1.00  0.00     0.313 S
HETATM   26  O5  UNL     1     -27.563   5.784  -9.621  1.00  0.00    -0.196 OA
BRANCH  25  27
HETATM   27  O6  UNL     1     -28.294   8.003 -10.874  1.00  0.00    -0.195 OA
BRANCH  27  28
HETATM   28  C15 UNL     1     -28.940   7.516 -12.002  1.00  0.00     0.269 C
HETATM   29  C16 UNL     1     -28.361   7.621 -13.369  1.00  0.00     0.127 C
HETATM   30  O7  UNL     1     -30.066   6.968 -11.826  1.00  0.00    -0.265 OA
ENDBRANCH  27  28
ENDBRANCH  25  27
ENDBRANCH  24  25
ENDBRANCH  23  24
ENDBRANCH  21  23
ENDBRANCH  19  21
ENDBRANCH   1  17
TORSDOF 17
ENDMDL