MODEL 2
REMARK VINA RESULT: -5.920346226      1.797      2.998
REMARK  13 active torsions:
REMARK  status: ('A' for Active; 'I' for Inactive)
REMARK    1  A    between atoms: O1_2  and  N1_3
REMARK       I    between atoms: N1_3  and  C2_5
REMARK    2  A    between atoms: C2_5  and  C3_7
REMARK    3  A    between atoms: C3_7  and  O3_8
REMARK    4  A    between atoms: O3_8  and  C4_9
REMARK    5  A    between atoms: C4_9  and  N2_10
REMARK    6  A    between atoms: C4_9  and  C5_14
REMARK    7  A    between atoms: C5_14  and  C6_15
REMARK    8  A    between atoms: C6_15  and  C7_16
REMARK    9  A    between atoms: C7_16  and  N3_17
REMARK   10  A    between atoms: C7_16  and  C17_31
REMARK       I    between atoms: N3_17  and  C8_19
REMARK   11  A    between atoms: C8_19  and  C9_21
REMARK   12  A    between atoms: C12_24  and  O5_25
REMARK   13  A    between atoms: C15_28  and  O6_29
ROOT
HETATM    1  C7  UNL     1     -27.220  13.202 -17.552  1.00  0.00     0.129 C
ENDROOT
BRANCH   1   2
HETATM    2  C6  UNL     1     -28.506  13.873 -17.122  1.00  0.00     0.035 C
BRANCH   2   3
HETATM    3  C5  UNL     1     -28.507  15.349 -17.316  1.00  0.00     0.063 C
BRANCH   3   4
HETATM    4  C4  UNL     1     -29.569  15.849 -18.289  1.00  0.00     0.318 C
BRANCH   4   5
HETATM    5  O3  UNL     1     -29.116  15.448 -19.555  1.00  0.00    -0.350 OA
BRANCH   5   6
HETATM    6  C3  UNL     1     -28.059  16.222 -19.969  1.00  0.00     0.275 C
BRANCH   6   7
HETATM    7  C2  UNL     1     -27.346  15.628 -21.102  1.00  0.00     0.264 C
HETATM    8  N1  UNL     1     -26.012  15.155 -20.996  1.00  0.00    -0.234 N
ATOM      9  H1  UNL     1     -25.539  15.234 -20.096  1.00  0.00     0.197 HD
HETATM   10  O2  UNL     1     -27.911  15.521 -22.218  1.00  0.00    -0.269 OA
BRANCH   8  11
HETATM   11  O1  UNL     1     -25.347  14.610 -22.020  1.00  0.00    -0.283 OA
HETATM   12  C1  UNL     1     -25.367  13.215 -21.932  1.00  0.00     0.237 C
ENDBRANCH   8  11
ENDBRANCH   6   7
ENDBRANCH   5   6
ENDBRANCH   4   5
BRANCH   4  13
HETATM   13  N2  UNL     1     -29.568  17.282 -18.243  1.00  0.00    -0.053 N
ATOM     14  H23 UNL     1     -30.181  17.698 -18.945  1.00  0.00     0.277 HD
ATOM     15  H22 UNL     1     -30.038  17.650 -17.415  1.00  0.00     0.277 HD
ATOM     16  H21 UNL     1     -28.604  17.605 -18.323  1.00  0.00     0.277 HD
ENDBRANCH   4  13
ENDBRANCH   3   4
ENDBRANCH   2   3
ENDBRANCH   1   2
BRANCH   1  17
HETATM   17  N3  UNL     1     -26.528  12.464 -16.529  1.00  0.00    -0.347 N
HETATM   18  C8  UNL     1     -25.713  12.941 -15.517  1.00  0.00     0.255 C
HETATM   19  O4  UNL     1     -25.558  14.208 -15.456  1.00  0.00    -0.268 OA
ATOM     20  H3  UNL     1     -26.656  11.453 -16.552  1.00  0.00     0.163 HD
BRANCH  18  21
HETATM   21  C9  UNL     1     -25.014  12.177 -14.518  1.00  0.00     0.065 A
HETATM   22  C10 UNL     1     -23.671  12.533 -14.227  1.00  0.00     0.022 A
HETATM   23  C11 UNL     1     -22.911  11.882 -13.297  1.00  0.00     0.038 A
HETATM   24  C12 UNL     1     -23.414  10.839 -12.588  1.00  0.00     0.070 A
HETATM   25  C14 UNL     1     -24.708  10.464 -12.841  1.00  0.00     0.074 A
HETATM   26  C15 UNL     1     -25.494  11.120 -13.787  1.00  0.00     0.086 A
BRANCH  24  27
HETATM   27  O5  UNL     1     -22.674  10.157 -11.639  1.00  0.00    -0.356 OA
HETATM   28  C13 UNL     1     -22.921   8.821 -11.270  1.00  0.00     0.210 C
ENDBRANCH  24  27
BRANCH  26  29
HETATM   29  O6  UNL     1     -26.795  10.697 -14.000  1.00  0.00    -0.355 OA
HETATM   30  C16 UNL     1     -27.169   9.404 -13.610  1.00  0.00     0.210 C
ENDBRANCH  26  29
ENDBRANCH  18  21
ENDBRANCH   1  17
BRANCH   1  31
HETATM   31  C17 UNL     1     -27.318  12.517 -18.849  1.00  0.00    -0.001 C
HETATM   32  C18 UNL     1     -26.182  11.701 -19.385  1.00  0.00     0.065 C
HETATM   33  N4  UNL     1     -28.364  12.571 -19.588  1.00  0.00    -0.404 N
ATOM     34  H42 UNL     1     -29.138  13.126 -19.223  1.00  0.00     0.155 HD
ATOM     35  H41 UNL     1     -28.432  12.095 -20.488  1.00  0.00     0.155 HD
ENDBRANCH   1  31
TORSDOF 13
ENDMDL