MODEL 1
REMARK VINA RESULT: -6.409451912      0.000      0.000
REMARK  13 active torsions:
REMARK  status: ('A' for Active; 'I' for Inactive)
REMARK    1  A    between atoms: C2_2  and  C3_4
REMARK    2  A    between atoms: C3_4  and  N1_5
REMARK    3  A    between atoms: N1_5  and  C4_6
REMARK    4  A    between atoms: N1_5  and  C6_12
REMARK    5  A    between atoms: C4_6  and  C5_7
REMARK    6  A    between atoms: C5_7  and  O2_8
REMARK    7  A    between atoms: O2_8  and  N2_9
REMARK    8  A    between atoms: C6_12  and  C7_13
REMARK    9  A    between atoms: C7_13  and  N3_14
REMARK   10  A    between atoms: N3_14  and  C9_16
REMARK   11  A    between atoms: C9_16  and  C10_17
REMARK   12  A    between atoms: C12_22  and  N5_23
REMARK       I    between atoms: N5_23  and  C13_25
REMARK   13  A    between atoms: C16_29  and  O7_30
ROOT
HETATM    1  C9  UNL     1     -28.714  12.737 -14.820  1.00  0.00     0.092 C
ENDROOT
BRANCH   1   2
HETATM    2  N3  UNL     1     -27.707  12.194 -13.927  1.00  0.00    -0.290 NA
HETATM    3  C8  UNL     1     -27.988  12.621 -12.545  1.00  0.00     0.116 C
BRANCH   2   4
HETATM    4  C7  UNL     1     -27.803  10.732 -13.977  1.00  0.00     0.139 C
BRANCH   4   5
HETATM    5  C6  UNL     1     -26.436  10.065 -13.886  1.00  0.00     0.078 C
BRANCH   5   6
HETATM    6  N1  UNL     1     -26.501   9.008 -12.992  1.00  0.00    -0.364 N
BRANCH   6   7
HETATM    7  C3  UNL     1     -27.784   8.889 -12.362  1.00  0.00     0.205 C
BRANCH   7   8
HETATM    8  C2  UNL     1     -28.560   7.686 -12.696  1.00  0.00     0.141 C
HETATM    9  C1  UNL     1     -29.679   7.321 -11.792  1.00  0.00     0.092 C
HETATM   10  O1  UNL     1     -28.309   7.014 -13.659  1.00  0.00    -0.297 OA
ENDBRANCH   7   8
ENDBRANCH   6   7
BRANCH   6  11
HETATM   11  C4  UNL     1     -25.486   8.575 -12.169  1.00  0.00     0.092 C
BRANCH  11  12
HETATM   12  C5  UNL     1     -24.668   7.375 -12.526  1.00  0.00     0.252 C
BRANCH  12  13
HETATM   13  O2  UNL     1     -25.217   6.267 -11.848  1.00  0.00    -0.216 OA
BRANCH  13  14
HETATM   14  N2  UNL     1     -25.033   5.999 -10.527  1.00  0.00     0.005 N
HETATM   15  O3  UNL     1     -25.959   5.504  -9.871  1.00  0.00    -0.511 OA
HETATM   16  O4  UNL     1     -23.826   6.282  -9.953  1.00  0.00    -0.511 OA
ENDBRANCH  13  14
ENDBRANCH  12  13
ENDBRANCH  11  12
ENDBRANCH   6  11
ENDBRANCH   5   6
ENDBRANCH   4   5
ENDBRANCH   2   4
ENDBRANCH   1   2
BRANCH   1  17
HETATM   17  C10 UNL     1     -28.302  13.091 -16.155  1.00  0.00     0.079 A
HETATM   18  N4  UNL     1     -28.904  12.670 -17.271  1.00  0.00    -0.319 N
HETATM   19  C11 UNL     1     -28.516  13.037 -18.501  1.00  0.00     0.273 A
ATOM     20  H4  UNL     1     -29.699  12.038 -17.182  1.00  0.00     0.169 HD
HETATM   21  O5  UNL     1     -29.138  12.593 -19.496  1.00  0.00    -0.266 OA
HETATM   22  C12 UNL     1     -27.426  13.906 -18.681  1.00  0.00     0.106 A
HETATM   23  C15 UNL     1     -26.793  14.349 -17.546  1.00  0.00     0.074 A
HETATM   24  C16 UNL     1     -27.206  13.962 -16.274  1.00  0.00     0.095 A
BRANCH  22  25
HETATM   25  N5  UNL     1     -27.093  14.246 -19.995  1.00  0.00    -0.323 N
HETATM   26  C13 UNL     1     -26.177  13.579 -20.816  1.00  0.00     0.218 C
HETATM   27  C14 UNL     1     -25.913  14.059 -22.218  1.00  0.00     0.117 C
HETATM   28  O6  UNL     1     -25.541  12.573 -20.460  1.00  0.00    -0.274 OA
ATOM     29  H5  UNL     1     -27.563  15.059 -20.393  1.00  0.00     0.169 HD
ENDBRANCH  22  25
BRANCH  24  30
HETATM   30  O7  UNL     1     -26.555  14.420 -15.163  1.00  0.00    -0.358 OA
ATOM     31  H7  UNL     1     -25.791  14.977 -15.245  1.00  0.00     0.217 HD
ENDBRANCH  24  30
ENDBRANCH   1  17
TORSDOF 13
ENDMDL