MODEL 1
REMARK VINA RESULT: -6.285976154      0.000      0.000
REMARK  18 active torsions:
REMARK  status: ('A' for Active; 'I' for Inactive)
REMARK    1  A    between atoms: C2_2  and  C3_3
REMARK    2  A    between atoms: C2_2  and  C7_9
REMARK    3  A    between atoms: C3_3  and  C4_4
REMARK    4  A    between atoms: C4_4  and  O2_6
REMARK    5  A    between atoms: O2_6  and  C5_7
REMARK    6  A    between atoms: C7_9  and  N1_10
REMARK    7  A    between atoms: C7_9  and  C12_24
REMARK       I    between atoms: N1_10  and  C8_12
REMARK    8  A    between atoms: C8_12  and  O4_14
REMARK    9  A    between atoms: O4_14  and  C9_15
REMARK   10  A    between atoms: C9_15  and  O5_16
REMARK   11  A    between atoms: C9_15  and  C10_18
REMARK   12  A    between atoms: C10_18  and  O6_19
REMARK   13  A    between atoms: C10_18  and  C11_21
REMARK   14  A    between atoms: C11_21  and  O7_22
REMARK   15  A    between atoms: C12_24  and  C14_26
REMARK   16  A    between atoms: C14_26  and  O9_28
REMARK   17  A    between atoms: O9_28  and  C15_29
REMARK   18  A    between atoms: C15_29  and  C16_30
ROOT
HETATM    1  C7  UNL     1     -29.070  14.386 -17.547  1.00  0.00     0.129 C
ENDROOT
BRANCH   1   2
HETATM    2  C2  UNL     1     -30.339  13.653 -17.107  1.00  0.00    -0.057 C
HETATM    3  C1  UNL     1     -30.154  12.528 -16.512  1.00  0.00     0.017 C
BRANCH   2   4
HETATM    4  C3  UNL     1     -31.623  14.290 -17.393  1.00  0.00     0.146 C
BRANCH   4   5
HETATM    5  C4  UNL     1     -32.097  14.394 -18.772  1.00  0.00     0.262 C
HETATM    6  O1  UNL     1     -32.328  13.450 -19.550  1.00  0.00    -0.265 OA
BRANCH   5   7
HETATM    7  O2  UNL     1     -32.334  15.670 -19.338  1.00  0.00    -0.322 OA
BRANCH   7   8
HETATM    8  C5  UNL     1     -32.089  16.816 -18.552  1.00  0.00     0.174 C
HETATM    9  C6  UNL     1     -30.919  17.543 -19.175  1.00  0.00     0.034 C
ENDBRANCH   7   8
ENDBRANCH   5   7
ENDBRANCH   4   5
ENDBRANCH   2   4
ENDBRANCH   1   2
BRANCH   1  10
HETATM   10  N1  UNL     1     -28.508  13.642 -18.628  1.00  0.00    -0.328 N
HETATM   11  C8  UNL     1     -28.174  14.225 -19.898  1.00  0.00     0.363 C
HETATM   12  O3  UNL     1     -28.367  15.456 -20.121  1.00  0.00    -0.238 OA
ATOM     13  H1  UNL     1     -28.334  12.647 -18.492  1.00  0.00     0.165 HD
BRANCH  11  14
HETATM   14  O4  UNL     1     -27.636  13.481 -20.917  1.00  0.00    -0.270 OA
BRANCH  14  15
HETATM   15  C9  UNL     1     -26.453  13.769 -21.610  1.00  0.00     0.298 C
BRANCH  15  16
HETATM   16  O5  UNL     1     -25.803  14.906 -21.083  1.00  0.00    -0.368 OA
ATOM     17  H5  UNL     1     -24.946  14.691 -20.734  1.00  0.00     0.212 HD
ENDBRANCH  15  16
BRANCH  15  18
HETATM   18  C10 UNL     1     -25.500  12.605 -21.373  1.00  0.00     0.197 C
BRANCH  18  19
HETATM   19  O6  UNL     1     -25.246  11.892 -22.542  1.00  0.00    -0.388 OA
ATOM     20  H6  UNL     1     -24.445  11.384 -22.483  1.00  0.00     0.210 HD
ENDBRANCH  18  19
BRANCH  18  21
HETATM   21  C11 UNL     1     -26.067  11.657 -20.322  1.00  0.00     0.200 C
BRANCH  21  22
HETATM   22  O7  UNL     1     -26.755  10.614 -20.932  1.00  0.00    -0.398 OA
ATOM     23  H7  UNL     1     -27.019  10.862 -21.810  1.00  0.00     0.209 HD
ENDBRANCH  21  22
ENDBRANCH  18  21
ENDBRANCH  15  18
ENDBRANCH  14  15
ENDBRANCH  11  14
ENDBRANCH   1  10
BRANCH   1  24
HETATM   24  C12 UNL     1     -28.139  14.578 -16.391  1.00  0.00     0.108 C
HETATM   25  C13 UNL     1     -26.762  14.046 -16.723  1.00  0.00     0.023 C
BRANCH  24  26
HETATM   26  C14 UNL     1     -28.026  16.017 -15.997  1.00  0.00     0.265 C
HETATM   27  O8  UNL     1     -27.005  16.403 -15.382  1.00  0.00    -0.265 OA
BRANCH  26  28
HETATM   28  O9  UNL     1     -28.990  16.941 -16.276  1.00  0.00    -0.321 OA
BRANCH  28  29
HETATM   29  C15 UNL     1     -29.042  18.286 -15.891  1.00  0.00     0.182 C
BRANCH  29  30
HETATM   30  C16 UNL     1     -30.300  18.557 -15.143  1.00  0.00     0.002 C
HETATM   31  C17 UNL     1     -31.147  17.310 -14.964  1.00  0.00     0.011 C
HETATM   32  C18 UNL     1     -31.112  19.540 -15.962  1.00  0.00     0.011 C
ENDBRANCH  29  30
ENDBRANCH  28  29
ENDBRANCH  26  28
ENDBRANCH  24  26
ENDBRANCH   1  24
TORSDOF 18
ENDMDL