MODEL 4
REMARK VINA RESULT: -5.922838124      0.946      1.304
REMARK  13 active torsions:
REMARK  status: ('A' for Active; 'I' for Inactive)
REMARK    1  A    between atoms: C2_2  and  O1_3
REMARK    2  A    between atoms: O1_3  and  C3_4
REMARK    3  A    between atoms: C3_4  and  C4_5
REMARK    4  A    between atoms: C4_5  and  O2_6
REMARK    5  A    between atoms: O2_6  and  C5_7
REMARK    6  A    between atoms: C5_7  and  C6_8
REMARK    7  A    between atoms: C6_8  and  O3_9
REMARK    8  A    between atoms: O3_9  and  C7_10
REMARK    9  A    between atoms: C7_10  and  C8_11
REMARK       I    between atoms: C8_11  and  N1_13
REMARK   10  A    between atoms: N1_13  and  C9_15
REMARK   11  A    between atoms: C12_18  and  N2_19
REMARK   12  A    between atoms: N2_19  and  N3_21
REMARK   13  A    between atoms: C17_29  and  C18_30
ROOT
HETATM    1  N3  UNL     1     -26.901  14.629 -18.011  1.00  0.00    -0.282 N
ATOM      2  H3  UNL     1     -26.093  15.242 -17.906  1.00  0.00     0.188 HD
HETATM    3  C13 UNL     1     -27.228  14.196 -19.199  1.00  0.00     0.209 C
HETATM    4  C14 UNL     1     -26.479  14.561 -20.361  1.00  0.00     0.130 C
HETATM    5  N4  UNL     1     -25.862  14.855 -21.313  1.00  0.00    -0.189 NA
HETATM    6  C15 UNL     1     -28.367  13.337 -19.325  1.00  0.00     0.130 C
HETATM    7  N5  UNL     1     -29.304  12.644 -19.441  1.00  0.00    -0.189 NA
ENDROOT
BRANCH   1   8
HETATM    8  N2  UNL     1     -27.635  14.269 -16.888  1.00  0.00    -0.299 N
ATOM      9  H2  UNL     1     -28.587  14.623 -16.785  1.00  0.00     0.187 HD
BRANCH   8  10
HETATM   10  C12 UNL     1     -27.100  13.416 -15.870  1.00  0.00     0.049 A
HETATM   11  C11 UNL     1     -27.903  12.573 -15.144  1.00  0.00     0.033 A
HETATM   12  C10 UNL     1     -27.352  11.745 -14.151  1.00  0.00     0.033 A
HETATM   13  C9  UNL     1     -26.004  11.758 -13.881  1.00  0.00     0.050 A
HETATM   14  C17 UNL     1     -25.204  12.616 -14.623  1.00  0.00     0.058 A
HETATM   15  C16 UNL     1     -25.758  13.442 -15.617  1.00  0.00     0.050 A
BRANCH  13  16
HETATM   16  N1  UNL     1     -25.436  10.862 -12.955  1.00  0.00    -0.324 N
HETATM   17  C8  UNL     1     -24.954   9.589 -13.275  1.00  0.00     0.245 C
HETATM   18  O4  UNL     1     -24.969   9.087 -14.388  1.00  0.00    -0.271 OA
ATOM     19  H1  UNL     1     -25.373  11.163 -11.982  1.00  0.00     0.169 HD
BRANCH  17  20
HETATM   20  C7  UNL     1     -24.358   8.742 -12.174  1.00  0.00     0.270 C
BRANCH  20  21
HETATM   21  O3  UNL     1     -24.759   7.446 -12.408  1.00  0.00    -0.380 OA
BRANCH  21  22
HETATM   22  C6  UNL     1     -24.912   6.661 -11.300  1.00  0.00     0.194 C
BRANCH  22  23
HETATM   23  C5  UNL     1     -26.069   7.084 -10.459  1.00  0.00     0.193 C
BRANCH  23  24
HETATM   24  O2  UNL     1     -27.252   6.970 -11.056  1.00  0.00    -0.387 OA
BRANCH  24  25
HETATM   25  C4  UNL     1     -28.134   7.952 -11.264  1.00  0.00     0.193 C
BRANCH  25  26
HETATM   26  C3  UNL     1     -29.230   7.365 -12.182  1.00  0.00     0.193 C
BRANCH  26  27
HETATM   27  O1  UNL     1     -30.474   7.392 -11.645  1.00  0.00    -0.389 OA
BRANCH  27  28
HETATM   28  C2  UNL     1     -30.973   8.632 -11.343  1.00  0.00     0.163 C
HETATM   29  C1  UNL     1     -32.477   8.447 -11.087  1.00  0.00     0.033 C
ENDBRANCH  27  28
ENDBRANCH  26  27
ENDBRANCH  25  26
ENDBRANCH  24  25
ENDBRANCH  23  24
ENDBRANCH  22  23
ENDBRANCH  21  22
ENDBRANCH  20  21
ENDBRANCH  17  20
ENDBRANCH  13  16
BRANCH  14  30
HETATM   30  C18 UNL     1     -23.779  12.786 -14.397  1.00  0.00     0.267 C
HETATM   31  N6  UNL     1     -23.272  14.118 -14.142  1.00  0.00    -0.057 NA
HETATM   32  O5  UNL     1     -22.919  11.888 -14.400  1.00  0.00    -0.271 OA
ENDBRANCH  14  30
ENDBRANCH   8  10
ENDBRANCH   1   8
TORSDOF 13
ENDMDL