MODEL 4
REMARK VINA RESULT: -7.108077644      1.607      2.134
REMARK  15 active torsions:
REMARK  status: ('A' for Active; 'I' for Inactive)
REMARK    1  A    between atoms: N1_1  and  N2_4
REMARK    2  A    between atoms: N2_4  and  C1_5
REMARK    3  A    between atoms: N2_4  and  C9_20
REMARK    4  A    between atoms: C1_5  and  C2_6
REMARK       I    between atoms: C2_6  and  N3_8
REMARK    5  A    between atoms: N3_8  and  C3_10
REMARK    6  A    between atoms: C3_10  and  C4_11
REMARK    7  A    between atoms: C4_11  and  O2_12
REMARK    8  A    between atoms: O2_12  and  N4_13
REMARK    9  A    between atoms: N4_13  and  C5_15
REMARK   10  A    between atoms: C9_20  and  C10_21
REMARK   11  A    between atoms: C10_21  and  O4_22
REMARK   12  A    between atoms: C10_21  and  C11_24
REMARK   13  A    between atoms: C11_24  and  O5_25
REMARK   14  A    between atoms: O5_25  and  C12_26
REMARK   15  A    between atoms: C15_29  and  N5_30
ROOT
HETATM    1  N2  UNL     1     -26.504  12.733 -15.572  1.00  0.00    -0.227 NA
ENDROOT
BRANCH   1   2
HETATM    2  N1  UNL     1     -26.485  12.572 -16.895  1.00  0.00    -0.363 NA
ATOM      3  H12 UNL     1     -26.609  13.389 -17.493  1.00  0.00     0.171 HD
ATOM      4  H11 UNL     1     -27.083  11.810 -17.211  1.00  0.00     0.171 HD
ENDBRANCH   1   2
BRANCH   1   5
HETATM    5  C1  UNL     1     -27.360  13.833 -15.147  1.00  0.00     0.215 C
BRANCH   5   6
HETATM    6  C2  UNL     1     -28.130  14.321 -16.294  1.00  0.00     0.232 C
HETATM    7  O1  UNL     1     -27.598  15.322 -16.902  1.00  0.00    -0.272 OA
HETATM    8  N3  UNL     1     -29.333  13.741 -16.680  1.00  0.00    -0.358 N
ATOM      9  H3  UNL     1     -29.695  12.962 -16.129  1.00  0.00     0.162 HD
BRANCH   8  10
HETATM   10  C3  UNL     1     -30.053  14.164 -17.760  1.00  0.00     0.151 C
BRANCH  10  11
HETATM   11  C4  UNL     1     -30.372  12.893 -18.716  1.00  0.00     0.220 C
BRANCH  11  12
HETATM   12  O2  UNL     1     -29.278  12.914 -19.429  1.00  0.00    -0.277 OA
BRANCH  12  13
HETATM   13  N4  UNL     1     -28.211  12.154 -19.444  1.00  0.00    -0.245 N
ATOM     14  H4  UNL     1     -28.021  11.305 -18.912  1.00  0.00     0.196 HD
BRANCH  13  15
HETATM   15  C5  UNL     1     -27.337  12.859 -20.448  1.00  0.00     0.166 A
HETATM   16  C6  UNL     1     -26.047  12.528 -20.553  1.00  0.00     0.060 A
HETATM   17  C7  UNL     1     -25.528  13.361 -21.512  1.00  0.00     0.029 A
HETATM   18  C8  UNL     1     -26.574  14.156 -21.930  1.00  0.00     0.144 A
HETATM   19  O3  UNL     1     -27.669  13.788 -21.234  1.00  0.00    -0.304 OA
ENDBRANCH  13  15
ENDBRANCH  12  13
ENDBRANCH  11  12
ENDBRANCH  10  11
ENDBRANCH   8  10
ENDBRANCH   5   6
ENDBRANCH   1   5
BRANCH   1  20
HETATM   20  C9  UNL     1     -25.280  12.768 -14.870  1.00  0.00     0.147 C
BRANCH  20  21
HETATM   21  C10 UNL     1     -24.458  11.543 -14.794  1.00  0.00     0.157 C
BRANCH  21  22
HETATM   22  O4  UNL     1     -24.948  10.519 -15.641  1.00  0.00    -0.392 OA
ATOM     23  H4  UNL     1     -24.274   9.890 -15.867  1.00  0.00     0.210 HD
ENDBRANCH  21  22
BRANCH  21  24
HETATM   24  C11 UNL     1     -24.451  10.937 -13.407  1.00  0.00     0.208 C
BRANCH  24  25
HETATM   25  O5  UNL     1     -24.073   9.553 -13.405  1.00  0.00    -0.349 OA
BRANCH  25  26
HETATM   26  C12 UNL     1     -24.673   8.710 -12.465  1.00  0.00     0.069 A
HETATM   27  C13 UNL     1     -26.048   8.565 -12.414  1.00  0.00     0.039 A
HETATM   28  C14 UNL     1     -26.636   7.720 -11.471  1.00  0.00     0.039 A
HETATM   29  C15 UNL     1     -25.910   7.000 -10.560  1.00  0.00     0.103 A
HETATM   30  C16 UNL     1     -24.552   7.153 -10.624  1.00  0.00     0.039 A
HETATM   31  C17 UNL     1     -23.941   7.988 -11.550  1.00  0.00     0.039 A
BRANCH  29  32
HETATM   32  N5  UNL     1     -26.497   6.100  -9.604  1.00  0.00    -0.116 N
HETATM   33  O6  UNL     1     -26.287   4.881  -9.568  1.00  0.00    -0.532 OA
HETATM   34  O7  UNL     1     -27.316   6.635  -8.629  1.00  0.00    -0.532 OA
ENDBRANCH  29  32
ENDBRANCH  25  26
ENDBRANCH  24  25
ENDBRANCH  21  24
ENDBRANCH  20  21
ENDBRANCH   1  20
TORSDOF 15
ENDMDL