MODEL 1
REMARK VINA RESULT: -6.499599395      0.000      0.000
REMARK  15 active torsions:
REMARK  status: ('A' for Active; 'I' for Inactive)
REMARK    1  A    between atoms: C2_2  and  O1_3
REMARK    2  A    between atoms: O1_3  and  C3_4
REMARK    3  A    between atoms: C3_4  and  C4_5
REMARK    4  A    between atoms: C4_5  and  O2_6
REMARK    5  A    between atoms: O2_6  and  C5_7
REMARK    6  A    between atoms: C5_7  and  O3_8
REMARK    7  A    between atoms: C5_7  and  N1_10
REMARK    8  A    between atoms: N1_10  and  C6_12
REMARK    9  A    between atoms: C6_12  and  C7_13
REMARK   10  A    between atoms: C6_12  and  C9_15
REMARK   11  A    between atoms: C9_15  and  C10_16
REMARK   12  A    between atoms: C10_16  and  C11_18
REMARK   13  A    between atoms: C13_22  and  C14_23
REMARK       I    between atoms: C14_23  and  N3_25
REMARK   14  A    between atoms: N3_25  and  C15_27
REMARK   15  A    between atoms: C15_27  and  C17_29
ROOT
HETATM    1  C10 UNL     1     -30.326  12.415 -15.198  1.00  0.00     0.186 C
HETATM    2  O4  UNL     1     -30.655  13.424 -14.546  1.00  0.00    -0.290 OA
ENDROOT
BRANCH   1   3
HETATM    3  C9  UNL     1     -30.205  12.270 -16.617  1.00  0.00     0.111 C
BRANCH   3   4
HETATM    4  C6  UNL     1     -29.105  13.064 -17.322  1.00  0.00     0.088 C
BRANCH   4   5
HETATM    5  N1  UNL     1     -28.626  12.230 -18.348  1.00  0.00    -0.371 N
ATOM      6  H1  UNL     1     -28.795  11.232 -18.224  1.00  0.00     0.158 HD
BRANCH   5   7
HETATM    7  C5  UNL     1     -27.965  12.580 -19.487  1.00  0.00     0.363 C
BRANCH   7   8
HETATM    8  O2  UNL     1     -27.012  11.650 -19.941  1.00  0.00    -0.342 OA
BRANCH   8   9
HETATM    9  C4  UNL     1     -25.792  12.146 -20.207  1.00  0.00     0.199 C
BRANCH   9  10
HETATM   10  C3  UNL     1     -25.461  12.445 -21.636  1.00  0.00     0.193 C
BRANCH  10  11
HETATM   11  O1  UNL     1     -26.095  13.519 -22.160  1.00  0.00    -0.389 OA
BRANCH  11  12
HETATM   12  C2  UNL     1     -25.964  14.733 -21.568  1.00  0.00     0.163 C
HETATM   13  C1  UNL     1     -27.238  15.575 -21.594  1.00  0.00     0.033 C
ENDBRANCH  11  12
ENDBRANCH  10  11
ENDBRANCH   9  10
ENDBRANCH   8   9
ENDBRANCH   7   8
BRANCH   7  14
HETATM   14  O3  UNL     1     -28.800  12.680 -20.650  1.00  0.00    -0.355 OA
ATOM     15  H3  UNL     1     -28.412  13.437 -21.071  1.00  0.00     0.214 HD
ENDBRANCH   7  14
ENDBRANCH   5   7
ENDBRANCH   4   5
BRANCH   4  16
HETATM   16  C7  UNL     1     -29.577  14.394 -17.765  1.00  0.00     0.021 C
HETATM   17  C8  UNL     1     -28.801  15.601 -17.413  1.00  0.00     0.007 C
ENDBRANCH   4  16
ENDBRANCH   3   4
ENDBRANCH   1   3
BRANCH   1  18
HETATM   18  C11 UNL     1     -30.026  11.225 -14.365  1.00  0.00     0.139 A
HETATM   19  C12 UNL     1     -30.810  10.725 -13.324  1.00  0.00     0.131 A
HETATM   20  N2  UNL     1     -30.189   9.644 -12.835  1.00  0.00    -0.339 N
HETATM   21  C13 UNL     1     -29.063   9.483 -13.546  1.00  0.00     0.217 A
ATOM     22  H2  UNL     1     -30.512   9.055 -12.066  1.00  0.00     0.167 HD
HETATM   23  O7  UNL     1     -28.997  10.432 -14.441  1.00  0.00    -0.284 OA
BRANCH  21  24
HETATM   24  C14 UNL     1     -28.088   8.420 -13.344  1.00  0.00     0.293 C
HETATM   25  O5  UNL     1     -28.363   7.218 -13.629  1.00  0.00    -0.264 OA
HETATM   26  N3  UNL     1     -26.789   8.670 -12.820  1.00  0.00    -0.342 N
ATOM     27  H3  UNL     1     -26.534   9.626 -12.576  1.00  0.00     0.163 HD
BRANCH  26  28
HETATM   28  C15 UNL     1     -25.825   7.630 -12.624  1.00  0.00     0.170 C
HETATM   29  C16 UNL     1     -25.587   7.303 -11.152  1.00  0.00     0.042 C
BRANCH  28  30
HETATM   30  C17 UNL     1     -24.539   7.957 -13.274  1.00  0.00     0.253 C
HETATM   31  N4  UNL     1     -24.029   9.294 -13.204  1.00  0.00    -0.060 NA
HETATM   32  O6  UNL     1     -23.862   7.096 -13.894  1.00  0.00    -0.275 OA
ENDBRANCH  28  30
ENDBRANCH  26  28
ENDBRANCH  21  24
ENDBRANCH   1  18
TORSDOF 15
ENDMDL