MODEL 2
REMARK VINA RESULT: -8.348707067      6.165     13.847
REMARK  10 active torsions:
REMARK  status: ('A' for Active; 'I' for Inactive)
REMARK    1  A    between atoms: C6_6  and  O1_7
REMARK    2  A    between atoms: C16_20  and  O4_21
REMARK    3  A    between atoms: O4_21  and  C17_22
REMARK    4  A    between atoms: C18_24  and  C19_25
REMARK    5  A    between atoms: C19_25  and  O6_26
REMARK    6  A    between atoms: C20_28  and  O7_29
REMARK    7  A    between atoms: C21_31  and  O8_32
REMARK    8  A    between atoms: N1_35  and  O9_37
REMARK    9  A    between atoms: C23_39  and  C24_40
REMARK   10  A    between atoms: C24_40  and  O10_41
ROOT
HETATM    1  C1  UNL     1      -8.512  -8.730   7.427  1.00  0.00     0.013 C
HETATM    2  C2  UNL     1      -8.967  -7.651   8.414  1.00  0.00     0.019 C
HETATM    3  C3  UNL     1      -9.631  -8.363   9.552  1.00  0.00     0.007 C
HETATM    4  C4  UNL     1     -10.351  -7.369  10.383  1.00  0.00     0.004 C
HETATM    5  C5  UNL     1     -10.083  -5.920   9.912  1.00  0.00     0.044 C
HETATM    6  C6  UNL     1     -10.679  -5.798   8.571  1.00  0.00     0.123 C
HETATM    7  C7  UNL     1     -10.022  -6.851   7.681  1.00  0.00     0.095 C
HETATM    8  C8  UNL     1     -11.043  -7.780   7.044  1.00  0.00     0.050 C
HETATM    9  O2  UNL     1      -9.392  -6.191   6.655  1.00  0.00    -0.368 OA
HETATM   10  C9  UNL     1      -9.751  -4.885   6.643  1.00  0.00     0.161 C
HETATM   11  C10 UNL     1      -8.743  -4.082   7.504  1.00  0.00     0.043 C
HETATM   12  C11 UNL     1      -9.933  -3.369   7.932  1.00  0.00     0.029 C
HETATM   13  C12 UNL     1     -10.222  -2.731   9.193  1.00  0.00     0.020 C
HETATM   14  C13 UNL     1     -11.709  -2.748   9.405  1.00  0.00     0.051 C
HETATM   15  C14 UNL     1     -12.423  -1.457   9.218  1.00  0.00    -0.020 C
HETATM   16  C15 UNL     1     -12.673  -0.295   9.774  1.00  0.00     0.144 C
HETATM   17  O3  UNL     1     -13.455   0.737   9.242  1.00  0.00    -0.329 OA
HETATM   18  C16 UNL     1     -14.603   0.517   8.384  1.00  0.00     0.299 C
HETATM   19  C23 UNL     1     -14.217  -0.293   7.203  1.00  0.00     0.201 C
HETATM   20  O11 UNL     1     -14.230  -1.641   7.656  1.00  0.00    -0.366 OA
HETATM   21  C25 UNL     1     -12.889  -1.935   7.891  1.00  0.00     0.183 C
HETATM   22  C26 UNL     1     -12.551  -3.319   8.339  1.00  0.00     0.164 C
HETATM   23  O12 UNL     1     -11.992  -4.181   7.447  1.00  0.00    -0.365 OA
HETATM   24  C27 UNL     1     -10.718  -4.627   7.780  1.00  0.00     0.125 C
ENDROOT
BRANCH  18  25
HETATM   25  O4  UNL     1     -15.082   1.765   8.077  1.00  0.00    -0.323 OA
BRANCH  25  26
HETATM   26  C17 UNL     1     -16.050   2.128   9.004  1.00  0.00     0.315 C
HETATM   27  O5  UNL     1     -17.279   1.645   8.587  1.00  0.00    -0.345 OA
HETATM   28  C18 UNL     1     -17.773   2.520   7.620  1.00  0.00     0.180 C
HETATM   29  C20 UNL     1     -18.495   3.636   8.376  1.00  0.00     0.183 C
HETATM   30  C21 UNL     1     -17.389   4.369   9.142  1.00  0.00     0.202 C
HETATM   31  C22 UNL     1     -16.112   3.625   9.058  1.00  0.00     0.095 C
HETATM   32  N1  UNL     1     -14.985   4.251   9.027  1.00  0.00    -0.270 N
ATOM     33  H1  UNL     1     -14.109   3.732   8.969  1.00  0.00     0.193 HD
BRANCH  28  34
HETATM   34  C19 UNL     1     -18.711   1.829   6.656  1.00  0.00     0.198 C
BRANCH  34  35
HETATM   35  O6  UNL     1     -18.808   0.497   7.051  1.00  0.00    -0.398 OA
ATOM     36  H6  UNL     1     -19.029  -0.013   6.280  1.00  0.00     0.209 HD
ENDBRANCH  34  35
ENDBRANCH  28  34
BRANCH  29  37
HETATM   37  O7  UNL     1     -19.120   4.509   7.511  1.00  0.00    -0.390 OA
ATOM     38  H7  UNL     1     -19.365   5.316   7.948  1.00  0.00     0.210 HD
ENDBRANCH  29  37
BRANCH  30  39
HETATM   39  O8  UNL     1     -17.759   4.477  10.481  1.00  0.00    -0.387 OA
ATOM     40  H8  UNL     1     -17.597   3.647  10.913  1.00  0.00     0.210 HD
ENDBRANCH  30  39
BRANCH  32  41
HETATM   41  O9  UNL     1     -14.975   5.631   9.074  1.00  0.00    -0.290 OA
ATOM     42  H9  UNL     1     -15.644   6.117   8.606  1.00  0.00     0.244 HD
ENDBRANCH  32  41
ENDBRANCH  25  26
ENDBRANCH  18  25
BRANCH  19  43
HETATM   43  C24 UNL     1     -15.092  -0.068   6.030  1.00  0.00     0.201 C
BRANCH  43  44
HETATM   44  O10 UNL     1     -16.390  -0.467   6.330  1.00  0.00    -0.398 OA
ATOM     45  H10 UNL     1     -16.803  -0.823   5.552  1.00  0.00     0.209 HD
ENDBRANCH  43  44
ENDBRANCH  19  43
BRANCH   6  46
HETATM   46  O1  UNL     1     -12.008  -6.292   8.754  1.00  0.00    -0.383 OA
ATOM     47  H1  UNL     1     -12.545  -5.646   8.311  1.00  0.00     0.210 HD
ENDBRANCH   6  46
TORSDOF 10
ENDMDL