MODEL 2
REMARK VINA RESULT: -6.199617321      3.167      8.142
REMARK  3 active torsions:
REMARK  status: ('A' for Active; 'I' for Inactive)
REMARK    1  A    between atoms: N6_19  and  C10_20
REMARK    2  A    between atoms: C10_20  and  C11_21
REMARK    3  A    between atoms: C11_21  and  O1_22
ROOT
HETATM    1  C1  UNL     1      -3.459 -14.620   8.303  1.00  0.00     0.143 C
HETATM    2  N1  UNL     1      -4.103 -13.382   8.631  1.00  0.00    -0.415 N
HETATM    3  C2  UNL     1      -4.667 -12.675   7.532  1.00  0.00     0.136 C
HETATM    4  C3  UNL     1      -4.232 -11.203   7.493  1.00  0.00     0.141 C
HETATM    5  N2  UNL     1      -3.070 -11.105   6.659  1.00  0.00    -0.363 N
ATOM      6  H2  UNL     1      -2.242 -11.612   6.972  1.00  0.00     0.162 HD
HETATM    7  C4  UNL     1      -2.958 -10.449   5.560  1.00  0.00     0.184 C
HETATM    8  N3  UNL     1      -1.638 -10.553   4.953  1.00  0.00    -0.064 NA
HETATM    9  N4  UNL     1      -3.975  -9.682   4.944  1.00  0.00    -0.363 N
ATOM     10  H4  UNL     1      -3.768  -8.695   4.786  1.00  0.00     0.162 HD
HETATM   11  C5  UNL     1      -5.265 -10.143   4.518  1.00  0.00     0.150 C
HETATM   12  C6  UNL     1      -6.377  -9.172   4.738  1.00  0.00     0.251 C
HETATM   13  N5  UNL     1      -5.921  -7.833   5.040  1.00  0.00    -0.074 N
ATOM     14  H51 UNL     1      -5.039  -7.635   4.568  1.00  0.00     0.277 HD
ATOM     15  H52 UNL     1      -5.612  -7.764   6.010  1.00  0.00     0.277 HD
HETATM   16  C7  UNL     1      -6.903  -6.815   4.740  1.00  0.00     0.234 C
HETATM   17  C8  UNL     1      -8.319  -7.242   4.943  1.00  0.00     0.057 C
HETATM   18  C9  UNL     1      -8.952  -6.434   6.057  1.00  0.00     0.274 C
HETATM   19  N6  UNL     1     -10.347  -6.154   5.778  1.00  0.00     0.092 N
HETATM   20  C12 UNL     1     -11.112  -6.441   6.948  1.00  0.00     0.298 C
HETATM   21  C13 UNL     1     -10.920  -5.498   8.084  1.00  0.00     0.198 C
HETATM   22  O2  UNL     1     -10.608  -6.223   9.242  1.00  0.00    -0.388 OA
HETATM   23  C14 UNL     1     -11.634  -7.101   9.540  1.00  0.00     0.195 C
HETATM   24  C15 UNL     1     -12.476  -6.592  10.687  1.00  0.00     0.258 C
HETATM   25  N7  UNL     1     -12.971  -7.700  11.452  1.00  0.00    -0.073 N
ATOM     26  H71 UNL     1     -12.610  -8.590  11.108  1.00  0.00     0.277 HD
ATOM     27  H72 UNL     1     -13.964  -7.863  11.283  1.00  0.00     0.277 HD
HETATM   28  C16 UNL     1     -12.689  -7.513  12.858  1.00  0.00     0.234 C
HETATM   29  C17 UNL     1     -11.979  -8.731  13.416  1.00  0.00     0.047 C
HETATM   30  C18 UNL     1     -10.593  -8.808  12.795  1.00  0.00     0.121 C
HETATM   31  N8  UNL     1      -9.642  -9.191  13.891  1.00  0.00    -0.390 N
ATOM     32  H8  UNL     1      -9.614  -8.677  14.771  1.00  0.00     0.159 HD
HETATM   33  C19 UNL     1      -8.779 -10.301  13.652  1.00  0.00     0.027 A
HETATM   34  C20 UNL     1      -7.530 -10.186  13.083  1.00  0.00     0.029 A
HETATM   35  C21 UNL     1      -6.662 -11.299  12.836  1.00  0.00     0.011 A
HETATM   36  C22 UNL     1      -7.011 -12.591  13.151  1.00  0.00    -0.040 A
HETATM   37  C23 UNL     1      -8.252 -12.728  13.717  1.00  0.00     0.011 A
HETATM   38  C24 UNL     1      -9.110 -11.601  13.959  1.00  0.00     0.029 A
HETATM   39  C25 UNL     1      -6.137 -13.769  12.913  1.00  0.00     0.161 C
HETATM   40  N9  UNL     1      -6.595 -14.734  11.922  1.00  0.00    -0.357 N
ATOM     41  H9  UNL     1      -6.583 -15.717  12.195  1.00  0.00     0.162 HD
HETATM   42  C26 UNL     1      -7.047 -14.440  10.638  1.00  0.00     0.219 C
HETATM   43  O3  UNL     1      -8.181 -14.907  10.250  1.00  0.00    -0.274 OA
HETATM   44  C27 UNL     1      -6.359 -13.617   9.605  1.00  0.00     0.122 C
HETATM   45  C28 UNL     1      -4.894 -13.452   9.819  1.00  0.00     0.125 C
ENDROOT
BRANCH  19  46
HETATM   46  C10 UNL     1     -10.530  -4.809   5.278  1.00  0.00     0.298 C
BRANCH  46  47
HETATM   47  C11 UNL     1     -10.134  -4.708   3.814  1.00  0.00     0.194 C
BRANCH  47  48
HETATM   48  O1  UNL     1     -10.771  -5.684   3.051  1.00  0.00    -0.399 OA
ATOM     49  H1  UNL     1     -10.217  -6.447   2.934  1.00  0.00     0.209 HD
ENDBRANCH  47  48
ENDBRANCH  46  47
ENDBRANCH  19  46
TORSDOF 3
ENDMDL