MODEL 2
REMARK VINA RESULT: -7.346769421      5.809      8.897
REMARK  9 active torsions:
REMARK  status: ('A' for Active; 'I' for Inactive)
REMARK    1  A    between atoms: N1_5  and  O1_7
REMARK    2  A    between atoms: C6_10  and  O2_11
REMARK    3  A    between atoms: C14_22  and  O5_23
REMARK    4  A    between atoms: C15_25  and  O6_26
REMARK    5  A    between atoms: O6_26  and  C16_27
REMARK    6  A    between atoms: C19_31  and  O8_32
REMARK    7  A    between atoms: C20_34  and  O9_35
REMARK    8  A    between atoms: C21_37  and  O10_38
REMARK    9  A    between atoms: C23_41  and  O11_42
ROOT
HETATM    1  C1  UNL     1      -7.071  -7.297   4.084  1.00  0.00     0.036 C
HETATM    2  C2  UNL     1      -7.304  -6.901   5.506  1.00  0.00    -0.021 C
HETATM    3  C3  UNL     1      -8.424  -6.275   5.827  1.00  0.00    -0.026 C
HETATM    4  C4  UNL     1      -9.510  -5.912   4.899  1.00  0.00     0.041 C
HETATM    5  N1  UNL     1      -9.473  -5.877   3.614  1.00  0.00    -0.273 N
ATOM      6  H1  UNL     1      -8.616  -6.120   3.118  1.00  0.00     0.194 HD
HETATM    7  C5  UNL     1     -10.724  -5.573   5.731  1.00  0.00     0.101 C
HETATM    8  C6  UNL     1     -10.370  -6.240   6.984  1.00  0.00     0.104 C
HETATM    9  C7  UNL     1     -10.901  -5.821   8.265  1.00  0.00     0.200 C
HETATM   10  O3  UNL     1     -11.953  -6.695   8.634  1.00  0.00    -0.232 OA
HETATM   11  O4  UNL     1     -12.323  -6.548   9.864  1.00  0.00    -0.232 OA
HETATM   12  C8  UNL     1     -11.430  -7.130  10.784  1.00  0.00     0.200 C
HETATM   13  C9  UNL     1     -10.149  -7.375   9.968  1.00  0.00     0.027 C
HETATM   14  C10 UNL     1      -9.065  -7.989  10.787  1.00  0.00     0.009 C
HETATM   15  C11 UNL     1      -9.574  -9.379  11.207  1.00  0.00     0.015 C
HETATM   16  C12 UNL     1     -10.795  -9.143  12.023  1.00  0.00     0.018 C
HETATM   17  C13 UNL     1     -10.413  -8.393  13.261  1.00  0.00     0.021 C
HETATM   18  C14 UNL     1     -11.509 -10.404  12.459  1.00  0.00     0.158 C
HETATM   19  C15 UNL     1     -12.974 -10.039  12.488  1.00  0.00     0.157 C
HETATM   20  C22 UNL     1     -13.046  -8.551  12.106  1.00  0.00     0.076 C
HETATM   21  C23 UNL     1     -11.866  -8.471  11.208  1.00  0.00     0.099 C
HETATM   22  C24 UNL     1      -9.748  -6.127   9.239  1.00  0.00     0.028 C
HETATM   23  C25 UNL     1      -8.553  -6.503   8.345  1.00  0.00     0.025 C
HETATM   24  C26 UNL     1      -8.895  -5.787   7.112  1.00  0.00     0.019 C
HETATM   25  C27 UNL     1      -8.800  -4.293   7.191  1.00  0.00     0.024 C
ENDROOT
BRANCH  19  26
HETATM   26  O6  UNL     1     -13.636 -10.322  13.637  1.00  0.00    -0.351 OA
BRANCH  26  27
HETATM   27  C16 UNL     1     -15.023 -10.293  13.530  1.00  0.00     0.292 C
HETATM   28  O7  UNL     1     -15.481  -9.130  14.055  1.00  0.00    -0.351 OA
HETATM   29  C17 UNL     1     -15.442  -8.916  15.386  1.00  0.00     0.152 C
HETATM   30  C18 UNL     1     -14.037  -8.432  15.759  1.00  0.00     0.042 C
HETATM   31  C19 UNL     1     -15.936 -10.022  16.238  1.00  0.00     0.178 C
HETATM   32  C20 UNL     1     -15.457 -11.350  15.786  1.00  0.00     0.183 C
HETATM   33  C21 UNL     1     -15.582 -11.464  14.290  1.00  0.00     0.204 C
BRANCH  31  34
HETATM   34  O8  UNL     1     -15.492  -9.813  17.559  1.00  0.00    -0.390 OA
ATOM     35  H8  UNL     1     -16.136  -9.289  18.021  1.00  0.00     0.210 HD
ENDBRANCH  31  34
BRANCH  32  36
HETATM   36  O9  UNL     1     -14.111 -11.508  16.122  1.00  0.00    -0.390 OA
ATOM     37  H9  UNL     1     -13.717 -12.173  15.570  1.00  0.00     0.210 HD
ENDBRANCH  32  36
BRANCH  33  38
HETATM   38  O10 UNL     1     -16.925 -11.693  13.985  1.00  0.00    -0.388 OA
ATOM     39  H10 UNL     1     -17.079 -11.706  13.048  1.00  0.00     0.210 HD
ENDBRANCH  33  38
ENDBRANCH  26  27
ENDBRANCH  19  26
BRANCH  18  40
HETATM   40  O5  UNL     1     -11.129 -10.804  13.731  1.00  0.00    -0.392 OA
ATOM     41  H5  UNL     1     -11.676 -11.507  14.063  1.00  0.00     0.210 HD
ENDBRANCH  18  40
BRANCH  21  42
HETATM   42  O11 UNL     1     -12.109  -9.246  10.084  1.00  0.00    -0.386 OA
ATOM     43  H11 UNL     1     -12.961  -9.658  10.168  1.00  0.00     0.210 HD
ENDBRANCH  21  42
BRANCH   8  44
HETATM   44  O2  UNL     1     -10.359  -7.616   6.789  1.00  0.00    -0.386 OA
ATOM     45  H2  UNL     1      -9.552  -7.979   7.136  1.00  0.00     0.210 HD
ENDBRANCH   8  44
BRANCH   5  46
HETATM   46  O1  UNL     1     -10.588  -5.514   2.922  1.00  0.00    -0.290 OA
ATOM     47  H1  UNL     1     -10.773  -5.924   2.086  1.00  0.00     0.244 HD
ENDBRANCH   5  46
TORSDOF 9
ENDMDL