MODEL 4
REMARK VINA RESULT: -7.290006154      4.968      8.041
REMARK  9 active torsions:
REMARK  status: ('A' for Active; 'I' for Inactive)
REMARK    1  A    between atoms: O1_2  and  C2_3
REMARK    2  A    between atoms: C4_7  and  O3_8
REMARK    3  A    between atoms: O3_8  and  C5_9
REMARK    4  A    between atoms: C11_15  and  O4_16
REMARK    5  A    between atoms: C13_19  and  O5_20
REMARK    6  A    between atoms: C14_22  and  O6_23
REMARK    7  A    between atoms: C24_35  and  O8_36
REMARK    8  A    between atoms: C25_39  and  O10_40
REMARK    9  A    between atoms: C27_43  and  O11_44
ROOT
HETATM    1  C2  UNL     1     -11.858 -10.250  13.896  1.00  0.00     0.286 C
HETATM    2  C3  UNL     1     -10.953 -11.393  13.623  1.00  0.00     0.131 C
HETATM    3  N1  UNL     1     -10.262 -12.295  13.403  1.00  0.00    -0.191 NA
HETATM    4  O2  UNL     1     -12.280  -9.781  12.672  1.00  0.00    -0.308 OA
HETATM    5  C4  UNL     1     -13.065  -8.646  12.761  1.00  0.00     0.296 C
HETATM    6  C25 UNL     1     -12.245  -7.535  13.394  1.00  0.00     0.176 C
HETATM    7  C26 UNL     1     -10.842  -8.038  13.734  1.00  0.00     0.075 C
HETATM    8  C27 UNL     1     -11.028  -9.228  14.662  1.00  0.00     0.199 C
ENDROOT
BRANCH   1   9
HETATM    9  O1  UNL     1     -12.883 -10.644  14.727  1.00  0.00    -0.346 OA
HETATM   10  C1  UNL     1     -13.493 -11.819  14.328  1.00  0.00     0.206 C
ENDBRANCH   1   9
BRANCH   8  11
HETATM   11  O11 UNL     1     -11.701  -8.752  15.786  1.00  0.00    -0.389 OA
ATOM     12  H11 UNL     1     -11.235  -8.034  16.199  1.00  0.00     0.210 HD
ENDBRANCH   8  11
BRANCH   5  13
HETATM   13  O3  UNL     1     -13.408  -8.231  11.492  1.00  0.00    -0.329 OA
BRANCH  13  14
HETATM   14  C5  UNL     1     -12.679  -8.846  10.485  1.00  0.00     0.264 C
HETATM   15  C6  UNL     1     -13.559  -9.350   9.363  1.00  0.00     0.064 C
HETATM   16  C7  UNL     1     -12.609  -9.241   8.179  1.00  0.00     0.043 C
HETATM   17  C8  UNL     1     -11.431  -8.402   8.692  1.00  0.00     0.073 C
HETATM   18  C9  UNL     1     -10.225  -9.338   8.925  1.00  0.00     0.042 C
HETATM   19  C12 UNL     1     -10.871  -7.501   7.718  1.00  0.00     0.087 C
HETATM   20  O9  UNL     1     -11.921  -7.888   9.857  1.00  0.00    -0.350 OA
HETATM   21  C10 UNL     1      -9.010  -8.571   8.351  1.00  0.00     0.042 C
HETATM   22  C11 UNL     1      -9.507  -7.203   8.398  1.00  0.00     0.074 C
HETATM   23  C15 UNL     1      -8.998  -6.089   7.680  1.00  0.00     0.067 C
HETATM   24  C14 UNL     1     -10.086  -5.697   6.668  1.00  0.00     0.147 C
HETATM   25  C16 UNL     1      -7.668  -6.095   7.030  1.00  0.00    -0.008 C
HETATM   26  C13 UNL     1     -11.333  -6.152   7.452  1.00  0.00     0.168 C
HETATM   27  C24 UNL     1     -10.046  -4.236   6.417  1.00  0.00     0.200 C
HETATM   28  C20 UNL     1      -8.915  -4.015   5.426  1.00  0.00     0.057 C
HETATM   29  O7  UNL     1     -11.156  -3.817   5.708  1.00  0.00    -0.352 OA
HETATM   30  C19 UNL     1      -7.612  -3.748   6.058  1.00  0.00     0.011 C
HETATM   31  C21 UNL     1      -9.384  -2.841   4.622  1.00  0.00     0.015 C
HETATM   32  C18 UNL     1      -7.062  -4.699   7.013  1.00  0.00     0.005 C
HETATM   33  C22 UNL     1      -8.585  -1.589   4.868  1.00  0.00     0.012 C
HETATM   34  C23 UNL     1     -10.809  -2.631   5.067  1.00  0.00     0.176 C
HETATM   35  C17 UNL     1      -6.645  -6.949   7.777  1.00  0.00     0.010 C
BRANCH  22  36
HETATM   36  O4  UNL     1      -9.761  -6.903   9.762  1.00  0.00    -0.389 OA
ATOM     37  H4  UNL     1      -9.221  -6.153   9.984  1.00  0.00     0.210 HD
ENDBRANCH  22  36
BRANCH  24  38
HETATM   38  O6  UNL     1     -10.023  -6.370   5.492  1.00  0.00    -0.381 OA
ATOM     39  H6  UNL     1      -9.121  -6.612   5.316  1.00  0.00     0.211 HD
ENDBRANCH  24  38
BRANCH  26  40
HETATM   40  O5  UNL     1     -11.501  -5.385   8.593  1.00  0.00    -0.392 OA
ATOM     41  H5  UNL     1     -12.389  -5.073   8.716  1.00  0.00     0.210 HD
ENDBRANCH  26  40
BRANCH  27  42
HETATM   42  O8  UNL     1      -9.857  -3.481   7.568  1.00  0.00    -0.363 OA
ATOM     43  H8  UNL     1     -10.293  -2.637   7.543  1.00  0.00     0.213 HD
ENDBRANCH  27  42
ENDBRANCH  13  14
ENDBRANCH   5  13
BRANCH   6  44
HETATM   44  O10 UNL     1     -12.069  -6.460  12.524  1.00  0.00    -0.391 OA
ATOM     45  H10 UNL     1     -12.869  -6.247  12.058  1.00  0.00     0.210 HD
ENDBRANCH   6  44
TORSDOF 9
ENDMDL