MODEL 2
REMARK VINA RESULT: -6.414264892      2.982      7.696
REMARK  11 active torsions:
REMARK  status: ('A' for Active; 'I' for Inactive)
REMARK    1  A    between atoms: O1_2  and  C2_3
REMARK    2  A    between atoms: C4_5  and  O2_6
REMARK    3  A    between atoms: C5_8  and  O3_9
REMARK    4  A    between atoms: O3_9  and  C6_10
REMARK    5  A    between atoms: C7_11  and  O4_12
REMARK    6  A    between atoms: C8_14  and  O5_15
REMARK    7  A    between atoms: C9_18  and  C10_19
REMARK    8  A    between atoms: C14_23  and  O7_24
REMARK    9  A    between atoms: C20_32  and  O9_33
REMARK   10  A    between atoms: C21_35  and  O10_36
REMARK   11  A    between atoms: C23_39  and  O11_41
ROOT
HETATM    1  C6  UNL     1     -11.905  -8.603   9.320  1.00  0.00     0.168 C
HETATM    2  C7  UNL     1     -13.355  -9.037   8.996  1.00  0.00     0.202 C
HETATM    3  C8  UNL     1     -13.755 -10.316   9.629  1.00  0.00     0.289 C
HETATM    4  O6  UNL     1     -13.195 -10.739  10.802  1.00  0.00    -0.347 OA
HETATM    5  C9  UNL     1     -12.066 -10.032  11.227  1.00  0.00     0.082 C
HETATM    6  C22 UNL     1     -10.800 -10.757  11.574  1.00  0.00     0.077 C
HETATM    7  C23 UNL     1     -10.034 -10.122  10.394  1.00  0.00     0.066 C
HETATM    8  C24 UNL     1      -9.270 -11.297   9.725  1.00  0.00     0.046 C
HETATM    9  C25 UNL     1     -11.365  -9.817   9.929  1.00  0.00     0.087 C
ENDROOT
BRANCH   5  10
HETATM   10  C10 UNL     1     -12.536  -8.982  12.106  1.00  0.00     0.061 C
HETATM   11  C11 UNL     1     -11.624  -7.957  12.674  1.00  0.00     0.016 C
HETATM   12  C12 UNL     1     -12.463  -6.742  13.120  1.00  0.00    -0.002 C
HETATM   13  C13 UNL     1     -12.009  -6.071  14.359  1.00  0.00     0.037 C
HETATM   14  C15 UNL     1     -13.724  -7.136  13.778  1.00  0.00     0.056 C
HETATM   15  C14 UNL     1     -13.433  -6.077  14.852  1.00  0.00     0.126 C
HETATM   16  C16 UNL     1     -13.629  -8.556  14.343  1.00  0.00     0.097 C
HETATM   17  C17 UNL     1     -14.976  -8.802  15.024  1.00  0.00     0.050 C
HETATM   18  O8  UNL     1     -12.689  -8.512  15.330  1.00  0.00    -0.377 OA
HETATM   19  C21 UNL     1     -13.350  -9.569  13.253  1.00  0.00     0.121 C
HETATM   20  C18 UNL     1     -12.399  -9.672  15.975  1.00  0.00     0.171 C
HETATM   21  C19 UNL     1     -11.857 -10.657  14.990  1.00  0.00     0.061 C
HETATM   22  C20 UNL     1     -12.861 -10.820  13.864  1.00  0.00     0.158 C
BRANCH  15  23
HETATM   23  O7  UNL     1     -13.639  -6.488  16.144  1.00  0.00    -0.395 OA
ATOM     24  H7  UNL     1     -14.534  -6.476  16.461  1.00  0.00     0.210 HD
ENDBRANCH  15  23
BRANCH  22  25
HETATM   25  O9  UNL     1     -13.983 -11.384  14.549  1.00  0.00    -0.392 OA
ATOM     26  H9  UNL     1     -14.699 -11.162  13.967  1.00  0.00     0.210 HD
ENDBRANCH  22  25
BRANCH  19  27
HETATM   27  O10 UNL     1     -14.658  -9.867  12.779  1.00  0.00    -0.384 OA
ATOM     28  H10 UNL     1     -15.277  -9.740  13.488  1.00  0.00     0.210 HD
ENDBRANCH  19  27
ENDBRANCH   5  10
BRANCH   3  29
HETATM   29  O5  UNL     1     -13.811 -11.413   8.724  1.00  0.00    -0.368 OA
ATOM     30  H5  UNL     1     -14.485 -11.328   8.060  1.00  0.00     0.212 HD
ENDBRANCH   3  29
BRANCH   7  31
HETATM   31  O11 UNL     1      -9.075  -9.218  10.679  1.00  0.00    -0.390 OA
ATOM     32  H11 UNL     1      -8.576  -8.857   9.955  1.00  0.00     0.210 HD
ENDBRANCH   7  31
BRANCH   1  33
HETATM   33  O3  UNL     1     -11.238  -8.415   8.102  1.00  0.00    -0.350 OA
BRANCH  33  34
HETATM   34  C5  UNL     1     -10.645  -7.171   8.001  1.00  0.00     0.289 C
HETATM   35  C4  UNL     1     -10.860  -6.658   6.594  1.00  0.00     0.175 C
HETATM   36  C3  UNL     1      -9.569  -6.184   5.966  1.00  0.00     0.071 C
HETATM   37  C2  UNL     1      -8.647  -7.402   5.866  1.00  0.00     0.152 C
HETATM   38  C26 UNL     1      -8.821  -8.161   7.160  1.00  0.00     0.149 C
HETATM   39  O12 UNL     1      -9.273  -7.339   8.184  1.00  0.00    -0.351 OA
HETATM   40  C27 UNL     1      -7.490  -8.745   7.638  1.00  0.00     0.042 C
BRANCH  35  41
HETATM   41  O2  UNL     1     -11.744  -5.575   6.573  1.00  0.00    -0.391 OA
ATOM     42  H2  UNL     1     -11.872  -5.306   7.475  1.00  0.00     0.210 HD
ENDBRANCH  35  41
BRANCH  37  43
HETATM   43  O1  UNL     1      -7.336  -7.049   5.701  1.00  0.00    -0.388 OA
HETATM   44  C1  UNL     1      -6.954  -7.178   4.380  1.00  0.00     0.202 C
ENDBRANCH  37  43
ENDBRANCH  33  34
ENDBRANCH   1  33
BRANCH   2  45
HETATM   45  O4  UNL     1     -13.509  -9.172   7.609  1.00  0.00    -0.388 OA
ATOM     46  H4  UNL     1     -14.384  -9.488   7.413  1.00  0.00     0.210 HD
ENDBRANCH   2  45
TORSDOF 11
ENDMDL