MODEL 4
REMARK VINA RESULT: -7.765829690      4.715      7.410
REMARK  11 active torsions:
REMARK  status: ('A' for Active; 'I' for Inactive)
REMARK    1  A    between atoms: C4_4  and  O1_5
REMARK    2  A    between atoms: C9_11  and  O2_12
REMARK    3  A    between atoms: O2_12  and  C10_13
REMARK    4  A    between atoms: C13_17  and  O4_18
REMARK    5  A    between atoms: O4_18  and  C14_19
REMARK    6  A    between atoms: C17_23  and  O6_24
REMARK    7  A    between atoms: C18_26  and  O7_27
REMARK    8  A    between atoms: C19_29  and  O8_30
REMARK    9  A    between atoms: C20_32  and  O9_33
REMARK   10  A    between atoms: C21_35  and  O10_36
REMARK   11  A    between atoms: C22_38  and  O11_39
ROOT
HETATM    1  C10 UNL     1      -7.656  -6.949   6.317  1.00  0.00     0.292 C
HETATM    2  O3  UNL     1      -7.184  -7.865   5.395  1.00  0.00    -0.351 OA
HETATM    3  C11 UNL     1      -6.289  -8.787   5.833  1.00  0.00     0.152 C
HETATM    4  C12 UNL     1      -5.283  -9.017   4.713  1.00  0.00     0.042 C
HETATM    5  C13 UNL     1      -5.623  -8.522   7.141  1.00  0.00     0.184 C
HETATM    6  C20 UNL     1      -6.670  -8.235   8.224  1.00  0.00     0.183 C
HETATM    7  C21 UNL     1      -7.934  -7.686   7.610  1.00  0.00     0.204 C
ENDROOT
BRANCH   1   8
HETATM    8  O2  UNL     1      -8.886  -6.502   5.850  1.00  0.00    -0.348 OA
BRANCH   8   9
HETATM    9  C9  UNL     1      -8.937  -5.091   5.710  1.00  0.00     0.180 C
HETATM   10  C8  UNL     1      -7.665  -4.589   6.296  1.00  0.00     0.041 C
HETATM   11  C6  UNL     1      -7.470  -3.151   6.489  1.00  0.00    -0.013 C
HETATM   12  C5  UNL     1      -7.928  -2.509   7.756  1.00  0.00     0.040 C
HETATM   13  C7  UNL     1      -8.039  -2.390   5.314  1.00  0.00     0.010 C
HETATM   14  C4  UNL     1      -7.931  -3.393   8.947  1.00  0.00     0.142 C
HETATM   15  C3  UNL     1      -8.737  -2.859  10.061  1.00  0.00     0.011 C
HETATM   16  C2  UNL     1      -9.990  -2.483  10.079  1.00  0.00    -0.063 C
HETATM   17  C1  UNL     1     -10.439  -1.986  11.452  1.00  0.00     0.048 C
HETATM   18  C27 UNL     1     -10.993  -2.436   9.040  1.00  0.00     0.011 C
HETATM   19  C25 UNL     1     -11.575  -3.378   8.337  1.00  0.00    -0.055 C
HETATM   20  C23 UNL     1     -11.423  -4.831   8.346  1.00  0.00     0.149 C
HETATM   21  C26 UNL     1     -12.601  -2.874   7.322  1.00  0.00     0.046 C
HETATM   22  O12 UNL     1     -10.555  -5.394   7.445  1.00  0.00    -0.350 OA
HETATM   23  C24 UNL     1     -11.109  -5.441   9.696  1.00  0.00     0.044 C
HETATM   24  C22 UNL     1     -10.209  -4.667   6.346  1.00  0.00     0.286 C
BRANCH  14  25
HETATM   25  O1  UNL     1      -6.559  -3.532   9.313  1.00  0.00    -0.392 OA
ATOM     26  H1  UNL     1      -6.250  -4.420   9.177  1.00  0.00     0.210 HD
ENDBRANCH  14  25
BRANCH  24  27
HETATM   27  O11 UNL     1     -11.211  -4.792   5.347  1.00  0.00    -0.369 OA
ATOM     28  H11 UNL     1     -12.002  -5.062   5.799  1.00  0.00     0.212 HD
ENDBRANCH  24  27
ENDBRANCH   8   9
ENDBRANCH   1   8
BRANCH   7  29
HETATM   29  O10 UNL     1      -8.752  -8.783   7.323  1.00  0.00    -0.388 OA
ATOM     30  H10 UNL     1      -8.219  -9.568   7.355  1.00  0.00     0.210 HD
ENDBRANCH   7  29
BRANCH   6  31
HETATM   31  O9  UNL     1      -6.954  -9.453   8.837  1.00  0.00    -0.390 OA
ATOM     32  H9  UNL     1      -7.121  -9.264   9.753  1.00  0.00     0.210 HD
ENDBRANCH   6  31
BRANCH   5  33
HETATM   33  O4  UNL     1      -4.859  -9.554   7.609  1.00  0.00    -0.348 OA
BRANCH  33  34
HETATM   34  C14 UNL     1      -3.957  -9.277   8.593  1.00  0.00     0.292 C
HETATM   35  O5  UNL     1      -3.187 -10.396   8.955  1.00  0.00    -0.351 OA
HETATM   36  C15 UNL     1      -2.264 -10.017   9.932  1.00  0.00     0.152 C
HETATM   37  C16 UNL     1      -1.713 -11.246  10.617  1.00  0.00     0.042 C
HETATM   38  C17 UNL     1      -1.132  -9.287   9.241  1.00  0.00     0.178 C
HETATM   39  C18 UNL     1      -1.627  -8.786   7.926  1.00  0.00     0.183 C
HETATM   40  C19 UNL     1      -3.016  -8.203   8.099  1.00  0.00     0.204 C
BRANCH  38  41
HETATM   41  O6  UNL     1      -0.111 -10.236   9.012  1.00  0.00    -0.390 OA
ATOM     42  H6  UNL     1      -0.244 -10.942   9.633  1.00  0.00     0.210 HD
ENDBRANCH  38  41
BRANCH  39  43
HETATM   43  O7  UNL     1      -0.766  -7.921   7.292  1.00  0.00    -0.390 OA
ATOM     44  H7  UNL     1      -1.196  -7.285   6.732  1.00  0.00     0.210 HD
ENDBRANCH  39  43
BRANCH  40  45
HETATM   45  O8  UNL     1      -3.014  -7.075   8.895  1.00  0.00    -0.388 OA
ATOM     46  H8  UNL     1      -2.649  -6.313   8.462  1.00  0.00     0.210 HD
ENDBRANCH  40  45
ENDBRANCH  33  34
ENDBRANCH   5  33
TORSDOF 11
ENDMDL