MODEL 1
REMARK VINA RESULT: -6.997194741      0.000      0.000
REMARK  11 active torsions:
REMARK  status: ('A' for Active; 'I' for Inactive)
REMARK    1  A    between atoms: C3_4  and  O2_5
REMARK    2  A    between atoms: O2_5  and  C4_6
REMARK    3  A    between atoms: C12_14  and  O3_15
REMARK    4  A    between atoms: C17_21  and  O4_23
REMARK    5  A    between atoms: C20_26  and  O5_27
REMARK    6  A    between atoms: C21_29  and  O6_30
REMARK    7  A    between atoms: C25_36  and  C26_37
REMARK    8  A    between atoms: C26_37  and  O8_38
REMARK    9  A    between atoms: C27_40  and  O9_41
REMARK   10  A    between atoms: O9_41  and  C28_42
REMARK       I    between atoms: C28_42  and  N1_44
REMARK   11  A    between atoms: N1_44  and  N2_46
ROOT
HETATM    1  C4  UNL     1     -11.476  -7.098   9.739  1.00  0.00     0.127 C
HETATM    2  C5  UNL     1     -11.152  -8.574   9.747  1.00  0.00     0.033 C
HETATM    3  C6  UNL     1     -11.062  -9.063  11.137  1.00  0.00     0.012 C
HETATM    4  C7  UNL     1     -12.338  -8.815  11.936  1.00  0.00    -0.034 C
HETATM    5  C8  UNL     1     -13.323  -9.867  11.427  1.00  0.00     0.016 C
HETATM    6  C9  UNL     1     -12.859  -7.434  11.816  1.00  0.00    -0.001 C
HETATM    7  C10 UNL     1     -12.737  -6.784  10.485  1.00  0.00     0.037 C
HETATM    8  C11 UNL     1     -12.120  -6.706  12.913  1.00  0.00     0.043 C
HETATM    9  C12 UNL     1     -12.364  -7.685  14.095  1.00  0.00     0.062 C
HETATM   10  C13 UNL     1     -13.586  -7.357  14.814  1.00  0.00     0.038 C
HETATM   11  C14 UNL     1     -14.759  -8.234  14.842  1.00  0.00     0.011 C
HETATM   12  C15 UNL     1     -14.812  -9.312  15.879  1.00  0.00     0.025 C
HETATM   13  C16 UNL     1     -15.904 -10.251  15.395  1.00  0.00     0.045 C
HETATM   14  C17 UNL     1     -15.880 -11.625  15.914  1.00  0.00     0.057 C
HETATM   15  C18 UNL     1     -16.887 -11.775  17.065  1.00  0.00     0.045 C
HETATM   16  C19 UNL     1     -14.534 -12.134  16.346  1.00  0.00     0.072 C
HETATM   17  C20 UNL     1     -13.962 -11.091  17.256  1.00  0.00     0.155 C
HETATM   18  C21 UNL     1     -13.563  -9.907  16.342  1.00  0.00     0.087 C
HETATM   19  C22 UNL     1     -12.489 -10.306  15.447  1.00  0.00     0.041 C
HETATM   20  C23 UNL     1     -12.686 -10.223  13.975  1.00  0.00     0.011 C
HETATM   21  C24 UNL     1     -12.101  -8.955  13.437  1.00  0.00     0.028 C
ENDROOT
BRANCH   1  22
HETATM   22  O2  UNL     1     -11.681  -6.746   8.405  1.00  0.00    -0.334 OA
BRANCH  22  23
HETATM   23  C3  UNL     1     -10.465  -6.363   7.796  1.00  0.00     0.414 C
HETATM   24  O1  UNL     1     -10.032  -5.246   8.529  1.00  0.00    -0.331 OA
HETATM   25  C2  UNL     1      -8.889  -4.691   8.013  1.00  0.00     0.155 C
HETATM   26  C1  UNL     1      -7.657  -5.525   8.199  1.00  0.00     0.042 C
HETATM   27  C27 UNL     1      -9.080  -4.322   6.539  1.00  0.00     0.193 C
HETATM   28  C25 UNL     1      -9.593  -5.573   5.875  1.00  0.00     0.182 C
HETATM   29  O7  UNL     1     -10.778  -6.011   6.488  1.00  0.00    -0.329 OA
BRANCH  27  30
HETATM   30  O9  UNL     1      -7.867  -3.945   5.969  1.00  0.00    -0.292 OA
BRANCH  30  31
HETATM   31  C28 UNL     1      -7.482  -2.624   5.758  1.00  0.00     0.379 C
HETATM   32  O10 UNL     1      -6.444  -2.227   6.338  1.00  0.00    -0.237 OA
HETATM   33  N1  UNL     1      -8.274  -1.815   4.914  1.00  0.00    -0.252 N
ATOM     34  H1  UNL     1      -9.110  -2.193   4.468  1.00  0.00     0.191 HD
BRANCH  33  35
HETATM   35  N2  UNL     1      -7.893  -0.489   4.699  1.00  0.00    -0.341 N
ATOM     36  H22 UNL     1      -7.153  -0.280   4.030  1.00  0.00     0.177 HD
ATOM     37  H21 UNL     1      -8.366   0.250   5.220  1.00  0.00     0.177 HD
ENDBRANCH  33  35
ENDBRANCH  30  31
ENDBRANCH  27  30
BRANCH  28  38
HETATM   38  C26 UNL     1      -9.782  -5.350   4.415  1.00  0.00     0.199 C
BRANCH  38  39
HETATM   39  O8  UNL     1     -10.201  -4.081   4.079  1.00  0.00    -0.398 OA
ATOM     40  H8  UNL     1     -10.250  -3.916   3.145  1.00  0.00     0.209 HD
ENDBRANCH  38  39
ENDBRANCH  28  38
ENDBRANCH  22  23
ENDBRANCH   1  22
BRANCH   9  41
HETATM   41  O3  UNL     1     -11.280  -7.313  14.952  1.00  0.00    -0.389 OA
ATOM     42  H3  UNL     1     -10.650  -7.984  14.719  1.00  0.00     0.210 HD
ENDBRANCH   9  41
BRANCH  18  43
HETATM   43  O6  UNL     1     -12.993  -9.037  17.324  1.00  0.00    -0.387 OA
ATOM     44  H6  UNL     1     -12.086  -9.288  17.450  1.00  0.00     0.210 HD
ENDBRANCH  18  43
BRANCH  17  45
HETATM   45  O5  UNL     1     -12.841 -11.517  17.956  1.00  0.00    -0.392 OA
ATOM     46  H5  UNL     1     -13.016 -11.720  18.867  1.00  0.00     0.210 HD
ENDBRANCH  17  45
BRANCH  14  47
HETATM   47  O4  UNL     1     -16.342 -12.532  14.933  1.00  0.00    -0.390 OA
ATOM     48  H4  UNL     1     -16.197 -13.428  15.214  1.00  0.00     0.210 HD
ENDBRANCH  14  47
TORSDOF 11
ENDMDL