MODEL 1
REMARK VINA RESULT: -7.743614437      0.000      0.000
REMARK  10 active torsions:
REMARK  status: ('A' for Active; 'I' for Inactive)
REMARK    1  A    between atoms: C3_4  and  O2_5
REMARK    2  A    between atoms: O2_5  and  C4_6
REMARK    3  A    between atoms: C6_8  and  O3_9
REMARK    4  A    between atoms: C7_11  and  O4_12
REMARK    5  A    between atoms: C8_14  and  O5_15
REMARK    6  A    between atoms: C16_24  and  C17_25
REMARK    7  A    between atoms: C22_32  and  O8_33
REMARK    8  A    between atoms: C25_38  and  O10_39
REMARK    9  A    between atoms: C26_41  and  O11_42
REMARK   10  A    between atoms: C27_44  and  O12_45
ROOT
HETATM    1  C4  UNL     1      -5.840  -7.137   7.179  1.00  0.00     0.266 C
HETATM    2  C5  UNL     1      -6.926  -6.349   7.794  1.00  0.00     0.102 C
HETATM    3  C6  UNL     1      -7.908  -5.691   6.836  1.00  0.00     0.107 C
HETATM    4  C7  UNL     1      -8.679  -6.815   6.202  1.00  0.00     0.143 C
HETATM    5  C8  UNL     1     -10.039  -6.484   5.676  1.00  0.00     0.159 C
HETATM    6  C9  UNL     1     -10.878  -5.593   6.487  1.00  0.00     0.050 C
HETATM    7  C10 UNL     1     -10.177  -5.019   7.708  1.00  0.00     0.031 C
HETATM    8  C11 UNL     1     -10.407  -5.942   8.841  1.00  0.00     0.022 C
HETATM    9  C12 UNL     1     -10.998  -3.769   8.052  1.00  0.00     0.238 A
HETATM   10  C13 UNL     1     -10.558  -3.224   9.415  1.00  0.00     0.075 C
HETATM   11  C14 UNL     1      -9.085  -3.264   9.583  1.00  0.00     0.006 C
HETATM   12  C15 UNL     1      -8.255  -4.202   8.850  1.00  0.00     0.014 C
HETATM   13  C16 UNL     1      -8.744  -4.603   7.444  1.00  0.00     0.010 C
HETATM   14  O6  UNL     1     -12.377  -4.099   8.087  1.00  0.00    -0.194 OA
HETATM   15  O7  UNL     1     -11.884  -3.212   7.285  1.00  0.00    -0.194 OA
HETATM   16  C22 UNL     1      -7.987  -7.436   4.999  1.00  0.00     0.186 C
HETATM   17  C23 UNL     1      -6.838  -8.343   5.386  1.00  0.00     0.152 C
HETATM   18  C24 UNL     1      -7.265  -9.658   5.935  1.00  0.00     0.042 C
HETATM   19  O9  UNL     1      -5.894  -7.663   5.978  1.00  0.00    -0.354 OA
ENDROOT
BRANCH   1  20
HETATM   20  O2  UNL     1      -5.501  -8.183   8.080  1.00  0.00    -0.329 OA
BRANCH  20  21
HETATM   21  C3  UNL     1      -4.183  -8.532   8.063  1.00  0.00     0.294 C
HETATM   22  O1  UNL     1      -3.397  -7.678   8.837  1.00  0.00    -0.351 OA
HETATM   23  C2  UNL     1      -2.411  -8.321   9.542  1.00  0.00     0.152 C
HETATM   24  C1  UNL     1      -1.396  -7.254   9.966  1.00  0.00     0.042 C
HETATM   25  C27 UNL     1      -1.685  -9.367   8.722  1.00  0.00     0.178 C
HETATM   26  C26 UNL     1      -2.661 -10.461   8.378  1.00  0.00     0.183 C
HETATM   27  C25 UNL     1      -4.059  -9.942   8.616  1.00  0.00     0.204 C
BRANCH  25  28
HETATM   28  O12 UNL     1      -1.076  -8.825   7.605  1.00  0.00    -0.390 OA
ATOM     29  H12 UNL     1      -1.626  -8.881   6.834  1.00  0.00     0.210 HD
ENDBRANCH  25  28
BRANCH  26  30
HETATM   30  O11 UNL     1      -2.492 -11.576   9.201  1.00  0.00    -0.390 OA
ATOM     31  H11 UNL     1      -1.658 -11.969   8.970  1.00  0.00     0.210 HD
ENDBRANCH  26  30
BRANCH  27  32
HETATM   32  O10 UNL     1      -4.969 -10.777   7.941  1.00  0.00    -0.388 OA
ATOM     33  H10 UNL     1      -4.982 -11.626   8.368  1.00  0.00     0.210 HD
ENDBRANCH  27  32
ENDBRANCH  20  21
ENDBRANCH   1  20
BRANCH   3  34
HETATM   34  O3  UNL     1      -7.068  -5.197   5.819  1.00  0.00    -0.386 OA
ATOM     35  H3  UNL     1      -7.311  -4.280   5.772  1.00  0.00     0.210 HD
ENDBRANCH   3  34
BRANCH   4  36
HETATM   36  O4  UNL     1      -8.740  -7.902   7.111  1.00  0.00    -0.381 OA
ATOM     37  H4  UNL     1      -9.650  -8.091   7.305  1.00  0.00     0.211 HD
ENDBRANCH   4  36
BRANCH  13  38
HETATM   38  C17 UNL     1      -8.632  -3.299   6.690  1.00  0.00    -0.002 C
HETATM   39  C18 UNL     1      -8.920  -3.211   5.265  1.00  0.00     0.005 C
HETATM   40  C19 UNL     1      -8.456  -1.758   4.979  1.00  0.00     0.000 C
HETATM   41  C20 UNL     1      -7.078  -1.812   5.566  1.00  0.00     0.000 C
HETATM   42  C21 UNL     1      -7.370  -2.548   6.888  1.00  0.00     0.005 C
ENDBRANCH  13  38
BRANCH  16  43
HETATM   43  O8  UNL     1      -7.700  -6.553   3.991  1.00  0.00    -0.390 OA
ATOM     44  H8  UNL     1      -7.027  -6.849   3.389  1.00  0.00     0.210 HD
ENDBRANCH  16  43
BRANCH   5  45
HETATM   45  O5  UNL     1     -10.666  -7.747   5.469  1.00  0.00    -0.392 OA
ATOM     46  H5  UNL     1     -11.258  -7.606   4.740  1.00  0.00     0.210 HD
ENDBRANCH   5  45
TORSDOF 10
ENDMDL