MODEL 2
REMARK VINA RESULT: -6.552411693      3.393      6.511
REMARK  10 active torsions:
REMARK  status: ('A' for Active; 'I' for Inactive)
REMARK       I    between atoms: N1_2  and  C3_4
REMARK    1  A    between atoms: C3_4  and  C4_6
REMARK    2  A    between atoms: C4_6  and  C5_8
REMARK    3  A    between atoms: C5_8  and  N2_9
REMARK    4  A    between atoms: C5_8  and  C6_13
REMARK    5  A    between atoms: C9_17  and  N3_18
REMARK       I    between atoms: N3_18  and  C10_20
REMARK    6  A    between atoms: C10_20  and  C11_22
REMARK       I    between atoms: C11_22  and  N4_24
REMARK    7  A    between atoms: N4_24  and  N5_26
REMARK    8  A    between atoms: N5_26  and  C12_27
REMARK    9  A    between atoms: C12_27  and  C13_28
REMARK       I    between atoms: C13_28  and  N6_30
REMARK   10  A    between atoms: N6_30  and  N7_32
ROOT
HETATM    1  C6  UNL     1      -9.837  12.732 -16.933  1.00  0.00     0.014 A
HETATM    2  C7  UNL     1      -9.827  11.371 -17.048  1.00  0.00     0.020 A
HETATM    3  C8  UNL     1      -8.710  10.791 -17.561  1.00  0.00     0.052 A
HETATM    4  S1  UNL     1      -7.694  12.102 -17.875  1.00  0.00    -0.084 SA
HETATM    5  C9  UNL     1      -8.733  13.399 -17.337  1.00  0.00     0.085 A
ENDROOT
BRANCH   5   6
HETATM    6  N3  UNL     1      -8.366  14.790 -17.356  1.00  0.00    -0.312 N
HETATM    7  C10 UNL     1      -7.410  15.212 -16.399  1.00  0.00     0.315 C
HETATM    8  O3  UNL     1      -6.896  14.425 -15.571  1.00  0.00    -0.262 OA
ATOM      9  H3  UNL     1      -8.775  15.441 -18.026  1.00  0.00     0.170 HD
BRANCH   7  10
HETATM   10  C11 UNL     1      -6.993  16.599 -16.358  1.00  0.00     0.325 C
HETATM   11  O4  UNL     1      -6.047  16.958 -17.123  1.00  0.00    -0.261 OA
HETATM   12  N4  UNL     1      -7.595  17.556 -15.509  1.00  0.00    -0.265 N
ATOM     13  H4  UNL     1      -8.356  17.281 -14.889  1.00  0.00     0.185 HD
BRANCH  12  14
HETATM   14  N5  UNL     1      -7.150  18.866 -15.523  1.00  0.00    -0.129 NA
BRANCH  14  15
HETATM   15  C12 UNL     1      -8.216  19.682 -14.964  1.00  0.00     0.239 C
BRANCH  15  16
HETATM   16  C13 UNL     1      -7.651  20.985 -14.566  1.00  0.00     0.251 C
HETATM   17  O5  UNL     1      -7.428  21.205 -13.351  1.00  0.00    -0.270 OA
HETATM   18  N6  UNL     1      -7.369  21.959 -15.549  1.00  0.00    -0.276 N
ATOM     19  H6  UNL     1      -7.555  21.769 -16.533  1.00  0.00     0.189 HD
BRANCH  18  20
HETATM   20  N7  UNL     1      -6.826  23.200 -15.149  1.00  0.00    -0.343 N
ATOM     21  H72 UNL     1      -7.431  23.897 -14.713  1.00  0.00     0.176 HD
ATOM     22  H71 UNL     1      -5.834  23.379 -15.302  1.00  0.00     0.176 HD
ENDBRANCH  18  20
ENDBRANCH  15  16
ENDBRANCH  14  15
ENDBRANCH  12  14
ENDBRANCH   7  10
ENDBRANCH   5   6
BRANCH   1  23
HETATM   23  C5  UNL     1     -11.103  13.403 -16.385  1.00  0.00     0.298 C
BRANCH  23  24
HETATM   24  C4  UNL     1     -10.715  14.163 -15.149  1.00  0.00     0.251 C
HETATM   25  O2  UNL     1     -10.060  13.520 -14.298  1.00  0.00    -0.285 OA
BRANCH  24  26
HETATM   26  C3  UNL     1     -11.055  15.546 -14.911  1.00  0.00     0.291 C
HETATM   27  N1  UNL     1     -12.168  15.952 -14.138  1.00  0.00    -0.354 N
HETATM   28  C1  UNL     1     -13.036  14.965 -13.541  1.00  0.00     0.152 C
HETATM   29  C2  UNL     1     -12.468  17.349 -13.924  1.00  0.00     0.152 C
HETATM   30  O1  UNL     1     -10.361  16.509 -15.394  1.00  0.00    -0.264 OA
ENDBRANCH  24  26
ENDBRANCH  23  24
BRANCH  23  31
HETATM   31  N2  UNL     1     -12.094  12.453 -16.027  1.00  0.00    -0.064 N
ATOM     32  H23 UNL     1     -11.704  11.632 -15.565  1.00  0.00     0.275 HD
ATOM     33  H22 UNL     1     -12.688  12.773 -15.262  1.00  0.00     0.275 HD
ATOM     34  H21 UNL     1     -12.626  12.216 -16.865  1.00  0.00     0.275 HD
ENDBRANCH  23  31
ENDBRANCH   1  23
TORSDOF 10
ENDMDL