MODEL 5
REMARK VINA RESULT: -6.936641590      1.466      2.427
REMARK  9 active torsions:
REMARK  status: ('A' for Active; 'I' for Inactive)
REMARK    1  A    between atoms: O1_2  and  N1_3
REMARK    2  A    between atoms: C2_5  and  N2_6
REMARK    3  A    between atoms: C2_5  and  C4_10
REMARK       I    between atoms: C4_10  and  N4_12
REMARK    4  A    between atoms: N5_17  and  O3_19
REMARK    5  A    between atoms: C9_21  and  C10_22
REMARK    6  A    between atoms: C10_22  and  O4_23
REMARK    7  A    between atoms: C11_25  and  N6_26
REMARK       I    between atoms: N6_26  and  C12_28
REMARK    8  A    between atoms: C12_28  and  C13_30
REMARK    9  A    between atoms: C13_30  and  N7_31
REMARK       I    between atoms: N7_31  and  C14_33
ROOT
HETATM    1  N2  UNL     1      -9.996  15.708 -17.499  1.00  0.00    -0.273 N
ATOM      2  H2  UNL     1     -10.751  15.917 -16.845  1.00  0.00     0.180 HD
HETATM    3  C3  UNL     1     -10.002  16.309 -18.773  1.00  0.00     0.183 C
HETATM    4  N3  UNL     1     -10.010  16.786 -19.824  1.00  0.00    -0.172 NA
ENDROOT
BRANCH   1   5
HETATM    5  C2  UNL     1      -8.970  14.826 -17.108  1.00  0.00     0.203 C
HETATM    6  N1  UNL     1      -9.180  13.562 -17.263  1.00  0.00    -0.246 N
ATOM      7  H1  UNL     1     -10.062  13.233 -17.655  1.00  0.00     0.196 HD
BRANCH   6   8
HETATM    8  O1  UNL     1      -8.218  12.673 -16.899  1.00  0.00    -0.284 OA
HETATM    9  C1  UNL     1      -7.898  11.547 -17.697  1.00  0.00     0.237 C
ENDBRANCH   6   8
BRANCH   5  10
HETATM   10  C4  UNL     1      -7.740  15.357 -16.556  1.00  0.00     0.292 C
HETATM   11  O2  UNL     1      -6.658  14.880 -16.976  1.00  0.00    -0.264 OA
HETATM   12  N4  UNL     1      -7.783  16.360 -15.596  1.00  0.00    -0.325 N
HETATM   13  C5  UNL     1      -7.916  16.276 -14.357  1.00  0.00     0.019 C
ATOM     14  H4  UNL     1      -7.693  17.309 -15.958  1.00  0.00     0.169 HD
HETATM   15  C6  UNL     1      -8.071  15.053 -13.528  1.00  0.00     0.109 C
HETATM   16  C11 UNL     1      -7.953  17.400 -13.395  1.00  0.00     0.142 C
HETATM   17  C7  UNL     1      -7.820  15.485 -12.138  1.00  0.00     0.024 C
HETATM   18  N5  UNL     1      -8.098  14.865 -11.072  1.00  0.00    -0.275 N
HETATM   19  C9  UNL     1      -7.171  16.801 -12.245  1.00  0.00     0.085 C
ATOM     20  H5  UNL     1      -7.848  15.320 -10.194  1.00  0.00     0.193 HD
BRANCH  18  21
HETATM   21  O3  UNL     1      -8.700  13.649 -10.987  1.00  0.00    -0.285 OA
HETATM   22  C8  UNL     1      -9.831  13.357 -10.217  1.00  0.00     0.237 C
ENDBRANCH  18  21
BRANCH  19  23
HETATM   23  C10 UNL     1      -7.286  17.620 -10.987  1.00  0.00     0.177 C
BRANCH  23  24
HETATM   24  O4  UNL     1      -6.684  18.845 -11.195  1.00  0.00    -0.400 OA
ATOM     25  H4  UNL     1      -6.883  19.140 -12.076  1.00  0.00     0.209 HD
ENDBRANCH  23  24
ENDBRANCH  19  23
BRANCH  16  26
HETATM   26  N6  UNL     1      -7.350  18.588 -13.916  1.00  0.00    -0.349 N
HETATM   27  C12 UNL     1      -8.060  19.453 -14.749  1.00  0.00     0.235 C
HETATM   28  O5  UNL     1      -9.248  19.235 -15.079  1.00  0.00    -0.272 OA
ATOM     29  H6  UNL     1      -6.383  18.807 -13.674  1.00  0.00     0.163 HD
BRANCH  27  30
HETATM   30  C13 UNL     1      -7.402  20.670 -15.269  1.00  0.00     0.225 C
BRANCH  30  31
HETATM   31  N7  UNL     1      -8.323  21.780 -15.345  1.00  0.00    -0.356 N
HETATM   32  C14 UNL     1      -7.838  23.089 -15.158  1.00  0.00     0.182 C
HETATM   33  N8  UNL     1      -8.459  24.102 -15.657  1.00  0.00    -0.374 N
HETATM   34  N9  UNL     1      -6.656  23.295 -14.416  1.00  0.00    -0.064 NA
ATOM     35  H82 UNL     1      -9.313  23.953 -16.194  1.00  0.00     0.158 HD
ATOM     36  H81 UNL     1      -8.107  25.050 -15.521  1.00  0.00     0.158 HD
ATOM     37  H7  UNL     1      -9.313  21.618 -15.533  1.00  0.00     0.162 HD
ENDBRANCH  30  31
ENDBRANCH  27  30
ENDBRANCH  16  26
ENDBRANCH   5  10
ENDBRANCH   1   5
TORSDOF 9
ENDMDL