MODEL 2
REMARK VINA RESULT: -7.521826361      1.075      1.108
REMARK  9 active torsions:
REMARK  status: ('A' for Active; 'I' for Inactive)
REMARK    1  A    between atoms: N1_1  and  S1_4
REMARK    2  A    between atoms: S1_4  and  N2_7
REMARK    3  A    between atoms: N2_7  and  C1_9
REMARK    4  A    between atoms: C1_9  and  C2_10
REMARK       I    between atoms: C2_10  and  N3_12
REMARK    5  A    between atoms: C4_15  and  N4_16
REMARK    6  A    between atoms: N4_16  and  N5_18
REMARK    7  A    between atoms: C5_20  and  O4_21
REMARK    8  A    between atoms: C5_20  and  C6_23
REMARK    9  A    between atoms: C11_32  and  O5_33
ROOT
HETATM    1  C2  UNL     1      -7.684  17.737 -13.389  1.00  0.00     0.310 C
HETATM    2  O3  UNL     1      -7.414  16.921 -12.656  1.00  0.00    -0.257 OA
HETATM    3  N3  UNL     1      -8.146  17.589 -14.788  1.00  0.00    -0.310 N
ATOM      4  H3  UNL     1      -8.055  18.533 -15.165  1.00  0.00     0.170 HD
HETATM    5  C3  UNL     1      -8.600  16.914 -15.787  1.00  0.00     0.120 A
HETATM    6  C4  UNL     1      -8.280  16.236 -16.916  1.00  0.00     0.116 A
HETATM    7  C11 UNL     1      -9.693  16.244 -17.153  1.00  0.00     0.149 A
HETATM    8  C12 UNL     1     -10.094  16.797 -16.191  1.00  0.00     0.236 A
HETATM    9  O6  UNL     1     -10.872  17.322 -15.332  1.00  0.00    -0.283 OA
ENDROOT
BRANCH   6  10
HETATM   10  N4  UNL     1      -7.056  15.677 -17.368  1.00  0.00    -0.294 N
ATOM     11  H4  UNL     1      -6.295  16.149 -17.856  1.00  0.00     0.187 HD
BRANCH  10  12
HETATM   12  N5  UNL     1      -7.132  14.293 -16.979  1.00  0.00    -0.280 N
HETATM   13  C5  UNL     1      -7.497  13.294 -17.777  1.00  0.00     0.158 C
ATOM     14  H5  UNL     1      -6.886  14.060 -16.017  1.00  0.00     0.189 HD
BRANCH  13  15
HETATM   15  O4  UNL     1      -7.776  13.857 -19.089  1.00  0.00    -0.345 OA
ATOM     16  H4  UNL     1      -8.569  14.375 -19.017  1.00  0.00     0.219 HD
ENDBRANCH  13  15
BRANCH  13  17
HETATM   17  C6  UNL     1      -7.707  11.941 -17.875  1.00  0.00     0.105 C
HETATM   18  C7  UNL     1      -8.709  11.253 -17.486  1.00  0.00     0.104 C
HETATM   19  N6  UNL     1      -9.909  11.708 -16.816  1.00  0.00    -0.356 N
HETATM   20  N7  UNL     1      -8.734   9.848 -17.539  1.00  0.00    -0.376 N
HETATM   21  C8  UNL     1     -10.811  11.018 -16.323  1.00  0.00     0.064 C
ATOM     22  H6  UNL     1     -10.026  12.719 -16.740  1.00  0.00     0.166 HD
HETATM   23  C9  UNL     1     -10.694   9.569 -16.382  1.00  0.00     0.064 C
HETATM   24  C10 UNL     1     -10.058   9.175 -17.707  1.00  0.00     0.126 C
ATOM     25  H7  UNL     1      -7.874   9.305 -17.464  1.00  0.00     0.161 HD
ENDBRANCH  13  17
ENDBRANCH  10  12
ENDBRANCH   6  10
BRANCH   7  26
HETATM   26  O5  UNL     1     -10.114  15.670 -18.343  1.00  0.00    -0.355 OA
ATOM     27  H5  UNL     1     -10.676  14.908 -18.263  1.00  0.00     0.218 HD
ENDBRANCH   7  26
BRANCH   1  28
HETATM   28  C1  UNL     1      -7.702  19.235 -13.287  1.00  0.00     0.044 C
BRANCH  28  29
HETATM   29  N2  UNL     1      -7.613  20.487 -13.212  1.00  0.00    -0.228 N
ATOM     30  H2  UNL     1      -7.513  20.984 -12.327  1.00  0.00     0.190 HD
BRANCH  29  31
HETATM   31  S1  UNL     1      -7.678  21.328 -14.806  1.00  0.00     0.323 S
HETATM   32  O1  UNL     1      -6.986  22.552 -14.813  1.00  0.00    -0.182 OA
HETATM   33  O2  UNL     1      -7.125  20.325 -15.773  1.00  0.00    -0.182 OA
BRANCH  31  34
HETATM   34  N1  UNL     1      -9.328  21.611 -15.313  1.00  0.00    -0.311 N
ATOM     35  H12 UNL     1      -9.699  22.513 -15.609  1.00  0.00     0.170 HD
ATOM     36  H11 UNL     1      -9.842  20.731 -15.262  1.00  0.00     0.170 HD
ENDBRANCH  31  34
ENDBRANCH  29  31
ENDBRANCH  28  29
ENDBRANCH   1  28
TORSDOF 9
ENDMDL