MODEL 4
REMARK VINA RESULT: -6.735026683      2.097      2.342
REMARK  9 active torsions:
REMARK  status: ('A' for Active; 'I' for Inactive)
REMARK       I    between atoms: C2_2  and  N1_4
REMARK    1  A    between atoms: N1_4  and  C3_6
REMARK    2  A    between atoms: C3_6  and  C4_7
REMARK    3  A    between atoms: C5_11  and  N3_12
REMARK    4  A    between atoms: N3_12  and  S1_14
REMARK    5  A    between atoms: S1_14  and  C6_17
REMARK    6  A    between atoms: C7_18  and  O4_19
REMARK    7  A    between atoms: O4_19  and  C8_20
REMARK    8  A    between atoms: C10_23  and  N4_24
REMARK       I    between atoms: N4_24  and  C11_26
REMARK    9  A    between atoms: C13_32  and  O7_33
ROOT
HETATM    1  C4  UNL     1      -8.203  19.192 -14.914  1.00  0.00     0.262 C
HETATM    2  N2  UNL     1      -7.348  18.076 -14.442  1.00  0.00    -0.040 N
ATOM      3  H21 UNL     1      -6.996  18.219 -13.495  1.00  0.00     0.280 HD
ATOM      4  H22 UNL     1      -6.446  18.040 -14.916  1.00  0.00     0.280 HD
HETATM    5  C5  UNL     1      -8.088  16.878 -14.578  1.00  0.00     0.344 C
HETATM    6  C10 UNL     1      -9.467  16.939 -13.984  1.00  0.00     0.340 C
HETATM    7  N5  UNL     1     -10.189  18.125 -14.158  1.00  0.00    -0.022 N
ATOM      8  H51 UNL     1     -11.005  18.159 -13.547  1.00  0.00     0.282 HD
ATOM      9  H52 UNL     1     -10.667  18.143 -15.059  1.00  0.00     0.282 HD
HETATM   10  C13 UNL     1      -9.322  19.319 -13.975  1.00  0.00     0.353 C
ENDROOT
BRANCH   5  11
HETATM   11  N3  UNL     1      -8.168  16.475 -15.943  1.00  0.00    -0.283 N
ATOM     12  H3  UNL     1      -9.016  16.536 -16.508  1.00  0.00     0.174 HD
BRANCH  11  13
HETATM   13  S1  UNL     1      -6.649  15.866 -16.530  1.00  0.00     0.252 S
HETATM   14  O2  UNL     1      -5.831  15.306 -15.414  1.00  0.00    -0.201 OA
HETATM   15  O3  UNL     1      -5.861  16.936 -17.205  1.00  0.00    -0.201 OA
BRANCH  13  16
HETATM   16  C6  UNL     1      -7.022  14.568 -17.643  1.00  0.00     0.155 C
HETATM   17  C7  UNL     1      -6.827  13.305 -17.263  1.00  0.00     0.159 C
BRANCH  17  18
HETATM   18  O4  UNL     1      -7.126  12.312 -18.153  1.00  0.00    -0.291 OA
BRANCH  18  19
HETATM   19  C8  UNL     1      -8.071  11.325 -17.871  1.00  0.00     0.259 C
HETATM   20  C9  UNL     1      -9.326  11.689 -17.138  1.00  0.00     0.126 C
HETATM   21  O5  UNL     1      -7.822  10.167 -18.251  1.00  0.00    -0.265 OA
ENDBRANCH  18  19
ENDBRANCH  17  18
ENDBRANCH  13  16
ENDBRANCH  11  13
ENDBRANCH   5  11
BRANCH   6  22
HETATM   22  N4  UNL     1      -9.501  16.536 -12.588  1.00  0.00    -0.330 N
HETATM   23  C11 UNL     1     -10.711  16.370 -11.883  1.00  0.00     0.215 C
HETATM   24  C12 UNL     1     -10.682  15.961 -10.470  1.00  0.00     0.117 C
HETATM   25  O6  UNL     1     -11.811  16.569 -12.449  1.00  0.00    -0.274 OA
ATOM     26  H4  UNL     1      -8.620  16.367 -12.101  1.00  0.00     0.164 HD
ENDBRANCH   6  22
BRANCH   1  27
HETATM   27  C3  UNL     1      -7.390  20.353 -15.247  1.00  0.00     0.160 C
BRANCH  27  28
HETATM   28  N1  UNL     1      -8.043  21.567 -15.556  1.00  0.00    -0.359 N
HETATM   29  C2  UNL     1      -7.826  22.871 -15.158  1.00  0.00     0.213 C
HETATM   30  C1  UNL     1      -8.766  23.952 -15.659  1.00  0.00     0.117 C
HETATM   31  O1  UNL     1      -6.924  23.264 -14.415  1.00  0.00    -0.274 OA
ATOM     32  H1  UNL     1      -8.827  21.459 -16.199  1.00  0.00     0.162 HD
ENDBRANCH  27  28
ENDBRANCH   1  27
BRANCH  10  33
HETATM   33  O7  UNL     1      -8.918  19.410 -12.661  1.00  0.00    -0.368 OA
ATOM     34  H7  UNL     1      -8.838  18.564 -12.236  1.00  0.00     0.212 HD
ENDBRANCH  10  33
TORSDOF 9
ENDMDL