MODEL 4
REMARK VINA RESULT: -7.125747867      2.740      7.236
REMARK  11 active torsions:
REMARK  status: ('A' for Active; 'I' for Inactive)
REMARK    1  A    between atoms: C2_2  and  O1_3
REMARK    2  A    between atoms: C2_2  and  N1_5
REMARK    3  A    between atoms: C4_10  and  N3_11
REMARK    4  A    between atoms: N3_11  and  N4_13
REMARK    5  A    between atoms: N4_13  and  C5_15
REMARK    6  A    between atoms: N5_16  and  O2_18
REMARK    7  A    between atoms: O2_18  and  C6_19
REMARK    8  A    between atoms: C6_19  and  C7_20
REMARK    9  A    between atoms: C7_20  and  O3_21
REMARK   10  A    between atoms: O3_21  and  N6_22
REMARK   11  A    between atoms: N6_22  and  C8_24
ROOT
HETATM    1  N1  UNL     1     -12.605  14.093 -14.626  1.00  0.00    -0.175 N
ATOM      2  H1  UNL     1     -12.940  15.040 -14.447  1.00  0.00     0.186 HD
HETATM    3  C3  UNL     1     -11.634  14.060 -15.433  1.00  0.00     0.687 A
HETATM    4  N2  UNL     1     -11.180  15.268 -15.948  1.00  0.00    -0.174 N
ATOM      5  H2  UNL     1     -11.658  16.127 -15.675  1.00  0.00     0.186 HD
HETATM    6  C4  UNL     1     -10.139  15.351 -16.787  1.00  0.00     0.155 A
HETATM    7  C9  UNL     1      -9.457  14.155 -17.181  1.00  0.00     0.123 A
HETATM    8  C10 UNL     1      -8.403  14.270 -18.059  1.00  0.00     0.267 A
HETATM    9  O4  UNL     1      -7.923  15.328 -18.523  1.00  0.00    -0.267 OA
HETATM   10  N8  UNL     1      -7.760  13.114 -18.477  1.00  0.00    -0.274 N
ATOM     11  H8  UNL     1      -6.973  13.132 -19.126  1.00  0.00     0.173 HD
HETATM   12  C11 UNL     1      -8.243  11.976 -17.973  1.00  0.00     0.330 A
HETATM   13  O5  UNL     1      -7.665  10.886 -18.322  1.00  0.00    -0.246 OA
HETATM   14  N9  UNL     1      -9.267  11.865 -17.123  1.00  0.00    -0.288 N
HETATM   15  C12 UNL     1      -9.858  10.603 -16.826  1.00  0.00     0.163 C
HETATM   16  C13 UNL     1      -9.932  12.989 -16.673  1.00  0.00     0.146 A
HETATM   17  N10 UNL     1     -10.979  12.950 -15.837  1.00  0.00    -0.175 N
ATOM     18  H10 UNL     1     -11.295  12.043 -15.492  1.00  0.00     0.186 HD
ENDROOT
BRANCH   6  19
HETATM   19  N3  UNL     1      -9.824  16.288 -17.476  1.00  0.00    -0.283 N
ATOM     20  H3  UNL     1      -8.809  16.327 -17.572  1.00  0.00     0.188 HD
BRANCH  19  21
HETATM   21  N4  UNL     1     -10.401  17.311 -18.167  1.00  0.00    -0.293 N
ATOM     22  H4  UNL     1     -10.533  17.307 -19.178  1.00  0.00     0.187 HD
BRANCH  21  23
HETATM   23  C5  UNL     1     -10.807  18.411 -17.303  1.00  0.00     0.220 C
HETATM   24  N5  UNL     1     -10.166  19.002 -16.457  1.00  0.00    -0.261 N
ATOM     25  H5  UNL     1     -10.634  19.767 -15.971  1.00  0.00     0.195 HD
BRANCH  24  26
HETATM   26  O2  UNL     1      -8.824  18.725 -16.082  1.00  0.00    -0.277 OA
BRANCH  26  27
HETATM   27  C6  UNL     1      -8.913  18.372 -14.677  1.00  0.00     0.230 C
BRANCH  27  28
HETATM   28  C7  UNL     1      -7.821  17.204 -14.630  1.00  0.00     0.230 C
BRANCH  28  29
HETATM   29  O3  UNL     1      -7.394  17.209 -15.925  1.00  0.00    -0.277 OA
BRANCH  29  30
HETATM   30  N6  UNL     1      -6.298  16.502 -16.157  1.00  0.00    -0.263 N
ATOM     31  H6  UNL     1      -5.658  16.880 -16.855  1.00  0.00     0.195 HD
BRANCH  30  32
HETATM   32  C8  UNL     1      -5.918  15.310 -15.565  1.00  0.00     0.197 C
HETATM   33  N7  UNL     1      -4.827  15.098 -14.879  1.00  0.00    -0.394 N
ATOM     34  H72 UNL     1      -4.204  15.901 -14.779  1.00  0.00     0.156 HD
ATOM     35  H71 UNL     1      -4.547  14.220 -14.443  1.00  0.00     0.156 HD
ENDBRANCH  30  32
ENDBRANCH  29  30
ENDBRANCH  28  29
ENDBRANCH  27  28
ENDBRANCH  26  27
ENDBRANCH  24  26
ENDBRANCH  21  23
ENDBRANCH  19  21
ENDBRANCH   6  19
BRANCH   1  36
HETATM   36  C2  UNL     1     -13.312  13.135 -13.933  1.00  0.00     0.127 C
HETATM   37  C1  UNL     1     -13.647  13.114 -12.490  1.00  0.00     0.098 C
BRANCH  36  38
HETATM   38  O1  UNL     1     -13.729  12.126 -14.661  1.00  0.00    -0.349 OA
ATOM     39  H1  UNL     1     -14.572  11.748 -14.439  1.00  0.00     0.219 HD
ENDBRANCH  36  38
ENDBRANCH   1  36
TORSDOF 11
ENDMDL