MODEL 2
REMARK VINA RESULT: -7.436888525      1.477      3.430
REMARK  11 active torsions:
REMARK  status: ('A' for Active; 'I' for Inactive)
REMARK    1  A    between atoms: C2_3  and  N2_4
REMARK    2  A    between atoms: N2_4  and  C3_6
REMARK    3  A    between atoms: C4_7  and  C5_8
REMARK    4  A    between atoms: C5_8  and  C6_9
REMARK    5  A    between atoms: C7_11  and  C8_12
REMARK    6  A    between atoms: C8_12  and  O1_13
REMARK    7  A    between atoms: O1_13  and  C9_14
REMARK    8  A    between atoms: C9_14  and  C10_15
REMARK    9  A    between atoms: C10_15  and  O2_16
REMARK   10  A    between atoms: C10_15  and  C11_18
REMARK   11  A    between atoms: C11_18  and  O3_19
ROOT
HETATM    1  N1  UNL     1     -10.736   9.593 -16.417  1.00  0.00    -0.191 NA
HETATM    2  C1  UNL     1     -10.396  10.688 -16.287  1.00  0.00     0.105 C
HETATM    3  C2  UNL     1      -9.970  12.060 -16.096  1.00  0.00     0.183 C
ENDROOT
BRANCH   3   4
HETATM    4  N2  UNL     1      -9.782  12.806 -17.295  1.00  0.00    -0.351 N
ATOM      5  H2  UNL     1     -10.550  12.861 -17.965  1.00  0.00     0.166 HD
BRANCH   4   6
HETATM    6  C3  UNL     1      -8.563  13.477 -17.593  1.00  0.00     0.128 A
HETATM    7  C4  UNL     1      -8.577  14.877 -17.561  1.00  0.00     0.070 A
HETATM    8  N4  UNL     1      -7.432  15.500 -17.848  1.00  0.00    -0.306 N
HETATM    9  C13 UNL     1      -6.292  14.861 -18.160  1.00  0.00     0.327 A
ATOM     10  H4  UNL     1      -7.421  16.521 -17.830  1.00  0.00     0.171 HD
HETATM   11  O5  UNL     1      -5.231  15.467 -18.425  1.00  0.00    -0.247 OA
HETATM   12  N5  UNL     1      -6.296  13.502 -18.186  1.00  0.00    -0.274 N
HETATM   13  C14 UNL     1      -7.408  12.796 -17.909  1.00  0.00     0.278 A
ATOM     14  H5  UNL     1      -5.437  13.005 -18.421  1.00  0.00     0.173 HD
HETATM   15  O6  UNL     1      -7.366  11.542 -17.947  1.00  0.00    -0.265 OA
BRANCH   7  16
HETATM   16  C5  UNL     1      -9.804  15.565 -17.225  1.00  0.00     0.056 C
BRANCH  16  17
HETATM   17  C6  UNL     1      -9.758  16.763 -16.629  1.00  0.00     0.077 A
HETATM   18  S1  UNL     1      -9.307  17.176 -15.029  1.00  0.00    -0.065 SA
HETATM   19  C7  UNL     1      -9.537  18.859 -15.134  1.00  0.00     0.099 A
HETATM   20  N3  UNL     1      -9.948  19.032 -16.385  1.00  0.00    -0.315 N
HETATM   21  C12 UNL     1     -10.067  17.991 -17.155  1.00  0.00     0.263 A
ATOM     22  H3  UNL     1     -10.166  19.964 -16.735  1.00  0.00     0.170 HD
HETATM   23  O4  UNL     1     -10.459  18.046 -18.391  1.00  0.00    -0.267 OA
BRANCH  19  24
HETATM   24  C8  UNL     1      -9.348  19.789 -14.178  1.00  0.00     0.172 C
BRANCH  24  25
HETATM   25  O1  UNL     1      -9.112  21.112 -14.507  1.00  0.00    -0.358 OA
BRANCH  25  26
HETATM   26  C9  UNL     1      -7.767  21.553 -14.506  1.00  0.00     0.208 C
BRANCH  26  27
HETATM   27  C10 UNL     1      -7.580  22.808 -15.302  1.00  0.00     0.165 C
BRANCH  27  28
HETATM   28  O2  UNL     1      -6.822  23.690 -14.519  1.00  0.00    -0.391 OA
ATOM     29  H2  UNL     1      -7.353  24.463 -14.370  1.00  0.00     0.210 HD
ENDBRANCH  27  28
BRANCH  27  30
HETATM   30  C11 UNL     1      -8.864  23.492 -15.647  1.00  0.00     0.198 C
BRANCH  30  31
HETATM   31  O3  UNL     1      -8.906  24.817 -15.273  1.00  0.00    -0.398 OA
ATOM     32  H3  UNL     1      -8.468  25.401 -15.881  1.00  0.00     0.209 HD
ENDBRANCH  30  31
ENDBRANCH  27  30
ENDBRANCH  26  27
ENDBRANCH  25  26
ENDBRANCH  24  25
ENDBRANCH  19  24
ENDBRANCH  16  17
ENDBRANCH   7  16
ENDBRANCH   4   6
ENDBRANCH   3   4
TORSDOF 11
ENDMDL