MODEL 3
REMARK VINA RESULT: -8.088706905      0.691      1.268
REMARK  9 active torsions:
REMARK  status: ('A' for Active; 'I' for Inactive)
REMARK    1  A    between atoms: O1_2  and  C2_3
REMARK    2  A    between atoms: C2_3  and  C3_5
REMARK    3  A    between atoms: C3_5  and  C4_6
REMARK    4  A    between atoms: C4_6  and  N1_7
REMARK       I    between atoms: N1_7  and  C5_9
REMARK    5  A    between atoms: C5_9  and  C6_11
REMARK    6  A    between atoms: C6_11  and  N2_12
REMARK       I    between atoms: N2_12  and  C7_13
REMARK    7  A    between atoms: C7_13  and  C8_15
REMARK    8  A    between atoms: C8_15  and  N3_16
REMARK    9  A    between atoms: C13_28  and  N6_29
ROOT
HETATM    1  N3  UNL     1      -8.330  14.784 -17.430  1.00  0.00    -0.274 N
HETATM    2  C9  UNL     1      -7.167  14.334 -17.987  1.00  0.00     0.331 A
HETATM    3  O5  UNL     1      -6.302  15.185 -18.304  1.00  0.00    -0.246 OA
HETATM    4  N4  UNL     1      -6.940  13.037 -18.197  1.00  0.00    -0.274 N
ATOM      5  H4  UNL     1      -6.053  12.759 -18.616  1.00  0.00     0.173 HD
HETATM    6  C10 UNL     1      -7.829  12.081 -17.882  1.00  0.00     0.269 A
HETATM    7  O6  UNL     1      -7.610  10.869 -18.083  1.00  0.00    -0.267 OA
HETATM    8  C11 UNL     1      -9.010  12.497 -17.320  1.00  0.00     0.145 A
HETATM    9  C12 UNL     1      -9.990  11.558 -16.957  1.00  0.00     0.279 A
HETATM   10  O7  UNL     1      -9.776  10.339 -17.160  1.00  0.00    -0.266 OA
HETATM   11  N5  UNL     1     -11.141  11.978 -16.399  1.00  0.00    -0.155 N
ATOM     12  H5  UNL     1     -11.851  11.294 -16.135  1.00  0.00     0.187 HD
HETATM   13  C13 UNL     1     -11.369  13.285 -16.187  1.00  0.00     0.680 A
HETATM   14  N7  UNL     1     -10.409  14.192 -16.546  1.00  0.00    -0.175 N
ATOM     15  H7  UNL     1     -10.588  15.183 -16.384  1.00  0.00     0.186 HD
HETATM   16  C14 UNL     1      -9.252  13.835 -17.098  1.00  0.00     0.149 A
ENDROOT
BRANCH   1  17
HETATM   17  C8  UNL     1      -8.540  16.184 -17.199  1.00  0.00     0.254 C
BRANCH  17  18
HETATM   18  C7  UNL     1      -9.593  16.664 -18.207  1.00  0.00     0.309 C
HETATM   19  N2  UNL     1     -10.346  17.777 -17.937  1.00  0.00    -0.377 NA
HETATM   20  O4  UNL     1      -9.648  15.943 -19.222  1.00  0.00    -0.255 OA
BRANCH  19  21
HETATM   21  C6  UNL     1     -11.092  18.880 -17.670  1.00  0.00     0.260 C
BRANCH  21  22
HETATM   22  C5  UNL     1     -10.958  19.348 -16.244  1.00  0.00     0.270 C
HETATM   23  N1  UNL     1     -10.039  20.326 -15.840  1.00  0.00    -0.355 N
ATOM     24  H1  UNL     1      -9.432  20.737 -16.550  1.00  0.00     0.162 HD
HETATM   25  O3  UNL     1     -11.713  18.819 -15.408  1.00  0.00    -0.266 OA
BRANCH  23  26
HETATM   26  C4  UNL     1      -9.901  20.788 -14.482  1.00  0.00     0.132 C
BRANCH  26  27
HETATM   27  C3  UNL     1      -8.536  20.618 -13.907  1.00  0.00     0.130 C
BRANCH  27  28
HETATM   28  C2  UNL     1      -7.656  19.844 -14.817  1.00  0.00     0.259 C
HETATM   29  O2  UNL     1      -6.893  20.444 -15.643  1.00  0.00    -0.265 OA
BRANCH  28  30
HETATM   30  O1  UNL     1      -7.605  18.458 -14.827  1.00  0.00    -0.326 OA
HETATM   31  C1  UNL     1      -7.944  17.707 -13.663  1.00  0.00     0.213 C
ENDBRANCH  28  30
ENDBRANCH  27  28
ENDBRANCH  26  27
ENDBRANCH  23  26
ENDBRANCH  21  22
ENDBRANCH  19  21
ENDBRANCH  17  18
ENDBRANCH   1  17
BRANCH  13  32
HETATM   32  N6  UNL     1     -12.447  13.749 -15.666  1.00  0.00    -0.234 N
ATOM     33  H62 UNL     1     -12.349  14.319 -14.827  1.00  0.00     0.174 HD
ATOM     34  H61 UNL     1     -13.379  13.583 -16.045  1.00  0.00     0.174 HD
ENDBRANCH  13  32
TORSDOF 9
ENDMDL