MODEL 4
REMARK VINA RESULT: -6.386813768      3.566      7.200
REMARK  9 active torsions:
REMARK  status: ('A' for Active; 'I' for Inactive)
REMARK    1  A    between atoms: N1_1  and  C1_5
REMARK    2  A    between atoms: C1_5  and  C2_6
REMARK    3  A    between atoms: C2_6  and  C3_7
REMARK       I    between atoms: C3_7  and  N2_9
REMARK    4  A    between atoms: N2_9  and  S1_11
REMARK    5  A    between atoms: S1_11  and  C4_14
REMARK    6  A    between atoms: C4_14  and  C5_15
REMARK    7  A    between atoms: C5_15  and  C6_16
REMARK    8  A    between atoms: C6_16  and  N3_17
REMARK       I    between atoms: N3_17  and  C7_18
REMARK       I    between atoms: C7_18  and  N4_20
REMARK    9  A    between atoms: C9_27  and  C10_28
ROOT
HETATM    1  C6  UNL     1      -5.712  15.276 -15.270  1.00  0.00     0.162 C
ENDROOT
BRANCH   1   2
HETATM    2  C5  UNL     1      -5.972  14.491 -16.515  1.00  0.00     0.076 C
BRANCH   2   3
HETATM    3  C4  UNL     1      -7.033  13.463 -16.372  1.00  0.00     0.169 C
BRANCH   3   4
HETATM    4  S1  UNL     1      -8.410  13.610 -17.444  1.00  0.00     0.233 S
HETATM    5  O2  UNL     1      -8.116  13.444 -18.872  1.00  0.00    -0.206 OA
HETATM    6  O3  UNL     1      -9.029  14.988 -17.256  1.00  0.00    -0.206 OA
BRANCH   4   7
HETATM    7  N2  UNL     1      -9.578  12.433 -16.889  1.00  0.00    -0.254 N
HETATM    8  C3  UNL     1      -9.369  11.071 -17.154  1.00  0.00     0.232 C
HETATM    9  O1  UNL     1      -8.360  10.697 -17.777  1.00  0.00    -0.273 OA
ATOM     10  H2  UNL     1     -10.406  12.735 -16.376  1.00  0.00     0.181 HD
BRANCH   8  11
HETATM   11  C2  UNL     1     -10.351  10.060 -16.695  1.00  0.00     0.131 C
BRANCH  11  12
HETATM   12  C1  UNL     1     -10.146   8.759 -17.391  1.00  0.00     0.238 C
BRANCH  12  13
HETATM   13  N1  UNL     1     -11.235   7.842 -17.346  1.00  0.00    -0.079 N
ATOM     14  H13 UNL     1     -10.963   6.961 -17.784  1.00  0.00     0.274 HD
ATOM     15  H12 UNL     1     -11.386   7.532 -16.386  1.00  0.00     0.274 HD
ATOM     16  H11 UNL     1     -12.116   8.167 -17.745  1.00  0.00     0.274 HD
ENDBRANCH  12  13
ENDBRANCH  11  12
ENDBRANCH   8  11
ENDBRANCH   4   7
ENDBRANCH   3   4
ENDBRANCH   2   3
ENDBRANCH   1   2
BRANCH   1  17
HETATM   17  N3  UNL     1      -6.860  15.765 -14.645  1.00  0.00    -0.369 NA
HETATM   18  C7  UNL     1      -7.976  16.237 -14.040  1.00  0.00     0.399 C
HETATM   19  O4  UNL     1      -9.044  15.536 -13.842  1.00  0.00    -0.230 OA
HETATM   20  N4  UNL     1      -8.167  17.553 -13.523  1.00  0.00    -0.275 N
HETATM   21  C8  UNL     1      -7.774  18.661 -14.023  1.00  0.00     0.170 A
ATOM     22  H4  UNL     1      -8.682  17.618 -12.644  1.00  0.00     0.173 HD
HETATM   23  N5  UNL     1      -7.091  18.984 -15.125  1.00  0.00    -0.278 N
HETATM   24  S2  UNL     1      -8.067  20.239 -13.361  1.00  0.00    -0.028 SA
HETATM   25  N6  UNL     1      -6.856  20.206 -15.378  1.00  0.00    -0.287 N
ATOM     26  H5  UNL     1      -6.760  18.255 -15.757  1.00  0.00     0.189 HD
HETATM   27  C9  UNL     1      -7.282  21.158 -14.567  1.00  0.00     0.158 A
ATOM     28  H6  UNL     1      -6.333  20.456 -16.218  1.00  0.00     0.188 HD
BRANCH  27  29
HETATM   29  C10 UNL     1      -7.141  22.606 -14.645  1.00  0.00     0.289 C
HETATM   30  N7  UNL     1      -6.291  23.297 -13.792  1.00  0.00    -0.055 NA
HETATM   31  O5  UNL     1      -7.817  23.214 -15.519  1.00  0.00    -0.269 OA
ENDBRANCH  27  29
ENDBRANCH   1  17
TORSDOF 9
ENDMDL