MODEL 2
REMARK VINA RESULT: -7.126259263      1.723      2.349
REMARK  10 active torsions:
REMARK  status: ('A' for Active; 'I' for Inactive)
REMARK    1  A    between atoms: C4_10  and  N4_11
REMARK    2  A    between atoms: N4_11  and  C5_13
REMARK    3  A    between atoms: C5_13  and  C6_14
REMARK    4  A    between atoms: C6_14  and  N5_15
REMARK    5  A    between atoms: C8_22  and  N9_23
REMARK    6  A    between atoms: N9_23  and  C9_25
REMARK    7  A    between atoms: C9_25  and  C10_26
REMARK    8  A    between atoms: C10_26  and  C11_27
REMARK    9  A    between atoms: C11_27  and  O2_28
REMARK   10  A    between atoms: O2_28  and  N10_29
ROOT
HETATM    1  N10 UNL     1      -6.683  16.174 -14.536  1.00  0.00    -0.201 N
ATOM      2  H10 UNL     1      -6.272  16.863 -13.906  1.00  0.00     0.207 HD
HETATM    3  C12 UNL     1      -7.795  15.408 -14.117  1.00  0.00     0.203 C
HETATM    4  N11 UNL     1      -8.699  14.784 -13.768  1.00  0.00    -0.170 NA
ENDROOT
BRANCH   1   5
HETATM    5  O2  UNL     1      -6.168  15.993 -15.769  1.00  0.00    -0.271 OA
BRANCH   5   6
HETATM    6  C11 UNL     1      -5.168  15.032 -15.669  1.00  0.00     0.203 C
BRANCH   6   7
HETATM    7  C10 UNL     1      -5.250  14.029 -16.809  1.00  0.00     0.048 C
BRANCH   7   8
HETATM    8  C9  UNL     1      -5.683  14.764 -18.058  1.00  0.00     0.123 C
BRANCH   8   9
HETATM    9  N9  UNL     1      -6.965  14.262 -18.450  1.00  0.00    -0.375 N
ATOM     10  H9  UNL     1      -6.994  13.634 -19.253  1.00  0.00     0.161 HD
BRANCH   9  11
HETATM   11  C8  UNL     1      -8.081  14.532 -17.879  1.00  0.00     0.136 A
HETATM   12  N8  UNL     1      -8.486  15.794 -17.636  1.00  0.00    -0.176 N
HETATM   13  C4  UNL     1      -9.661  16.079 -17.033  1.00  0.00     0.681 A
ATOM     14  H8  UNL     1      -7.881  16.565 -17.918  1.00  0.00     0.186 HD
HETATM   15  N3  UNL     1     -10.434  15.034 -16.676  1.00  0.00    -0.175 N
HETATM   16  C3  UNL     1     -10.087  13.762 -16.890  1.00  0.00     0.144 A
ATOM     17  H3  UNL     1     -11.326  15.225 -16.221  1.00  0.00     0.186 HD
HETATM   18  N2  UNL     1     -10.873  12.737 -16.526  1.00  0.00    -0.293 N
HETATM   19  C13 UNL     1      -8.888  13.483 -17.504  1.00  0.00     0.121 A
HETATM   20  C2  UNL     1     -10.498  11.445 -16.754  1.00  0.00     0.330 A
ATOM     21  H2  UNL     1     -11.765  12.927 -16.070  1.00  0.00     0.172 HD
HETATM   22  N1  UNL     1      -9.335  11.134 -17.350  1.00  0.00    -0.270 N
HETATM   23  O1  UNL     1     -11.240  10.484 -16.409  1.00  0.00    -0.246 OA
HETATM   24  C1  UNL     1      -8.941   9.768 -17.592  1.00  0.00     0.164 C
HETATM   25  C14 UNL     1      -8.532  12.147 -17.724  1.00  0.00     0.269 A
HETATM   26  O3  UNL     1      -7.439  11.921 -18.283  1.00  0.00    -0.267 OA
BRANCH  13  27
HETATM   27  N4  UNL     1      -9.986  17.311 -16.832  1.00  0.00    -0.224 N
ATOM     28  H4  UNL     1      -9.706  18.051 -17.476  1.00  0.00     0.177 HD
BRANCH  27  29
HETATM   29  C5  UNL     1     -10.772  17.592 -15.641  1.00  0.00     0.157 C
BRANCH  29  30
HETATM   30  C6  UNL     1      -9.978  18.385 -14.627  1.00  0.00     0.142 C
BRANCH  30  31
HETATM   31  N5  UNL     1      -9.062  19.221 -15.336  1.00  0.00    -0.365 N
HETATM   32  C7  UNL     1      -7.903  19.571 -14.852  1.00  0.00     0.197 C
HETATM   33  N6  UNL     1      -7.007  20.395 -15.558  1.00  0.00    -0.067 NA
HETATM   34  N7  UNL     1      -7.565  19.085 -13.565  1.00  0.00    -0.067 NA
ATOM     35  H5  UNL     1      -9.326  19.560 -16.261  1.00  0.00     0.161 HD
ENDBRANCH  30  31
ENDBRANCH  29  30
ENDBRANCH  27  29
ENDBRANCH  13  27
ENDBRANCH   9  11
ENDBRANCH   8   9
ENDBRANCH   7   8
ENDBRANCH   6   7
ENDBRANCH   5   6
ENDBRANCH   1   5
TORSDOF 10
ENDMDL