MODEL 3
REMARK VINA RESULT: -5.897910626      3.065      7.287
REMARK  11 active torsions:
REMARK  status: ('A' for Active; 'I' for Inactive)
REMARK    1  A    between atoms: N2_5  and  C3_6
REMARK    2  A    between atoms: C3_6  and  C4_7
REMARK    3  A    between atoms: C4_7  and  N3_8
REMARK    4  A    between atoms: C6_13  and  N4_14
REMARK    5  A    between atoms: N4_14  and  C7_16
REMARK    6  A    between atoms: C7_16  and  C8_17
REMARK    7  A    between atoms: C8_17  and  S1_18
REMARK    8  A    between atoms: S1_18  and  N5_19
REMARK    9  A    between atoms: N7_27  and  C10_29
REMARK   10  A    between atoms: C10_29  and  C11_30
REMARK   11  A    between atoms: C11_30  and  O4_31
ROOT
HETATM    1  C1  UNL     1     -10.039   9.568 -17.032  1.00  0.00     0.163 C
HETATM    2  N1  UNL     1      -9.523  10.922 -17.177  1.00  0.00    -0.287 N
HETATM    3  C2  UNL     1      -8.323  11.314 -17.602  1.00  0.00     0.330 A
HETATM    4  O1  UNL     1      -7.372  10.577 -17.974  1.00  0.00    -0.246 OA
HETATM    5  N2  UNL     1      -8.237  12.670 -17.589  1.00  0.00    -0.291 N
HETATM    6  C5  UNL     1      -9.426  13.104 -17.141  1.00  0.00     0.128 A
HETATM    7  C6  UNL     1      -9.961  14.360 -16.904  1.00  0.00     0.148 A
HETATM    8  N6  UNL     1     -11.209  14.465 -16.443  1.00  0.00    -0.175 N
ATOM      9  H6  UNL     1     -11.584  15.398 -16.274  1.00  0.00     0.186 HD
HETATM   10  C9  UNL     1     -12.000  13.408 -16.189  1.00  0.00     0.681 A
HETATM   11  N7  UNL     1     -13.201  13.602 -15.742  1.00  0.00    -0.224 N
ATOM     12  H7  UNL     1     -13.563  14.541 -15.578  1.00  0.00     0.177 HD
HETATM   13  N8  UNL     1     -11.505  12.187 -16.410  1.00  0.00    -0.174 N
ATOM     14  H8  UNL     1     -12.083  11.366 -16.225  1.00  0.00     0.186 HD
HETATM   15  C12 UNL     1     -10.255  12.028 -16.873  1.00  0.00     0.158 A
ENDROOT
BRANCH   7  16
HETATM   16  N4  UNL     1      -9.218  15.385 -17.140  1.00  0.00    -0.373 N
ATOM     17  H4  UNL     1      -8.219  15.224 -17.273  1.00  0.00     0.161 HD
BRANCH  16  18
HETATM   18  C7  UNL     1      -9.686  16.729 -17.228  1.00  0.00     0.138 C
BRANCH  18  19
HETATM   19  C8  UNL     1      -9.511  17.522 -15.945  1.00  0.00     0.182 C
BRANCH  19  20
HETATM   20  S1  UNL     1      -7.798  17.293 -15.450  1.00  0.00     0.226 S
HETATM   21  O2  UNL     1      -6.965  17.228 -16.714  1.00  0.00    -0.206 OA
HETATM   22  O3  UNL     1      -7.607  15.841 -14.627  1.00  0.00    -0.206 OA
BRANCH  20  23
HETATM   23  N5  UNL     1      -7.287  18.502 -14.632  1.00  0.00    -0.328 N
ATOM     24  H52 UNL     1      -7.635  18.743 -13.703  1.00  0.00     0.168 HD
ATOM     25  H51 UNL     1      -6.568  19.014 -15.142  1.00  0.00     0.168 HD
ENDBRANCH  20  23
ENDBRANCH  19  20
ENDBRANCH  18  19
ENDBRANCH  16  18
ENDBRANCH   7  16
BRANCH   5  26
HETATM   26  C3  UNL     1      -7.088  13.457 -17.982  1.00  0.00     0.161 C
BRANCH  26  27
HETATM   27  C4  UNL     1      -6.128  13.499 -16.793  1.00  0.00     0.250 C
BRANCH  27  28
HETATM   28  N3  UNL     1      -5.453  14.777 -16.711  1.00  0.00    -0.078 N
ATOM     29  H33 UNL     1      -4.615  14.797 -17.292  1.00  0.00     0.274 HD
ATOM     30  H32 UNL     1      -5.984  15.512 -17.177  1.00  0.00     0.274 HD
ATOM     31  H31 UNL     1      -5.245  15.021 -15.743  1.00  0.00     0.274 HD
ENDBRANCH  27  28
ENDBRANCH  26  27
ENDBRANCH   5  26
BRANCH  11  32
HETATM   32  C10 UNL     1     -14.003  12.423 -15.488  1.00  0.00     0.164 C
BRANCH  32  33
HETATM   33  C11 UNL     1     -15.075  12.290 -16.558  1.00  0.00     0.184 C
BRANCH  33  34
HETATM   34  O4  UNL     1     -15.463  13.584 -16.902  1.00  0.00    -0.399 OA
ATOM     35  H4  UNL     1     -16.208  13.803 -16.355  1.00  0.00     0.209 HD
ENDBRANCH  33  34
ENDBRANCH  32  33
ENDBRANCH  11  32
TORSDOF 11
ENDMDL