MODEL 3
REMARK VINA RESULT: -6.911486248      2.762      3.443
REMARK  3 active torsions:
REMARK  status: ('A' for Active; 'I' for Inactive)
REMARK    1  A    between atoms: N1_1  and  C1_4
REMARK    2  A    between atoms: N3_9  and  N4_10
REMARK    3  A    between atoms: C4_15  and  C5_16
ROOT
HETATM    1  C1  UNL     1     -21.465  51.658 -60.086  1.00  0.00     0.121 A
HETATM    2  N2  UNL     1     -22.008  52.873 -59.902  1.00  0.00    -0.292 N
ATOM      3  H2  UNL     1     -21.791  53.392 -59.051  1.00  0.00     0.172 HD
HETATM    4  C2  UNL     1     -22.836  53.422 -60.822  1.00  0.00     0.348 A
HETATM    5  O1  UNL     1     -23.355  54.564 -60.663  1.00  0.00    -0.245 OA
HETATM    6  N3  UNL     1     -23.111  52.710 -61.949  1.00  0.00    -0.197 N
HETATM    7  C3  UNL     1     -22.576  51.485 -62.155  1.00  0.00     0.161 A
HETATM    8  N5  UNL     1     -22.889  50.785 -63.339  1.00  0.00    -0.079 NA
HETATM    9  C4  UNL     1     -21.734  50.927 -61.220  1.00  0.00     0.116 A
ENDROOT
BRANCH   1  10
HETATM   10  N1  UNL     1     -20.676  51.147 -59.198  1.00  0.00    -0.384 N
ATOM     11  H12 UNL     1     -20.401  51.725 -58.405  1.00  0.00     0.157 HD
ATOM     12  H11 UNL     1     -20.339  50.189 -59.292  1.00  0.00     0.157 HD
ENDBRANCH   1  10
BRANCH   9  13
HETATM   13  C5  UNL     1     -21.163  49.603 -61.455  1.00  0.00     0.272 C
HETATM   14  N6  UNL     1     -19.860  49.545 -62.019  1.00  0.00    -0.057 NA
HETATM   15  O2  UNL     1     -21.766  48.546 -61.183  1.00  0.00    -0.271 OA
ENDBRANCH   9  13
BRANCH   6  16
HETATM   16  N4  UNL     1     -23.956  53.233 -62.922  1.00  0.00    -0.333 N
ATOM     17  H42 UNL     1     -23.901  54.231 -63.125  1.00  0.00     0.177 HD
ATOM     18  H41 UNL     1     -24.611  52.627 -63.416  1.00  0.00     0.177 HD
ENDBRANCH   6  16
TORSDOF 3
ENDMDL