MODEL 4
REMARK VINA RESULT: -6.280810874      1.682      3.069
REMARK  1 active torsions:
REMARK  status: ('A' for Active; 'I' for Inactive)
REMARK    1  A    between atoms: N1_1  and  C1_4
REMARK       I    between atoms: N3_9  and  C3_10
REMARK       I    between atoms: C3_10  and  N4_11
REMARK       I    between atoms: C3_10  and  N5_15
ROOT
HETATM    1  C1  UNL     1     -20.293  51.643 -60.557  1.00  0.00     0.683 A
HETATM    2  N2  UNL     1     -21.494  51.049 -60.529  1.00  0.00    -0.141 N
ATOM      3  H2  UNL     1     -21.658  50.267 -59.895  1.00  0.00     0.189 HD
HETATM    4  C2  UNL     1     -22.497  51.484 -61.342  1.00  0.00     0.347 A
HETATM    5  O1  UNL     1     -23.616  50.920 -61.309  1.00  0.00    -0.246 OA
HETATM    6  N3  UNL     1     -22.309  52.510 -62.185  1.00  0.00    -0.197 N
HETATM    7  C3  UNL     1     -23.361  52.984 -63.054  1.00  0.00     0.494 C
HETATM    8  N4  UNL     1     -24.405  51.990 -63.225  1.00  0.00    -0.032 N
ATOM      9  H41 UNL     1     -25.148  52.325 -63.839  1.00  0.00     0.279 HD
ATOM     10  H42 UNL     1     -24.776  51.682 -62.326  1.00  0.00     0.279 HD
ATOM     11  H43 UNL     1     -24.024  51.103 -63.553  1.00  0.00     0.279 HD
HETATM   12  N5  UNL     1     -22.907  53.373 -64.350  1.00  0.00    -0.032 N
ATOM     13  H51 UNL     1     -23.650  53.708 -64.964  1.00  0.00     0.279 HD
ATOM     14  H52 UNL     1     -22.391  52.613 -64.793  1.00  0.00     0.279 HD
ATOM     15  H53 UNL     1     -22.162  54.066 -64.276  1.00  0.00     0.279 HD
HETATM   16  C4  UNL     1     -21.118  53.100 -62.214  1.00  0.00     0.347 A
HETATM   17  O2  UNL     1     -20.885  54.060 -62.978  1.00  0.00    -0.246 OA
HETATM   18  N6  UNL     1     -20.105  52.673 -61.404  1.00  0.00    -0.141 N
ATOM     19  H6  UNL     1     -19.198  53.138 -61.440  1.00  0.00     0.189 HD
ENDROOT
BRANCH   1  20
HETATM   20  N1  UNL     1     -19.342  51.245 -59.798  1.00  0.00    -0.234 N
ATOM     21  H12 UNL     1     -18.778  50.435 -60.057  1.00  0.00     0.174 HD
ATOM     22  H11 UNL     1     -19.129  51.727 -58.925  1.00  0.00     0.174 HD
ENDBRANCH   1  20
TORSDOF 1
ENDMDL