MODEL 2
REMARK VINA RESULT: -6.353303456      1.653      2.948
REMARK  2 active torsions:
REMARK  status: ('A' for Active; 'I' for Inactive)
REMARK    1  A    between atoms: N1_2  and  C2_4
REMARK    2  A    between atoms: C3_7  and  N3_8
REMARK       I    between atoms: N5_15  and  C5_16
REMARK       I    between atoms: C5_16  and  N6_17
REMARK       I    between atoms: C5_16  and  N7_21
ROOT
HETATM    1  C2  UNL     1     -21.217  52.399 -59.834  1.00  0.00     0.701 A
HETATM    2  N2  UNL     1     -22.083  52.496 -60.858  1.00  0.00    -0.022 N
ATOM      3  H2  UNL     1     -22.598  53.359 -61.036  1.00  0.00     0.203 HD
HETATM    4  C3  UNL     1     -22.245  51.415 -61.640  1.00  0.00     0.694 A
HETATM    5  N4  UNL     1     -21.569  50.271 -61.414  1.00  0.00    -0.140 N
ATOM      6  H4  UNL     1     -21.719  49.471 -62.029  1.00  0.00     0.189 HD
HETATM    7  C4  UNL     1     -20.698  50.166 -60.387  1.00  0.00     0.358 A
HETATM    8  O1  UNL     1     -20.063  49.103 -60.168  1.00  0.00    -0.245 OA
HETATM    9  N5  UNL     1     -20.541  51.265 -59.602  1.00  0.00    -0.076 N
HETATM   10  C5  UNL     1     -19.620  51.178 -58.503  1.00  0.00     0.505 C
HETATM   11  N6  UNL     1     -18.265  51.548 -58.869  1.00  0.00    -0.032 N
ATOM     12  H61 UNL     1     -17.611  51.486 -58.088  1.00  0.00     0.279 HD
ATOM     13  H62 UNL     1     -18.242  52.476 -59.291  1.00  0.00     0.279 HD
ATOM     14  H63 UNL     1     -17.938  50.996 -59.662  1.00  0.00     0.279 HD
HETATM   15  N7  UNL     1     -19.585  49.903 -57.863  1.00  0.00    -0.032 N
ATOM     16  H71 UNL     1     -18.931  49.842 -57.082  1.00  0.00     0.279 HD
ATOM     17  H72 UNL     1     -19.395  49.169 -58.544  1.00  0.00     0.279 HD
ATOM     18  H73 UNL     1     -20.521  49.628 -57.565  1.00  0.00     0.279 HD
ENDROOT
BRANCH   1  19
HETATM   19  N1  UNL     1     -21.042  53.413 -59.071  1.00  0.00    -0.229 N
HETATM   20  C1  UNL     1     -21.784  54.628 -59.120  1.00  0.00     0.165 C
ATOM     21  H1  UNL     1     -20.306  53.346 -58.368  1.00  0.00     0.177 HD
ENDBRANCH   1  19
BRANCH   4  22
HETATM   22  N3  UNL     1     -23.071  51.496 -62.624  1.00  0.00    -0.234 N
ATOM     23  H32 UNL     1     -23.970  51.017 -62.579  1.00  0.00     0.174 HD
ATOM     24  H31 UNL     1     -22.798  52.048 -63.437  1.00  0.00     0.174 HD
ENDBRANCH   4  22
TORSDOF 2
ENDMDL