MODEL 2
REMARK VINA RESULT: -5.407376072      1.297      1.339
REMARK  4 active torsions:
REMARK  status: ('A' for Active; 'I' for Inactive)
REMARK    1  A    between atoms: N1_2  and  C2_4
REMARK    2  A    between atoms: C3_7  and  N3_8
REMARK    3  A    between atoms: N3_8  and  N4_10
REMARK    4  A    between atoms: C5_15  and  N6_16
ROOT
HETATM    1  C2  UNL     1     -22.636  52.201 -60.884  1.00  0.00     0.706 A
HETATM    2  N2  UNL     1     -21.592  51.598 -60.299  1.00  0.00    -0.020 N
ATOM      3  H2  UNL     1     -21.409  50.622 -60.534  1.00  0.00     0.203 HD
HETATM    4  C3  UNL     1     -20.772  52.198 -59.424  1.00  0.00     0.727 A
HETATM    5  N5  UNL     1     -21.029  53.485 -59.124  1.00  0.00    -0.020 N
ATOM      6  H5  UNL     1     -20.425  53.971 -58.461  1.00  0.00     0.203 HD
HETATM    7  C5  UNL     1     -22.050  54.139 -59.672  1.00  0.00     0.705 A
HETATM    8  N7  UNL     1     -22.845  53.498 -60.544  1.00  0.00    -0.022 N
ATOM      9  H7  UNL     1     -23.629  54.001 -60.963  1.00  0.00     0.203 HD
ENDROOT
BRANCH   4  10
HETATM   10  N3  UNL     1     -19.672  51.533 -58.819  1.00  0.00    -0.134 N
HETATM   11  C4  UNL     1     -19.880  50.379 -58.005  1.00  0.00     0.197 C
BRANCH  10  12
HETATM   12  N4  UNL     1     -18.401  52.029 -59.038  1.00  0.00    -0.329 N
ATOM     13  H42 UNL     1     -18.257  52.998 -59.322  1.00  0.00     0.177 HD
ATOM     14  H41 UNL     1     -17.606  51.403 -58.909  1.00  0.00     0.177 HD
ENDBRANCH  10  12
ENDBRANCH   4  10
BRANCH   1  15
HETATM   15  N1  UNL     1     -23.433  51.670 -61.715  1.00  0.00    -0.229 N
HETATM   16  C1  UNL     1     -23.370  51.764 -63.137  1.00  0.00     0.165 C
ATOM     17  H1  UNL     1     -24.197  51.118 -61.326  1.00  0.00     0.177 HD
ENDBRANCH   1  15
BRANCH   7  18
HETATM   18  N6  UNL     1     -22.232  55.373 -59.335  1.00  0.00    -0.234 N
ATOM     19  H62 UNL     1     -22.747  55.647 -58.498  1.00  0.00     0.174 HD
ATOM     20  H61 UNL     1     -21.839  56.097 -59.936  1.00  0.00     0.174 HD
ENDBRANCH   7  18
TORSDOF 4
ENDMDL