MODEL 3
REMARK VINA RESULT: -6.546453786      1.937      2.064
REMARK  1 active torsions:
REMARK  status: ('A' for Active; 'I' for Inactive)
REMARK    1  A    between atoms: N1_1  and  C1_4
ROOT
HETATM    1  C1  UNL     1     -20.789  49.332 -61.016  1.00  0.00     0.692 A
HETATM    2  N2  UNL     1     -20.294  49.465 -59.773  1.00  0.00    -0.168 N
ATOM      3  H2  UNL     1     -20.383  48.766 -59.035  1.00  0.00     0.186 HD
HETATM    4  C2  UNL     1     -19.664  50.646 -59.639  1.00  0.00     0.217 A
HETATM    5  C3  UNL     1     -18.995  51.287 -58.618  1.00  0.00     0.306 A
HETATM    6  O1  UNL     1     -18.877  50.738 -57.495  1.00  0.00    -0.262 OA
HETATM    7  N3  UNL     1     -18.442  52.514 -58.769  1.00  0.00    -0.259 N
ATOM      8  H3  UNL     1     -17.948  52.977 -58.006  1.00  0.00     0.190 HD
HETATM    9  N4  UNL     1     -18.572  53.081 -59.955  1.00  0.00    -0.247 N
ATOM     10  H4  UNL     1     -18.169  54.005 -60.106  1.00  0.00     0.192 HD
HETATM   11  C4  UNL     1     -19.226  52.474 -60.979  1.00  0.00     0.362 A
HETATM   12  O2  UNL     1     -19.331  53.041 -62.093  1.00  0.00    -0.243 OA
HETATM   13  N5  UNL     1     -19.778  51.252 -60.833  1.00  0.00    -0.167 N
HETATM   14  N6  UNL     1     -20.460  50.451 -61.661  1.00  0.00    -0.120 N
ATOM     15  H6  UNL     1     -20.692  50.664 -62.632  1.00  0.00     0.206 HD
ENDROOT
BRANCH   1  16
HETATM   16  N1  UNL     1     -21.454  48.341 -61.524  1.00  0.00    -0.233 N
ATOM     17  H12 UNL     1     -21.936  47.619 -60.990  1.00  0.00     0.174 HD
ATOM     18  H11 UNL     1     -21.609  48.112 -62.506  1.00  0.00     0.174 HD
ENDBRANCH   1  16
TORSDOF 1
ENDMDL