MODEL 2
REMARK VINA RESULT: -6.403756767      1.661      3.466
REMARK  2 active torsions:
REMARK  status: ('A' for Active; 'I' for Inactive)
REMARK    1  A    between atoms: C3_9  and  N5_10
REMARK    2  A    between atoms: C4_13  and  N6_14
REMARK       I    between atoms: N6_14  and  C5_16
REMARK       I    between atoms: C5_16  and  N7_17
REMARK       I    between atoms: C5_16  and  N8_21
ROOT
HETATM    1  C1  UNL     1     -22.822  51.372 -61.148  1.00  0.00     0.161 C
HETATM    2  N1  UNL     1     -21.399  51.281 -60.896  1.00  0.00    -0.308 N
HETATM    3  C2  UNL     1     -20.753  50.306 -61.586  1.00  0.00     0.210 A
HETATM    4  N2  UNL     1     -21.470  49.453 -62.489  1.00  0.00    -0.062 NA
HETATM    5  N3  UNL     1     -19.431  50.174 -61.392  1.00  0.00    -0.272 N
ATOM      6  H3  UNL     1     -18.917  49.451 -61.895  1.00  0.00     0.189 HD
HETATM    7  N4  UNL     1     -18.791  50.968 -60.559  1.00  0.00    -0.280 N
ATOM      8  H4  UNL     1     -17.786  50.846 -60.430  1.00  0.00     0.188 HD
HETATM    9  C3  UNL     1     -19.420  51.927 -59.879  1.00  0.00     0.158 A
HETATM   10  C4  UNL     1     -20.816  52.120 -60.039  1.00  0.00     0.154 A
ENDROOT
BRANCH  10  11
HETATM   11  N6  UNL     1     -21.360  53.017 -59.394  1.00  0.00    -0.324 N
HETATM   12  C5  UNL     1     -21.665  54.352 -59.344  1.00  0.00     0.481 C
HETATM   13  N7  UNL     1     -23.057  54.569 -59.802  1.00  0.00    -0.033 N
HETATM   14  N8  UNL     1     -21.678  54.826 -57.930  1.00  0.00    -0.033 N
ATOM     15  H73 UNL     1     -23.222  54.173 -60.728  1.00  0.00     0.278 HD
ATOM     16  H72 UNL     1     -23.725  54.004 -59.278  1.00  0.00     0.278 HD
ATOM     17  H71 UNL     1     -23.284  55.562 -59.765  1.00  0.00     0.278 HD
ATOM     18  H83 UNL     1     -22.305  54.270 -57.348  1.00  0.00     0.278 HD
ATOM     19  H82 UNL     1     -20.802  54.617 -57.450  1.00  0.00     0.278 HD
ATOM     20  H81 UNL     1     -21.905  55.819 -57.893  1.00  0.00     0.278 HD
ATOM     21  H6  UNL     1     -21.741  52.591 -58.550  1.00  0.00     0.165 HD
ENDBRANCH  10  11
BRANCH   9  22
HETATM   22  N5  UNL     1     -18.766  52.682 -59.076  1.00  0.00    -0.381 N
ATOM     23  H52 UNL     1     -18.021  53.277 -59.440  1.00  0.00     0.157 HD
ATOM     24  H51 UNL     1     -18.989  52.687 -58.081  1.00  0.00     0.157 HD
ENDBRANCH   9  22
TORSDOF 2
ENDMDL