MODEL 5
REMARK VINA RESULT: -6.958807001      1.762      3.148
REMARK  2 active torsions:
REMARK  status: ('A' for Active; 'I' for Inactive)
REMARK    1  A    between atoms: N1_1  and  C1_4
REMARK    2  A    between atoms: C2_7  and  C3_8
ROOT
HETATM    1  C1  UNL     1     -20.891  52.588 -59.443  1.00  0.00     0.170 C
HETATM    2  N2  UNL     1     -20.736  51.581 -58.564  1.00  0.00    -0.320 N
ATOM      3  H2  UNL     1     -21.133  51.727 -57.635  1.00  0.00     0.169 HD
HETATM    4  C2  UNL     1     -20.122  50.411 -58.767  1.00  0.00     0.175 C
HETATM    5  N4  UNL     1     -19.940  49.826 -59.968  1.00  0.00    -0.312 N
ATOM      6  H4  UNL     1     -19.535  48.892 -59.915  1.00  0.00     0.170 HD
HETATM    7  C4  UNL     1     -20.190  50.238 -61.223  1.00  0.00     0.197 C
HETATM    8  N5  UNL     1     -20.044  49.284 -62.267  1.00  0.00    -0.063 NA
HETATM    9  N6  UNL     1     -20.566  51.485 -61.567  1.00  0.00    -0.294 N
ATOM     10  H6  UNL     1     -20.592  51.650 -62.572  1.00  0.00     0.172 HD
HETATM   11  C5  UNL     1     -20.916  52.556 -60.823  1.00  0.00     0.291 C
HETATM   12  O2  UNL     1     -21.290  53.594 -61.427  1.00  0.00    -0.264 OA
ENDROOT
BRANCH   1  13
HETATM   13  N1  UNL     1     -21.039  53.766 -58.902  1.00  0.00    -0.381 N
ATOM     14  H12 UNL     1     -20.793  53.832 -57.914  1.00  0.00     0.157 HD
ATOM     15  H11 UNL     1     -21.385  54.485 -59.536  1.00  0.00     0.157 HD
ENDBRANCH   1  13
BRANCH   4  16
HETATM   16  C3  UNL     1     -19.600  49.693 -57.607  1.00  0.00     0.298 C
HETATM   17  N3  UNL     1     -18.405  48.931 -57.713  1.00  0.00    -0.054 NA
HETATM   18  O1  UNL     1     -20.235  49.769 -56.525  1.00  0.00    -0.268 OA
ENDBRANCH   4  16
TORSDOF 2
ENDMDL