MODEL 2
REMARK VINA RESULT: -6.312182701      1.805      1.805
REMARK  3 active torsions:
REMARK  status: ('A' for Active; 'I' for Inactive)
REMARK    1  A    between atoms: N1_1  and  C1_4
REMARK    2  A    between atoms: C2_9  and  C3_10
REMARK       I    between atoms: C3_10  and  N4_12
REMARK    3  A    between atoms: N4_12  and  N5_14
ROOT
HETATM    1  C1  UNL     1     -19.152  51.692 -59.339  1.00  0.00     0.693 A
HETATM    2  N2  UNL     1     -20.364  51.663 -58.753  1.00  0.00    -0.132 N
ATOM      3  H2  UNL     1     -20.456  51.249 -57.825  1.00  0.00     0.205 HD
HETATM    4  N3  UNL     1     -21.450  52.160 -59.355  1.00  0.00    -0.277 N
ATOM      5  H3  UNL     1     -22.347  52.116 -58.874  1.00  0.00     0.188 HD
HETATM    6  C2  UNL     1     -21.388  52.716 -60.579  1.00  0.00     0.187 A
HETATM    7  C4  UNL     1     -20.149  52.749 -61.182  1.00  0.00     0.293 A
HETATM    8  O2  UNL     1     -20.071  53.260 -62.315  1.00  0.00    -0.265 OA
HETATM    9  N6  UNL     1     -19.054  52.241 -60.561  1.00  0.00    -0.153 N
ATOM     10  H6  UNL     1     -18.148  52.276 -61.027  1.00  0.00     0.187 HD
ENDROOT
BRANCH   6  11
HETATM   11  C3  UNL     1     -22.582  53.261 -61.235  1.00  0.00     0.293 C
HETATM   12  O1  UNL     1     -23.290  54.094 -60.652  1.00  0.00    -0.264 OA
HETATM   13  N4  UNL     1     -22.961  52.862 -62.539  1.00  0.00    -0.271 N
ATOM     14  H4  UNL     1     -22.388  52.178 -63.033  1.00  0.00     0.189 HD
BRANCH  13  15
HETATM   15  N5  UNL     1     -24.073  53.366 -63.160  1.00  0.00    -0.342 N
ATOM     16  H52 UNL     1     -24.854  52.732 -63.328  1.00  0.00     0.176 HD
ATOM     17  H51 UNL     1     -24.136  54.341 -63.451  1.00  0.00     0.176 HD
ENDBRANCH  13  15
ENDBRANCH   6  11
BRANCH   1  18
HETATM   18  N1  UNL     1     -18.111  51.204 -58.736  1.00  0.00    -0.233 N
ATOM     19  H12 UNL     1     -18.121  50.264 -58.341  1.00  0.00     0.174 HD
ATOM     20  H11 UNL     1     -17.255  51.753 -58.645  1.00  0.00     0.174 HD
ENDBRANCH   1  18
TORSDOF 3
ENDMDL