MODEL 4
REMARK VINA RESULT: -5.955211048      2.183      4.106
REMARK  4 active torsions:
REMARK  status: ('A' for Active; 'I' for Inactive)
REMARK    1  A    between atoms: C2_5  and  C3_6
REMARK    2  A    between atoms: C3_6  and  N3_7
REMARK    3  A    between atoms: C3_6  and  N4_11
REMARK    4  A    between atoms: C4_17  and  N6_18
REMARK       I    between atoms: N6_18  and  C5_20
ROOT
HETATM    1  C1  UNL     1     -22.504  55.398 -59.488  1.00  0.00     0.197 C
HETATM    2  N1  UNL     1     -21.917  54.095 -59.781  1.00  0.00    -0.127 N
HETATM    3  N2  UNL     1     -20.988  53.445 -59.100  1.00  0.00    -0.269 N
ATOM      4  H2  UNL     1     -20.541  53.780 -58.247  1.00  0.00     0.189 HD
HETATM    5  C2  UNL     1     -20.724  52.273 -59.705  1.00  0.00     0.170 A
HETATM    6  N5  UNL     1     -21.528  52.231 -60.781  1.00  0.00    -0.174 N
ATOM      7  H5  UNL     1     -21.572  51.467 -61.454  1.00  0.00     0.185 HD
HETATM    8  C4  UNL     1     -22.260  53.349 -60.831  1.00  0.00     0.702 A
ENDROOT
BRANCH   5   9
HETATM    9  C3  UNL     1     -19.756  51.233 -59.288  1.00  0.00     0.446 C
BRANCH   9  10
HETATM   10  N3  UNL     1     -18.416  51.764 -59.116  1.00  0.00    -0.043 N
ATOM     11  H33 UNL     1     -18.223  51.968 -58.135  1.00  0.00     0.277 HD
ATOM     12  H32 UNL     1     -17.711  51.045 -59.275  1.00  0.00     0.277 HD
ATOM     13  H31 UNL     1     -18.246  52.582 -59.702  1.00  0.00     0.277 HD
ENDBRANCH   9  10
BRANCH   9  14
HETATM   14  N4  UNL     1     -20.181  50.682 -58.006  1.00  0.00    -0.043 N
ATOM     15  H43 UNL     1     -21.036  51.117 -57.659  1.00  0.00     0.277 HD
ATOM     16  H42 UNL     1     -20.530  49.727 -58.090  1.00  0.00     0.277 HD
ATOM     17  H41 UNL     1     -19.409  50.757 -57.343  1.00  0.00     0.277 HD
ENDBRANCH   9  14
ENDBRANCH   5   9
BRANCH   8  18
HETATM   18  N6  UNL     1     -23.156  53.673 -61.731  1.00  0.00    -0.162 N
HETATM   19  C5  UNL     1     -23.197  52.967 -62.961  1.00  0.00     0.200 C
HETATM   20  N7  UNL     1     -24.097  52.061 -63.092  1.00  0.00    -0.373 N
HETATM   21  N8  UNL     1     -22.257  53.291 -63.975  1.00  0.00    -0.063 NA
ATOM     22  H72 UNL     1     -24.773  51.827 -62.364  1.00  0.00     0.158 HD
ATOM     23  H71 UNL     1     -24.127  51.554 -63.976  1.00  0.00     0.158 HD
ATOM     24  H6  UNL     1     -23.818  54.427 -61.549  1.00  0.00     0.187 HD
ENDBRANCH   8  18
TORSDOF 4
ENDMDL