MODEL 5
REMARK VINA RESULT: -6.541073096      1.869      2.828
REMARK  4 active torsions:
REMARK  status: ('A' for Active; 'I' for Inactive)
REMARK    1  A    between atoms: N1_1  and  N2_4
REMARK    2  A    between atoms: C1_6  and  C2_8
REMARK    3  A    between atoms: C3_15  and  C4_16
REMARK       I    between atoms: C4_16  and  N7_18
REMARK    4  A    between atoms: N7_18  and  N8_20
ROOT
HETATM    1  C2  UNL     1     -19.945  52.330 -59.474  1.00  0.00     0.125 A
HETATM    2  N4  UNL     1     -18.796  52.573 -58.767  1.00  0.00    -0.281 N
ATOM      3  H4  UNL     1     -18.521  53.469 -58.365  1.00  0.00     0.188 HD
HETATM    4  N5  UNL     1     -18.120  51.471 -58.698  1.00  0.00    -0.242 N
ATOM      5  H5  UNL     1     -17.221  51.370 -58.226  1.00  0.00     0.208 HD
HETATM    6  N6  UNL     1     -18.748  50.503 -59.317  1.00  0.00    -0.279 N
ATOM      7  H6  UNL     1     -18.430  49.539 -59.408  1.00  0.00     0.189 HD
HETATM    8  C3  UNL     1     -19.922  51.027 -59.825  1.00  0.00     0.150 A
ENDROOT
BRANCH   1   9
HETATM    9  C1  UNL     1     -20.932  53.371 -59.735  1.00  0.00     0.161 C
HETATM   10  N2  UNL     1     -21.563  53.972 -58.851  1.00  0.00    -0.292 N
ATOM     11  H2  UNL     1     -21.372  53.716 -57.882  1.00  0.00     0.187 HD
HETATM   12  N3  UNL     1     -21.213  53.745 -61.101  1.00  0.00    -0.079 NA
BRANCH  10  13
HETATM   13  N1  UNL     1     -22.503  54.964 -59.073  1.00  0.00    -0.344 N
ATOM     14  H12 UNL     1     -23.331  54.943 -58.477  1.00  0.00     0.176 HD
ATOM     15  H11 UNL     1     -22.429  55.698 -59.777  1.00  0.00     0.176 HD
ENDBRANCH  10  13
ENDBRANCH   1   9
BRANCH   8  16
HETATM   16  C4  UNL     1     -20.880  50.233 -60.579  1.00  0.00     0.290 C
HETATM   17  O1  UNL     1     -22.090  50.434 -60.675  1.00  0.00    -0.264 OA
HETATM   18  N7  UNL     1     -20.386  49.085 -61.301  1.00  0.00    -0.271 N
ATOM     19  H7  UNL     1     -19.395  48.844 -61.279  1.00  0.00     0.189 HD
BRANCH  18  20
HETATM   20  N8  UNL     1     -21.281  48.318 -62.024  1.00  0.00    -0.342 N
ATOM     21  H82 UNL     1     -21.171  48.233 -63.034  1.00  0.00     0.176 HD
ATOM     22  H81 UNL     1     -22.038  47.850 -61.528  1.00  0.00     0.176 HD
ENDBRANCH  18  20
ENDBRANCH   8  16
TORSDOF 4
ENDMDL