MODEL 2
REMARK VINA RESULT: -9.326716977      1.572      2.072
REMARK  19 active torsions:
REMARK  status: ('A' for Active; 'I' for Inactive)
REMARK    1  A    between atoms: C2_3  and  C3_4
REMARK    2  A    between atoms: C5_8  and  O1_9
REMARK    3  A    between atoms: C6_11  and  C7_12
REMARK    4  A    between atoms: C7_12  and  O2_13
REMARK    5  A    between atoms: C7_12  and  O3_15
REMARK    6  A    between atoms: C11_22  and  N4_23
REMARK    7  A    between atoms: N4_23  and  C12_25
REMARK    8  A    between atoms: C12_25  and  C13_30
REMARK    9  A    between atoms: N5_26  and  O4_28
REMARK   10  A    between atoms: C13_30  and  C14_31
REMARK   11  A    between atoms: C13_30  and  N7_40
REMARK   12  A    between atoms: C16_35  and  C17_36
REMARK   13  A    between atoms: C19_42  and  C20_43
REMARK   14  A    between atoms: C20_43  and  N8_44
REMARK   15  A    between atoms: N8_44  and  C21_46
REMARK   16  A    between atoms: C21_46  and  O7_48
REMARK   17  A    between atoms: C21_46  and  C23_50
REMARK   18  A    between atoms: C23_50  and  O8_51
REMARK   19  A    between atoms: C25_59  and  O10_60
ROOT
HETATM    1  C12 UNL     1     -20.241  24.862  39.799  1.00  0.00     0.129 C
HETATM    2  N5  UNL     1     -19.796  24.692  40.980  1.00  0.00    -0.255 N
ATOM      3  H5  UNL     1     -19.768  23.743  41.353  1.00  0.00     0.195 HD
ENDROOT
BRANCH   1   4
HETATM    4  N4  UNL     1     -20.679  23.688  39.064  1.00  0.00    -0.361 N
ATOM      5  H4  UNL     1     -21.633  23.657  38.703  1.00  0.00     0.162 HD
BRANCH   4   6
HETATM    6  C11 UNL     1     -19.817  22.576  38.833  1.00  0.00     0.204 C
HETATM    7  C10 UNL     1     -18.934  22.813  37.620  1.00  0.00     0.174 C
HETATM    8  C9  UNL     1     -17.487  22.691  37.823  1.00  0.00     0.066 A
HETATM    9  N11 UNL     1     -19.251  21.456  37.123  1.00  0.00    -0.305 N
HETATM   10  N1  UNL     1     -16.431  23.156  38.535  1.00  0.00    -0.337 N
HETATM   11  C8  UNL     1     -17.022  21.735  36.948  1.00  0.00     0.085 A
HETATM   12  C1  UNL     1     -16.582  24.185  39.534  1.00  0.00     0.158 C
HETATM   13  C2  UNL     1     -15.352  22.514  38.118  1.00  0.00     0.120 A
HETATM   14  N3  UNL     1     -15.717  21.659  37.159  1.00  0.00    -0.340 N
ATOM     15  H3  UNL     1     -15.082  21.037  36.660  1.00  0.00     0.167 HD
HETATM   16  C25 UNL     1     -18.197  21.216  36.162  1.00  0.00     0.276 C
HETATM   17  C24 UNL     1     -20.364  21.461  38.001  1.00  0.00     0.248 C
HETATM   18  O9  UNL     1     -21.428  20.804  38.092  1.00  0.00    -0.271 OA
BRANCH  13  19
HETATM   19  C3  UNL     1     -13.957  22.673  38.565  1.00  0.00     0.039 A
HETATM   20  C4  UNL     1     -13.221  23.815  38.427  1.00  0.00     0.106 A
HETATM   21  N2  UNL     1     -11.976  23.605  38.952  1.00  0.00    -0.345 N
HETATM   22  C5  UNL     1     -11.935  22.357  39.406  1.00  0.00     0.152 A
ATOM     23  H2  UNL     1     -11.216  24.284  38.987  1.00  0.00     0.167 HD
HETATM   24  C6  UNL     1     -13.170  21.729  39.181  1.00  0.00     0.062 A
BRANCH  22  25
HETATM   25  O1  UNL     1     -10.853  21.732  40.020  1.00  0.00    -0.346 OA
ATOM     26  H1  UNL     1     -10.313  21.042  39.651  1.00  0.00     0.219 HD
ENDBRANCH  22  25
BRANCH  24  27
HETATM   27  C7  UNL     1     -13.478  20.320  39.504  1.00  0.00     0.293 C
BRANCH  27  28
HETATM   28  O2  UNL     1     -12.646  19.799  40.455  1.00  0.00    -0.367 OA
ATOM     29  H2  UNL     1     -13.105  19.269  41.097  1.00  0.00     0.213 HD
ENDBRANCH  27  28
BRANCH  27  30
HETATM   30  O3  UNL     1     -13.426  19.558  38.315  1.00  0.00    -0.367 OA
ATOM     31  H3  UNL     1     -13.095  18.691  38.521  1.00  0.00     0.213 HD
ENDBRANCH  27  30
ENDBRANCH  24  27
ENDBRANCH  13  19
BRANCH  16  32
HETATM   32  O10 UNL     1     -18.369  22.079  35.104  1.00  0.00    -0.371 OA
ATOM     33  H10 UNL     1     -17.931  21.683  34.360  1.00  0.00     0.212 HD
ENDBRANCH  16  32
ENDBRANCH   4   6
ENDBRANCH   1   4
BRANCH   1  34
HETATM   34  C13 UNL     1     -20.371  26.142  39.075  1.00  0.00     0.231 C
BRANCH  34  35
HETATM   35  C14 UNL     1     -20.097  25.951  37.603  1.00  0.00     0.084 A
HETATM   36  N6  UNL     1     -20.990  25.622  36.687  1.00  0.00    -0.360 N
HETATM   37  C15 UNL     1     -20.634  25.489  35.449  1.00  0.00     0.114 A
ATOM     38  H6  UNL     1     -21.963  25.471  36.955  1.00  0.00     0.165 HD
HETATM   39  C16 UNL     1     -19.308  25.703  35.147  1.00  0.00     0.098 A
HETATM   40  S1  UNL     1     -18.665  26.084  36.686  1.00  0.00    -0.066 SA
BRANCH  39  41
HETATM   41  C17 UNL     1     -18.654  25.618  33.835  1.00  0.00     0.218 C
HETATM   42  O5  UNL     1     -19.059  26.317  32.904  1.00  0.00    -0.643 OA
HETATM   43  O6  UNL     1     -17.604  24.753  33.687  1.00  0.00    -0.643 OA
ENDBRANCH  39  41
ENDBRANCH  34  35
BRANCH  34  44
HETATM   44  N7  UNL     1     -21.615  26.832  39.252  1.00  0.00    -0.266 N
HETATM   45  C18 UNL     1     -21.975  28.104  39.010  1.00  0.00     0.137 A
HETATM   46  C19 UNL     1     -23.291  28.297  39.360  1.00  0.00     0.058 A
HETATM   47  N9  UNL     1     -23.715  27.108  39.818  1.00  0.00    -0.285 N
HETATM   48  N10 UNL     1     -22.707  26.231  39.752  1.00  0.00    -0.019 NA
ATOM     49  H9  UNL     1     -24.654  26.905  40.161  1.00  0.00     0.184 HD
BRANCH  46  50
HETATM   50  C20 UNL     1     -24.061  29.592  39.243  1.00  0.00     0.176 C
BRANCH  50  51
HETATM   51  N8  UNL     1     -24.882  29.583  38.084  1.00  0.00    -0.385 N
ATOM     52  H8  UNL     1     -25.080  28.719  37.580  1.00  0.00     0.156 HD
BRANCH  51  53
HETATM   53  C21 UNL     1     -25.415  30.825  37.659  1.00  0.00     0.145 C
HETATM   54  C22 UNL     1     -25.504  31.836  38.813  1.00  0.00     0.072 C
BRANCH  53  55
HETATM   55  O7  UNL     1     -24.442  31.404  36.791  1.00  0.00    -0.369 OA
ATOM     56  H7  UNL     1     -24.704  31.179  35.906  1.00  0.00     0.212 HD
ENDBRANCH  53  55
BRANCH  53  57
HETATM   57  C23 UNL     1     -26.732  30.810  36.973  1.00  0.00     0.224 C
BRANCH  57  58
HETATM   58  O8  UNL     1     -27.732  31.558  37.525  1.00  0.00    -0.396 OA
ATOM     59  H8  UNL     1     -27.974  32.359  37.075  1.00  0.00     0.209 HD
ENDBRANCH  57  58
ENDBRANCH  53  57
ENDBRANCH  51  53
ENDBRANCH  50  51
ENDBRANCH  46  50
ENDBRANCH  34  44
ENDBRANCH   1  34
BRANCH   2  60
HETATM   60  O4  UNL     1     -19.364  25.695  41.758  1.00  0.00    -0.288 OA
ATOM     61  H4  UNL     1     -19.653  26.594  41.662  1.00  0.00     0.244 HD
ENDBRANCH   2  60
TORSDOF 19
ENDMDL