MODEL 2
REMARK VINA RESULT: -10.777134457      1.224      2.276
REMARK  16 active torsions:
REMARK  status: ('A' for Active; 'I' for Inactive)
REMARK    1  A    between atoms: C3_3  and  N1_4
REMARK    2  A    between atoms: N1_4  and  C4_6
REMARK    3  A    between atoms: C4_6  and  C5_7
REMARK    4  A    between atoms: C5_7  and  N2_8
REMARK    5  A    between atoms: C7_10  and  C8_11
REMARK    6  A    between atoms: C11_15  and  O2_16
REMARK    7  A    between atoms: C13_23  and  C14_24
REMARK    8  A    between atoms: C14_24  and  N5_25
REMARK    9  A    between atoms: C17_32  and  N8_33
REMARK   10  A    between atoms: C19_35  and  C20_36
REMARK   11  A    between atoms: C20_36  and  N9_37
REMARK   12  A    between atoms: C20_36  and  C21_41
REMARK   13  A    between atoms: C21_41  and  C22_42
REMARK   14  A    between atoms: C24_53  and  N14_54
REMARK   15  A    between atoms: N15_57  and  N16_58
REMARK   16  A    between atoms: N17_64  and  O6_66
ROOT
HETATM    1  N2  UNL     1     -17.758  22.239  37.496  1.00  0.00    -0.342 N
HETATM    2  C6  UNL     1     -18.325  21.820  36.329  1.00  0.00     0.124 A
HETATM    3  C7  UNL     1     -19.047  22.843  35.766  1.00  0.00     0.076 A
HETATM    4  N4  UNL     1     -18.917  23.892  36.603  1.00  0.00    -0.341 N
ATOM      5  H4  UNL     1     -19.335  24.813  36.472  1.00  0.00     0.167 HD
HETATM    6  C13 UNL     1     -18.128  23.516  37.656  1.00  0.00     0.102 A
ENDROOT
BRANCH   6   7
HETATM    7  C14 UNL     1     -17.723  24.385  38.789  1.00  0.00     0.208 C
BRANCH   7   8
HETATM    8  N5  UNL     1     -18.880  24.506  39.646  1.00  0.00    -0.319 N
HETATM    9  C15 UNL     1     -19.172  23.752  40.708  1.00  0.00     0.186 A
HETATM   10  N6  UNL     1     -20.336  24.162  41.265  1.00  0.00    -0.335 N
HETATM   11  C16 UNL     1     -20.802  25.203  40.546  1.00  0.00     0.167 A
ATOM     12  H6  UNL     1     -20.783  23.753  42.086  1.00  0.00     0.168 HD
HETATM   13  N7  UNL     1     -21.769  26.125  40.386  1.00  0.00    -0.171 N
HETATM   14  C23 UNL     1     -19.870  25.408  39.526  1.00  0.00     0.169 A
HETATM   15  C17 UNL     1     -21.499  26.900  39.321  1.00  0.00     0.705 A
ATOM     16  H7  UNL     1     -22.588  26.221  40.985  1.00  0.00     0.186 HD
HETATM   17  N12 UNL     1     -20.354  26.460  38.812  1.00  0.00    -0.171 N
ATOM     18  H12 UNL     1     -19.898  26.858  37.992  1.00  0.00     0.186 HD
BRANCH  15  19
HETATM   19  N8  UNL     1     -22.319  27.986  38.857  1.00  0.00    -0.080 N
HETATM   20  C18 UNL     1     -23.140  27.997  37.804  1.00  0.00     0.161 A
HETATM   21  C19 UNL     1     -23.719  29.230  37.734  1.00  0.00     0.072 A
HETATM   22  N10 UNL     1     -23.232  29.953  38.758  1.00  0.00    -0.284 N
HETATM   23  N11 UNL     1     -22.391  29.180  39.420  1.00  0.00    -0.001 NA
ATOM     24  H10 UNL     1     -23.468  30.919  38.982  1.00  0.00     0.184 HD
BRANCH  21  25
HETATM   25  C20 UNL     1     -24.704  29.689  36.716  1.00  0.00     0.245 C
BRANCH  25  26
HETATM   26  N9  UNL     1     -24.479  31.063  36.317  1.00  0.00    -0.069 N
ATOM     27  H93 UNL     1     -24.853  31.713  37.007  1.00  0.00     0.275 HD
ATOM     28  H92 UNL     1     -23.491  31.308  36.381  1.00  0.00     0.275 HD
ATOM     29  H91 UNL     1     -24.847  31.258  35.387  1.00  0.00     0.275 HD
ENDBRANCH  25  26
BRANCH  25  30
HETATM   30  C21 UNL     1     -26.078  29.570  37.330  1.00  0.00     0.152 C
BRANCH  30  31
HETATM   31  C22 UNL     1     -26.529  30.942  37.733  1.00  0.00     0.174 C
HETATM   32  O3  UNL     1     -26.054  31.438  38.779  1.00  0.00    -0.648 OA
HETATM   33  O4  UNL     1     -27.435  31.667  37.004  1.00  0.00    -0.648 OA
ENDBRANCH  30  31
ENDBRANCH  25  30
ENDBRANCH  21  25
ENDBRANCH  15  19
ENDBRANCH   7   8
ENDBRANCH   6   7
BRANCH   1  34
HETATM   34  C5  UNL     1     -16.950  21.366  38.328  1.00  0.00     0.149 C
BRANCH  34  35
HETATM   35  C4  UNL     1     -15.552  21.294  37.763  1.00  0.00     0.141 C
BRANCH  35  36
HETATM   36  N1  UNL     1     -14.516  21.623  38.701  1.00  0.00    -0.374 N
ATOM     37  H1  UNL     1     -14.326  20.937  39.431  1.00  0.00     0.161 HD
BRANCH  36  38
HETATM   38  C3  UNL     1     -13.735  22.795  38.718  1.00  0.00     0.125 C
HETATM   39  C2  UNL     1     -12.409  22.673  39.074  1.00  0.00     0.017 C
HETATM   40  C1  UNL     1     -11.916  21.294  39.193  1.00  0.00     0.055 C
HETATM   41  C26 UNL     1     -11.513  23.703  39.321  1.00  0.00     0.134 C
HETATM   42  C25 UNL     1     -11.588  25.031  38.964  1.00  0.00     0.310 C
HETATM   43  N17 UNL     1     -10.469  23.369  39.975  1.00  0.00    -0.263 N
HETATM   44  N15 UNL     1     -12.609  25.613  38.284  1.00  0.00    -0.052 N
HETATM   45  O5  UNL     1     -10.633  25.784  39.289  1.00  0.00    -0.263 OA
HETATM   46  C24 UNL     1     -13.826  25.116  37.973  1.00  0.00     0.701 C
HETATM   47  N13 UNL     1     -14.380  23.943  38.400  1.00  0.00    -0.175 N
ATOM     48  H13 UNL     1     -15.396  23.930  38.490  1.00  0.00     0.186 HD
ATOM     49  H17 UNL     1     -10.383  22.392  40.256  1.00  0.00     0.194 HD
BRANCH  44  50
HETATM   50  N16 UNL     1     -12.373  26.916  37.838  1.00  0.00    -0.321 N
ATOM     51 2H16 UNL     1     -12.905  27.204  37.016  1.00  0.00     0.178 HD
ATOM     52 1H16 UNL     1     -11.690  27.441  38.385  1.00  0.00     0.178 HD
ENDBRANCH  44  50
BRANCH  46  53
HETATM   53  N14 UNL     1     -14.550  25.818  37.193  1.00  0.00    -0.233 N
ATOM     54 2H14 UNL     1     -15.557  25.791  37.352  1.00  0.00     0.174 HD
ATOM     55 1H14 UNL     1     -14.048  26.344  36.476  1.00  0.00     0.174 HD
ENDBRANCH  46  53
BRANCH  43  56
HETATM   56  O6  UNL     1      -9.465  24.211  40.326  1.00  0.00    -0.289 OA
ATOM     57  H6  UNL     1      -9.431  24.716  41.130  1.00  0.00     0.244 HD
ENDBRANCH  43  56
ENDBRANCH  36  38
ENDBRANCH  35  36
ENDBRANCH  34  35
ENDBRANCH   1  34
BRANCH   3  58
HETATM   58  C8  UNL     1     -19.803  22.808  34.521  1.00  0.00     0.064 A
HETATM   59  C9  UNL     1     -19.185  22.468  33.359  1.00  0.00     0.089 A
HETATM   60  C10 UNL     1     -19.832  22.410  32.134  1.00  0.00     0.208 A
HETATM   61  O1  UNL     1     -19.211  22.090  31.094  1.00  0.00    -0.285 OA
HETATM   62  C11 UNL     1     -21.167  22.717  32.126  1.00  0.00     0.131 A
HETATM   63  C12 UNL     1     -21.788  23.064  33.322  1.00  0.00     0.129 A
HETATM   64  N3  UNL     1     -21.113  23.108  34.498  1.00  0.00    -0.361 N
ATOM     65  H3  UNL     1     -21.597  23.366  35.359  1.00  0.00     0.165 HD
BRANCH  62  66
HETATM   66  O2  UNL     1     -21.885  22.682  30.939  1.00  0.00    -0.356 OA
ATOM     67  H2  UNL     1     -21.977  21.867  30.460  1.00  0.00     0.218 HD
ENDBRANCH  62  66
ENDBRANCH   3  58
TORSDOF 16
ENDMDL