MODEL 1
REMARK VINA RESULT: -9.042364539      0.000      0.000
REMARK  23 active torsions:
REMARK  status: ('A' for Active; 'I' for Inactive)
REMARK    1  A    between atoms: C2_2  and  O1_3
REMARK    2  A    between atoms: O1_3  and  C3_4
REMARK    3  A    between atoms: C3_4  and  C4_6
REMARK    4  A    between atoms: C5_8  and  O4_9
REMARK    5  A    between atoms: O4_9  and  C6_10
REMARK    6  A    between atoms: C7_11  and  C8_12
REMARK    7  A    between atoms: N1_13  and  O5_15
REMARK    8  A    between atoms: O5_15  and  C9_16
REMARK    9  A    between atoms: C9_16  and  C10_17
REMARK   10  A    between atoms: C10_17  and  O6_18
REMARK   11  A    between atoms: C10_17  and  C11_20
REMARK   12  A    between atoms: C11_20  and  O7_21
REMARK   13  A    between atoms: C11_20  and  C12_23
REMARK   14  A    between atoms: C12_23  and  O8_24
REMARK   15  A    between atoms: C15_28  and  O9_29
REMARK   16  A    between atoms: C16_31  and  O10_32
REMARK   17  A    between atoms: C19_37  and  O12_38
REMARK   18  A    between atoms: O12_38  and  C20_39
REMARK   19  A    between atoms: C22_41  and  O13_42
REMARK   20  A    between atoms: C23_44  and  O14_45
REMARK   21  A    between atoms: C26_49  and  O15_50
REMARK   22  A    between atoms: C29_54  and  O16_55
REMARK   23  A    between atoms: C29_54  and  O17_57
ROOT
HETATM    1  C4  UNL     1     -19.292  23.897  39.569  1.00  0.00     0.260 C
HETATM    2  O3  UNL     1     -20.352  24.446  38.839  1.00  0.00    -0.342 OA
HETATM    3  C5  UNL     1     -21.368  23.529  38.587  1.00  0.00     0.274 C
HETATM    4  C17 UNL     1     -20.817  22.628  37.521  1.00  0.00     0.142 C
HETATM    5  C18 UNL     1     -19.615  21.965  38.088  1.00  0.00     0.163 C
HETATM    6  O11 UNL     1     -19.527  20.762  37.947  1.00  0.00    -0.295 OA
HETATM    7  C19 UNL     1     -18.605  22.818  38.788  1.00  0.00     0.238 C
ENDROOT
BRANCH   3   8
HETATM    8  O4  UNL     1     -22.451  24.325  38.080  1.00  0.00    -0.316 OA
BRANCH   8   9
HETATM    9  C6  UNL     1     -22.429  25.698  37.973  1.00  0.00     0.119 A
HETATM   10  C7  UNL     1     -22.343  26.303  36.740  1.00  0.00     0.018 A
HETATM   11  C13 UNL     1     -22.327  27.676  36.593  1.00  0.00     0.018 A
HETATM   12  C14 UNL     1     -22.396  28.503  37.704  1.00  0.00     0.040 A
HETATM   13  C15 UNL     1     -22.477  27.941  38.924  1.00  0.00     0.101 A
HETATM   14  C16 UNL     1     -22.494  26.540  39.081  1.00  0.00     0.133 A
BRANCH  10  15
HETATM   15  C8  UNL     1     -22.204  25.481  35.551  1.00  0.00     0.128 C
HETATM   16  N1  UNL     1     -21.165  24.915  35.190  1.00  0.00    -0.277 N
ATOM     17  H1  UNL     1     -21.344  24.406  34.324  1.00  0.00     0.193 HD
BRANCH  16  18
HETATM   18  O5  UNL     1     -19.917  24.744  35.535  1.00  0.00    -0.278 OA
BRANCH  18  19
HETATM   19  C9  UNL     1     -18.919  25.757  35.332  1.00  0.00     0.235 C
BRANCH  19  20
HETATM   20  C10 UNL     1     -17.842  25.240  34.389  1.00  0.00     0.175 C
BRANCH  20  21
HETATM   21  O6  UNL     1     -16.663  25.975  34.534  1.00  0.00    -0.391 OA
ATOM     22  H6  UNL     1     -15.978  25.625  33.978  1.00  0.00     0.210 HD
ENDBRANCH  20  21
BRANCH  20  23
HETATM   23  C11 UNL     1     -18.339  25.378  32.984  1.00  0.00     0.172 C
BRANCH  23  24
HETATM   24  O7  UNL     1     -19.341  26.337  32.889  1.00  0.00    -0.391 OA
ATOM     25  H7  UNL     1     -19.739  26.512  33.735  1.00  0.00     0.210 HD
ENDBRANCH  23  24
BRANCH  23  26
HETATM   26  C12 UNL     1     -18.857  24.079  32.418  1.00  0.00     0.198 C
BRANCH  26  27
HETATM   27  O8  UNL     1     -20.245  24.015  32.442  1.00  0.00    -0.398 OA
ATOM     28  H8  UNL     1     -20.560  23.218  32.851  1.00  0.00     0.209 HD
ENDBRANCH  26  27
ENDBRANCH  23  26
ENDBRANCH  20  23
ENDBRANCH  19  20
ENDBRANCH  18  19
ENDBRANCH  16  18
ENDBRANCH  10  15
BRANCH  13  29
HETATM   29  O9  UNL     1     -22.546  28.740  40.065  1.00  0.00    -0.358 OA
ATOM     30  H9  UNL     1     -21.757  28.963  40.543  1.00  0.00     0.217 HD
ENDBRANCH  13  29
BRANCH  14  31
HETATM   31  O10 UNL     1     -22.568  26.044  40.347  1.00  0.00    -0.356 OA
ATOM     32  H10 UNL     1     -23.187  26.390  40.980  1.00  0.00     0.218 HD
ENDBRANCH  14  31
ENDBRANCH   8   9
ENDBRANCH   3   8
BRANCH   1  33
HETATM   33  C3  UNL     1     -18.514  25.016  40.049  1.00  0.00     0.291 C
HETATM   34  O2  UNL     1     -17.312  25.007  40.442  1.00  0.00    -0.262 OA
BRANCH  33  35
HETATM   35  O1  UNL     1     -19.130  26.292  40.100  1.00  0.00    -0.320 OA
BRANCH  35  36
HETATM   36  C2  UNL     1     -19.262  27.002  41.331  1.00  0.00     0.174 C
HETATM   37  C1  UNL     1     -19.308  28.469  40.984  1.00  0.00     0.034 C
ENDBRANCH  35  36
ENDBRANCH  33  35
ENDBRANCH   1  33
BRANCH   7  38
HETATM   38  O12 UNL     1     -17.483  23.165  38.040  1.00  0.00    -0.319 OA
BRANCH  38  39
HETATM   39  C20 UNL     1     -16.249  22.554  38.334  1.00  0.00     0.157 C
HETATM   40  C21 UNL     1     -15.120  23.238  38.264  1.00  0.00     0.064 A
HETATM   41  C22 UNL     1     -15.095  24.574  37.886  1.00  0.00     0.115 A
HETATM   42  C27 UNL     1     -13.920  22.585  38.623  1.00  0.00     0.018 A
HETATM   43  C23 UNL     1     -13.951  25.291  37.847  1.00  0.00     0.108 A
HETATM   44  C24 UNL     1     -12.766  24.682  38.191  1.00  0.00     0.008 A
HETATM   45  C25 UNL     1     -11.527  25.496  38.137  1.00  0.00     0.054 C
HETATM   46  C26 UNL     1     -12.750  23.359  38.570  1.00  0.00     0.085 A
HETATM   47  C28 UNL     1     -13.867  21.344  39.032  1.00  0.00     0.080 C
HETATM   48  C29 UNL     1     -15.079  20.527  39.150  1.00  0.00     0.267 C
HETATM   49  N2  UNL     1     -16.260  21.164  38.697  1.00  0.00    -0.312 N
ATOM     50  H2  UNL     1     -17.127  20.631  38.629  1.00  0.00     0.167 HD
BRANCH  41  51
HETATM   51  O13 UNL     1     -16.298  25.122  37.549  1.00  0.00    -0.357 OA
ATOM     52  H13 UNL     1     -16.267  25.862  36.954  1.00  0.00     0.217 HD
ENDBRANCH  41  51
BRANCH  43  53
HETATM   53  O14 UNL     1     -13.943  26.647  37.463  1.00  0.00    -0.357 OA
ATOM     54  H14 UNL     1     -13.165  27.185  37.554  1.00  0.00     0.217 HD
ENDBRANCH  43  53
BRANCH  46  55
HETATM   55  O15 UNL     1     -11.536  22.787  38.907  1.00  0.00    -0.359 OA
ATOM     56  H15 UNL     1     -10.741  23.266  38.704  1.00  0.00     0.217 HD
ENDBRANCH  46  55
BRANCH  48  57
HETATM   57  O16 UNL     1     -15.203  20.016  40.454  1.00  0.00    -0.345 OA
ATOM     58  H16 UNL     1     -15.997  19.500  40.535  1.00  0.00     0.215 HD
ENDBRANCH  48  57
BRANCH  48  59
HETATM   59  O17 UNL     1     -14.877  19.421  38.274  1.00  0.00    -0.345 OA
ATOM     60  H17 UNL     1     -14.475  18.746  38.809  1.00  0.00     0.215 HD
ENDBRANCH  48  59
ENDBRANCH  38  39
ENDBRANCH   7  38
TORSDOF 23
ENDMDL