MODEL 1
REMARK VINA RESULT: -10.004300966      0.000      0.000
REMARK  13 active torsions:
REMARK  status: ('A' for Active; 'I' for Inactive)
REMARK    1  A    between atoms: C3_6  and  O1_7
REMARK    2  A    between atoms: O1_7  and  C4_8
REMARK    3  A    between atoms: C4_8  and  C5_9
REMARK    4  A    between atoms: C5_9  and  C6_10
REMARK    5  A    between atoms: N3_12  and  C8_13
REMARK    6  A    between atoms: C8_13  and  C9_14
REMARK    7  A    between atoms: C12_17  and  N4_18
REMARK       I    between atoms: N4_18  and  C13_19
REMARK    8  A    between atoms: N4_18  and  C17_39
REMARK    9  A    between atoms: C13_19  and  C14_21
REMARK   10  A    between atoms: N7_26  and  C15_27
REMARK   11  A    between atoms: C16_33  and  N10_34
REMARK   12  A    between atoms: C25_59  and  N17_60
REMARK   13  A    between atoms: C26_67  and  N20_68
ROOT
HETATM    1  N1  UNL     1     -16.160  24.994  36.691  1.00  0.00    -0.188 NA
HETATM    2  C1  UNL     1     -15.121  25.036  37.208  1.00  0.00     0.137 C
HETATM    3  C2  UNL     1     -13.837  25.112  37.854  1.00  0.00     0.205 A
HETATM    4  N2  UNL     1     -13.148  23.989  38.074  1.00  0.00    -0.298 N
ATOM      5  H2  UNL     1     -13.534  23.092  37.782  1.00  0.00     0.171 HD
HETATM    6  C3  UNL     1     -11.950  24.035  38.675  1.00  0.00     0.239 A
HETATM    7  N19 UNL     1     -11.442  25.251  39.061  1.00  0.00    -0.155 N
ATOM      8  H19 UNL     1     -10.532  25.301  39.520  1.00  0.00     0.188 HD
HETATM    9  C26 UNL     1     -12.140  26.367  38.836  1.00  0.00     0.681 A
HETATM   10  N21 UNL     1     -13.340  26.288  38.231  1.00  0.00    -0.167 N
ATOM     11  H21 UNL     1     -13.873  27.140  38.058  1.00  0.00     0.186 HD
ENDROOT
BRANCH   6  12
HETATM   12  O1  UNL     1     -11.200  22.917  38.926  1.00  0.00    -0.321 OA
BRANCH  12  13
HETATM   13  C4  UNL     1     -11.507  21.883  39.801  1.00  0.00     0.185 C
BRANCH  13  14
HETATM   14  C5  UNL     1     -11.437  20.546  39.145  1.00  0.00     0.086 C
BRANCH  14  15
HETATM   15  C6  UNL     1     -12.837  20.021  38.956  1.00  0.00     0.044 A
HETATM   16  C7  UNL     1     -13.955  20.348  39.684  1.00  0.00     0.135 A
HETATM   17  N3  UNL     1     -14.979  19.645  39.177  1.00  0.00    -0.188 N
HETATM   18  C25 UNL     1     -14.519  18.903  38.167  1.00  0.00     0.678 A
HETATM   19  N18 UNL     1     -13.201  19.127  38.024  1.00  0.00    -0.194 N
ATOM     20  H18 UNL     1     -12.589  18.696  37.332  1.00  0.00     0.184 HD
BRANCH  17  21
HETATM   21  C8  UNL     1     -16.348  19.701  39.684  1.00  0.00     0.185 C
BRANCH  21  22
HETATM   22  C9  UNL     1     -17.082  20.901  39.189  1.00  0.00    -0.039 A
HETATM   23  C10 UNL     1     -17.042  22.079  39.878  1.00  0.00     0.011 A
HETATM   24  C11 UNL     1     -17.716  23.172  39.413  1.00  0.00     0.031 A
HETATM   25  C12 UNL     1     -18.475  23.188  38.245  1.00  0.00     0.044 A
HETATM   26  C23 UNL     1     -18.505  21.993  37.565  1.00  0.00     0.031 A
HETATM   27  C24 UNL     1     -17.818  20.855  38.024  1.00  0.00     0.011 A
BRANCH  25  28
HETATM   28  N4  UNL     1     -19.176  24.338  37.830  1.00  0.00    -0.260 N
HETATM   29  C13 UNL     1     -19.222  25.530  38.547  1.00  0.00     0.301 C
HETATM   30  O2  UNL     1     -18.668  25.602  39.685  1.00  0.00    -0.263 OA
BRANCH  29  31
HETATM   31  C14 UNL     1     -19.899  26.747  38.029  1.00  0.00     0.207 A
HETATM   32  N5  UNL     1     -19.623  27.502  36.965  1.00  0.00    -0.264 N
HETATM   33  N6  UNL     1     -20.497  28.484  36.902  1.00  0.00    -0.218 N
ATOM     34  H5  UNL     1     -18.860  27.344  36.306  1.00  0.00     0.190 HD
HETATM   35  N7  UNL     1     -21.355  28.379  37.931  1.00  0.00    -0.158 N
ATOM     36  H6  UNL     1     -20.519  29.210  36.186  1.00  0.00     0.210 HD
HETATM   37  N11 UNL     1     -20.963  27.310  38.598  1.00  0.00    -0.255 N
ATOM     38  H11 UNL     1     -21.417  26.959  39.442  1.00  0.00     0.191 HD
BRANCH  35  39
HETATM   39  C15 UNL     1     -22.433  29.274  38.178  1.00  0.00     0.214 A
HETATM   40  N8  UNL     1     -22.579  30.089  39.211  1.00  0.00    -0.219 N
HETATM   41  O3  UNL     1     -23.693  30.750  39.086  1.00  0.00    -0.153 OA
ATOM     42  H8  UNL     1     -21.922  30.185  39.984  1.00  0.00     0.198 HD
HETATM   43  N9  UNL     1     -24.298  30.389  37.981  1.00  0.00    -0.222 N
HETATM   44  C16 UNL     1     -23.535  29.455  37.374  1.00  0.00     0.171 A
ATOM     45  H9  UNL     1     -25.189  30.751  37.639  1.00  0.00     0.198 HD
BRANCH  44  46
HETATM   46  N10 UNL     1     -23.837  28.883  36.257  1.00  0.00    -0.381 N
ATOM     47 2H10 UNL     1     -23.158  28.456  35.628  1.00  0.00     0.157 HD
ATOM     48 1H10 UNL     1     -24.750  28.755  35.822  1.00  0.00     0.157 HD
ENDBRANCH  44  46
ENDBRANCH  35  39
ENDBRANCH  29  31
BRANCH  28  49
HETATM   49  C17 UNL     1     -19.872  24.215  36.578  1.00  0.00     0.136 A
HETATM   50  N12 UNL     1     -19.201  24.477  35.443  1.00  0.00    -0.337 N
HETATM   51  C18 UNL     1     -19.798  24.367  34.244  1.00  0.00     0.183 A
ATOM     52  H12 UNL     1     -18.223  24.764  35.493  1.00  0.00     0.168 HD
HETATM   53  N13 UNL     1     -21.086  23.990  34.147  1.00  0.00    -0.337 N
HETATM   54  C19 UNL     1     -21.793  23.720  35.244  1.00  0.00     0.141 A
ATOM     55  H13 UNL     1     -21.523  23.910  33.230  1.00  0.00     0.168 HD
HETATM   56  N14 UNL     1     -23.087  23.343  35.163  1.00  0.00    -0.176 N
HETATM   57  C22 UNL     1     -21.187  23.830  36.501  1.00  0.00     0.121 A
HETATM   58  C20 UNL     1     -23.820  23.067  36.254  1.00  0.00     0.680 A
ATOM     59  H14 UNL     1     -23.522  23.265  34.243  1.00  0.00     0.186 HD
HETATM   60  N15 UNL     1     -25.045  22.714  36.121  1.00  0.00    -0.234 N
HETATM   61  N16 UNL     1     -23.288  23.157  37.484  1.00  0.00    -0.155 N
ATOM     62 2H15 UNL     1     -25.449  22.645  35.186  1.00  0.00     0.174 HD
ATOM     63 1H15 UNL     1     -25.602  22.504  36.949  1.00  0.00     0.174 HD
HETATM   64  C21 UNL     1     -21.982  23.535  37.602  1.00  0.00     0.277 A
ATOM     65  H16 UNL     1     -23.847  22.948  38.310  1.00  0.00     0.187 HD
HETATM   66  O4  UNL     1     -21.503  23.615  38.737  1.00  0.00    -0.266 OA
ENDBRANCH  28  49
ENDBRANCH  25  28
ENDBRANCH  21  22
ENDBRANCH  17  21
BRANCH  18  67
HETATM   67  N17 UNL     1     -15.190  18.082  37.396  1.00  0.00    -0.234 N
ATOM     68 2H17 UNL     1     -16.209  18.035  37.390  1.00  0.00     0.174 HD
ATOM     69 1H17 UNL     1     -14.822  17.400  36.732  1.00  0.00     0.174 HD
ENDBRANCH  18  67
ENDBRANCH  14  15
ENDBRANCH  13  14
ENDBRANCH  12  13
ENDBRANCH   6  12
BRANCH   9  70
HETATM   70  N20 UNL     1     -11.682  27.539  39.193  1.00  0.00    -0.234 N
ATOM     71 2H20 UNL     1     -10.823  27.591  39.740  1.00  0.00     0.174 HD
ATOM     72 1H20 UNL     1     -12.167  28.398  38.935  1.00  0.00     0.174 HD
ENDBRANCH   9  70
TORSDOF 13
ENDMDL