MODEL 1
REMARK VINA RESULT: -9.793831991      0.000      0.000
REMARK  19 active torsions:
REMARK  status: ('A' for Active; 'I' for Inactive)
REMARK    1  A    between atoms: C4_6  and  O3_7
REMARK    2  A    between atoms: C5_9  and  C6_10
REMARK    3  A    between atoms: C7_11  and  O4_12
REMARK    4  A    between atoms: C9_15  and  O5_16
REMARK    5  A    between atoms: C12_21  and  O7_22
REMARK    6  A    between atoms: C14_27  and  C15_28
REMARK    7  A    between atoms: N1_29  and  O10_31
REMARK    8  A    between atoms: O10_31  and  C16_32
REMARK    9  A    between atoms: C16_32  and  C17_33
REMARK   10  A    between atoms: C17_33  and  N2_34
REMARK   11  A    between atoms: N2_34  and  C18_37
REMARK   12  A    between atoms: C18_37  and  C19_38
REMARK   13  A    between atoms: C21_40  and  O11_41
REMARK   14  A    between atoms: C22_43  and  O12_44
REMARK   15  A    between atoms: C23_46  and  N3_47
REMARK   16  A    between atoms: C25_52  and  O16_53
REMARK   17  A    between atoms: C25_52  and  C26_55
REMARK   18  A    between atoms: C26_55  and  O17_56
REMARK   19  A    between atoms: C27_58  and  O18_59
ROOT
HETATM    1  O1  UNL     1     -20.501  26.587  40.062  1.00  0.00    -0.289 OA
HETATM    2  C1  UNL     1     -20.173  25.842  39.179  1.00  0.00     0.224 C
HETATM    3  C2  UNL     1     -21.045  25.908  37.947  1.00  0.00     0.338 C
HETATM    4  O2  UNL     1     -21.082  27.190  37.450  1.00  0.00    -0.351 OA
HETATM    5  C3  UNL     1     -19.820  27.553  37.054  1.00  0.00     0.209 C
HETATM    6  C4  UNL     1     -19.171  26.597  36.089  1.00  0.00     0.209 C
HETATM    7  C5  UNL     1     -19.513  25.167  36.343  1.00  0.00     0.230 C
HETATM    8  O8  UNL     1     -20.694  24.959  37.019  1.00  0.00    -0.311 OA
HETATM    9  O9  UNL     1     -18.424  24.588  37.068  1.00  0.00    -0.337 OA
HETATM   10  C13 UNL     1     -18.909  23.991  38.191  1.00  0.00     0.207 C
HETATM   11  C14 UNL     1     -17.998  22.975  38.846  1.00  0.00     0.198 C
HETATM   12  O15 UNL     1     -18.410  22.869  40.148  1.00  0.00    -0.337 OA
HETATM   13  C25 UNL     1     -19.057  24.024  40.512  1.00  0.00     0.226 C
HETATM   14  C27 UNL     1     -19.019  24.982  39.361  1.00  0.00     0.210 C
ENDROOT
BRANCH  11  15
HETATM   15  C15 UNL     1     -17.996  21.662  38.214  1.00  0.00     0.121 C
HETATM   16  N1  UNL     1     -17.324  20.679  38.653  1.00  0.00    -0.279 N
ATOM     17  H1  UNL     1     -17.376  19.791  38.155  1.00  0.00     0.193 HD
BRANCH  16  18
HETATM   18  O10 UNL     1     -16.548  20.758  39.744  1.00  0.00    -0.279 OA
BRANCH  18  19
HETATM   19  C16 UNL     1     -15.408  19.988  40.011  1.00  0.00     0.228 C
BRANCH  19  20
HETATM   20  C17 UNL     1     -14.751  19.469  38.757  1.00  0.00     0.261 C
BRANCH  20  21
HETATM   21  N2  UNL     1     -13.934  20.450  38.115  1.00  0.00    -0.069 N
ATOM     22  H22 UNL     1     -13.221  20.013  37.532  1.00  0.00     0.277 HD
ATOM     23  H21 UNL     1     -14.453  20.947  37.391  1.00  0.00     0.277 HD
BRANCH  21  24
HETATM   24  C18 UNL     1     -13.346  21.369  39.063  1.00  0.00     0.271 C
BRANCH  24  25
HETATM   25  C19 UNL     1     -13.466  22.771  38.656  1.00  0.00    -0.028 A
HETATM   26  C20 UNL     1     -14.600  23.361  38.141  1.00  0.00     0.048 A
HETATM   27  C21 UNL     1     -14.635  24.683  37.781  1.00  0.00     0.101 A
HETATM   28  C22 UNL     1     -13.500  25.505  37.923  1.00  0.00     0.132 A
HETATM   29  C23 UNL     1     -12.368  24.944  38.429  1.00  0.00     0.139 A
HETATM   30  C24 UNL     1     -12.374  23.593  38.784  1.00  0.00     0.048 A
BRANCH  27  31
HETATM   31  O11 UNL     1     -15.771  25.272  37.266  1.00  0.00    -0.358 OA
ATOM     32  H11 UNL     1     -15.957  26.196  37.382  1.00  0.00     0.217 HD
ENDBRANCH  27  31
BRANCH  28  33
HETATM   33  O12 UNL     1     -13.596  26.828  37.540  1.00  0.00    -0.356 OA
ATOM     34  H12 UNL     1     -12.837  27.239  37.145  1.00  0.00     0.218 HD
ENDBRANCH  28  33
BRANCH  29  35
HETATM   35  N3  UNL     1     -11.169  25.677  38.609  1.00  0.00    -0.113 N
HETATM   36  O13 UNL     1     -11.260  26.830  39.139  1.00  0.00    -0.532 OA
HETATM   37  O14 UNL     1      -9.940  25.221  38.250  1.00  0.00    -0.532 OA
ENDBRANCH  29  35
ENDBRANCH  24  25
ENDBRANCH  21  24
ENDBRANCH  20  21
ENDBRANCH  19  20
ENDBRANCH  18  19
ENDBRANCH  16  18
ENDBRANCH  11  15
BRANCH  14  38
HETATM   38  O18 UNL     1     -17.816  25.693  39.487  1.00  0.00    -0.374 OA
ATOM     39  H18 UNL     1     -17.895  26.466  40.034  1.00  0.00     0.211 HD
ENDBRANCH  14  38
BRANCH  13  40
HETATM   40  O16 UNL     1     -18.342  24.592  41.607  1.00  0.00    -0.361 OA
ATOM     41  H16 UNL     1     -18.813  24.372  42.402  1.00  0.00     0.213 HD
ENDBRANCH  13  40
BRANCH  13  42
HETATM   42  C26 UNL     1     -20.477  23.739  40.989  1.00  0.00     0.236 C
BRANCH  42  43
HETATM   43  O17 UNL     1     -20.794  24.402  42.167  1.00  0.00    -0.395 OA
ATOM     44  H17 UNL     1     -21.191  25.251  42.017  1.00  0.00     0.209 HD
ENDBRANCH  42  43
ENDBRANCH  13  42
BRANCH   7  45
HETATM   45  C6  UNL     1     -19.579  24.460  35.050  1.00  0.00     0.077 C
HETATM   46  C7  UNL     1     -20.668  24.619  34.219  1.00  0.00     0.083 C
HETATM   47  C8  UNL     1     -20.966  23.991  32.991  1.00  0.00     0.074 C
HETATM   48  C9  UNL     1     -20.494  22.789  32.508  1.00  0.00     0.072 C
HETATM   49  C10 UNL     1     -19.438  22.061  33.055  1.00  0.00     0.094 C
HETATM   50  C11 UNL     1     -18.481  22.499  33.946  1.00  0.00     0.208 C
HETATM   51  O6  UNL     1     -17.474  21.781  34.106  1.00  0.00    -0.285 OA
HETATM   52  C12 UNL     1     -18.478  23.666  34.720  1.00  0.00     0.130 C
BRANCH  46  53
HETATM   53  O4  UNL     1     -21.596  25.523  34.655  1.00  0.00    -0.360 OA
ATOM     54  H4  UNL     1     -22.332  25.653  34.069  1.00  0.00     0.217 HD
ENDBRANCH  46  53
BRANCH  48  55
HETATM   55  O5  UNL     1     -21.112  22.253  31.386  1.00  0.00    -0.360 OA
ATOM     56  H5  UNL     1     -20.725  21.481  30.992  1.00  0.00     0.217 HD
ENDBRANCH  48  55
BRANCH  52  57
HETATM   57  O7  UNL     1     -17.290  24.125  35.236  1.00  0.00    -0.356 OA
ATOM     58  H7  UNL     1     -16.622  23.454  35.310  1.00  0.00     0.218 HD
ENDBRANCH  52  57
ENDBRANCH   7  45
BRANCH   6  59
HETATM   59  O3  UNL     1     -17.775  26.820  36.242  1.00  0.00    -0.388 OA
ATOM     60  H3  UNL     1     -17.497  27.185  35.411  1.00  0.00     0.210 HD
ENDBRANCH   6  59
TORSDOF 19
ENDMDL