MODEL 1
REMARK VINA RESULT: -8.973882777      0.000      0.000
REMARK  18 active torsions:
REMARK  status: ('A' for Active; 'I' for Inactive)
REMARK    1  A    between atoms: N1_4  and  C4_5
REMARK    2  A    between atoms: C5_6  and  N2_7
REMARK    3  A    between atoms: N2_7  and  O1_9
REMARK    4  A    between atoms: O1_9  and  S1_10
REMARK    5  A    between atoms: S1_10  and  C6_13
REMARK    6  A    between atoms: C8_15  and  O4_16
REMARK    7  A    between atoms: C9_18  and  O5_19
REMARK    8  A    between atoms: C10_21  and  O6_22
REMARK    9  A    between atoms: C12_27  and  O7_29
REMARK   10  A    between atoms: C14_31  and  C15_32
REMARK       I    between atoms: C15_32  and  N4_34
REMARK   11  A    between atoms: N4_34  and  C16_36
REMARK   12  A    between atoms: C16_36  and  C17_37
REMARK   13  A    between atoms: C16_36  and  C18_40
REMARK   14  A    between atoms: C19_45  and  C20_46
REMARK   15  A    between atoms: C20_46  and  S2_47
REMARK   16  A    between atoms: S2_47  and  C21_48
REMARK   17  A    between atoms: C21_48  and  C22_49
REMARK   18  A    between atoms: C22_49  and  O11_50
ROOT
HETATM    1  C4  UNL     1     -18.980  25.393  38.541  1.00  0.00     0.192 C
HETATM    2  C5  UNL     1     -18.804  24.174  39.379  1.00  0.00     0.127 C
HETATM    3  N3  UNL     1     -19.488  24.293  40.485  1.00  0.00    -0.345 N
ATOM      4  H3  UNL     1     -19.527  23.587  41.221  1.00  0.00     0.164 HD
HETATM    5  C12 UNL     1     -20.185  25.564  40.528  1.00  0.00     0.143 C
HETATM    6  C13 UNL     1     -19.300  26.564  41.202  1.00  0.00     0.072 C
HETATM    7  C14 UNL     1     -20.354  25.853  39.040  1.00  0.00     0.164 C
ENDROOT
BRANCH   7   8
HETATM    8  C15 UNL     1     -20.592  27.259  38.746  1.00  0.00     0.230 C
HETATM    9  O8  UNL     1     -19.638  28.061  38.510  1.00  0.00    -0.273 OA
HETATM   10  N4  UNL     1     -21.913  27.767  38.717  1.00  0.00    -0.343 N
ATOM     11  H4  UNL     1     -22.691  27.134  38.905  1.00  0.00     0.163 HD
BRANCH  10  12
HETATM   12  C16 UNL     1     -22.195  29.169  38.426  1.00  0.00     0.220 C
BRANCH  12  13
HETATM   13  C17 UNL     1     -23.310  29.643  39.249  1.00  0.00     0.199 C
HETATM   14  O9  UNL     1     -23.264  30.794  39.740  1.00  0.00    -0.646 OA
HETATM   15  O10 UNL     1     -24.421  28.818  39.486  1.00  0.00    -0.646 OA
ENDBRANCH  12  13
BRANCH  12  16
HETATM   16  C18 UNL     1     -22.544  29.221  36.959  1.00  0.00     0.200 C
HETATM   17  N5  UNL     1     -23.763  29.934  36.672  1.00  0.00    -0.318 N
HETATM   18  N6  UNL     1     -24.832  29.214  36.283  1.00  0.00    -0.301 N
ATOM     19  H5  UNL     1     -23.814  30.949  36.761  1.00  0.00     0.181 HD
HETATM   20  C19 UNL     1     -24.714  27.977  36.025  1.00  0.00     0.073 C
ATOM     21  H6  UNL     1     -25.742  29.666  36.194  1.00  0.00     0.187 HD
HETATM   22  S3  UNL     1     -22.989  27.587  36.304  1.00  0.00    -0.085 SA
BRANCH  20  23
HETATM   23  C20 UNL     1     -25.740  26.993  35.584  1.00  0.00     0.140 C
BRANCH  23  24
HETATM   24  S2  UNL     1     -25.236  25.322  35.980  1.00  0.00    -0.160 SA
BRANCH  24  25
HETATM   25  C21 UNL     1     -25.368  24.898  37.715  1.00  0.00     0.100 C
BRANCH  25  26
HETATM   26  C22 UNL     1     -23.998  24.852  38.395  1.00  0.00     0.174 C
BRANCH  26  27
HETATM   27  O11 UNL     1     -23.939  25.853  39.352  1.00  0.00    -0.400 OA
ATOM     28  H11 UNL     1     -23.058  25.887  39.707  1.00  0.00     0.209 HD
ENDBRANCH  26  27
ENDBRANCH  25  26
ENDBRANCH  24  25
ENDBRANCH  23  24
ENDBRANCH  20  23
ENDBRANCH  12  16
ENDBRANCH  10  12
ENDBRANCH   7   8
BRANCH   1  29
HETATM   29  N1  UNL     1     -18.988  25.096  37.136  1.00  0.00    -0.272 N
HETATM   30  C3  UNL     1     -18.261  25.737  36.206  1.00  0.00     0.134 A
HETATM   31  C2  UNL     1     -18.506  25.203  34.974  1.00  0.00     0.036 A
HETATM   32  C1  UNL     1     -17.911  25.612  33.652  1.00  0.00     0.071 C
HETATM   33  N8  UNL     1     -19.402  24.218  35.179  1.00  0.00    -0.287 N
HETATM   34  N7  UNL     1     -19.673  24.174  36.471  1.00  0.00    -0.020 NA
ATOM     35  H8  UNL     1     -19.802  23.613  34.462  1.00  0.00     0.184 HD
ENDBRANCH   1  29
BRANCH   5  36
HETATM   36  O7  UNL     1     -21.427  25.454  41.144  1.00  0.00    -0.370 OA
ATOM     37  H7  UNL     1     -22.108  25.896  40.651  1.00  0.00     0.212 HD
ENDBRANCH   5  36
BRANCH   2  38
HETATM   38  N2  UNL     1     -18.021  23.038  39.053  1.00  0.00    -0.235 N
ATOM     39  H2  UNL     1     -18.445  22.298  38.494  1.00  0.00     0.197 HD
BRANCH  38  40
HETATM   40  O1  UNL     1     -16.747  22.894  39.447  1.00  0.00    -0.146 OA
BRANCH  40  41
HETATM   41  S1  UNL     1     -15.728  22.501  38.169  1.00  0.00     0.319 S
HETATM   42  O2  UNL     1     -15.321  21.049  38.218  1.00  0.00    -0.191 OA
HETATM   43  O3  UNL     1     -16.477  22.813  36.899  1.00  0.00    -0.191 OA
BRANCH  41  44
HETATM   44  C6  UNL     1     -14.321  23.538  38.259  1.00  0.00     0.093 A
HETATM   45  C7  UNL     1     -14.391  24.872  37.932  1.00  0.00     0.065 A
HETATM   46  C8  UNL     1     -13.286  25.708  37.997  1.00  0.00     0.103 A
HETATM   47  C9  UNL     1     -12.061  25.207  38.402  1.00  0.00     0.132 A
HETATM   48  C10 UNL     1     -11.978  23.870  38.733  1.00  0.00     0.103 A
HETATM   49  C11 UNL     1     -13.084  23.052  38.663  1.00  0.00     0.065 A
BRANCH  46  50
HETATM   50  O4  UNL     1     -13.354  27.055  37.667  1.00  0.00    -0.358 OA
ATOM     51  H4  UNL     1     -13.058  27.387  36.827  1.00  0.00     0.217 HD
ENDBRANCH  46  50
BRANCH  47  52
HETATM   52  O5  UNL     1     -10.934  26.043  38.473  1.00  0.00    -0.356 OA
ATOM     53  H5  UNL     1     -10.073  25.682  38.653  1.00  0.00     0.218 HD
ENDBRANCH  47  52
BRANCH  48  54
HETATM   54  O6  UNL     1     -10.740  23.387  39.137  1.00  0.00    -0.358 OA
ATOM     55  H6  UNL     1     -10.702  22.491  39.448  1.00  0.00     0.217 HD
ENDBRANCH  48  54
ENDBRANCH  41  44
ENDBRANCH  40  41
ENDBRANCH  38  40
ENDBRANCH   2  38
TORSDOF 18
ENDMDL