MODEL 5
REMARK VINA RESULT: -7.815404203      2.969      5.036
REMARK  18 active torsions:
REMARK  status: ('A' for Active; 'I' for Inactive)
REMARK       I    between atoms: N2_3  and  C2_5
REMARK       I    between atoms: C2_5  and  N3_6
REMARK       I    between atoms: C2_5  and  N5_10
REMARK    1  A    between atoms: N5_10  and  N6_12
REMARK    2  A    between atoms: N6_12  and  C4_14
REMARK    3  A    between atoms: C6_18  and  N8_19
REMARK    4  A    between atoms: C7_24  and  S1_25
REMARK    5  A    between atoms: S1_25  and  C8_26
REMARK    6  A    between atoms: C8_26  and  C9_27
REMARK    7  A    between atoms: C9_27  and  S2_28
REMARK    8  A    between atoms: S2_28  and  S3_29
REMARK    9  A    between atoms: S3_29  and  C10_30
REMARK   10  A    between atoms: C10_30  and  C11_31
REMARK   11  A    between atoms: C11_31  and  N10_32
REMARK   12  A    between atoms: C13_38  and  N12_39
REMARK   13  A    between atoms: N13_43  and  N14_44
REMARK   14  A    between atoms: N15_48  and  C15_49
REMARK   15  A    between atoms: C16_51  and  C17_52
REMARK   16  A    between atoms: C17_52  and  O3_53
REMARK   17  A    between atoms: C18_55  and  O4_56
REMARK   18  A    between atoms: C19_58  and  O5_59
ROOT
HETATM    1  N1  UNL     1     -11.059  25.928  39.249  1.00  0.00    -0.171 NA
HETATM    2  C1  UNL     1     -10.925  24.822  39.499  1.00  0.00     0.196 C
HETATM    3  N2  UNL     1     -10.781  23.462  39.795  1.00  0.00    -0.124 N
ATOM      4  H2  UNL     1     -10.034  23.144  40.414  1.00  0.00     0.197 HD
HETATM    5  C2  UNL     1     -11.613  22.608  39.269  1.00  0.00     0.715 C
HETATM    6  N3  UNL     1     -11.408  21.247  39.611  1.00  0.00    -0.124 N
ATOM      7  H3  UNL     1     -11.791  20.918  40.498  1.00  0.00     0.197 HD
HETATM    8  C3  UNL     1     -10.721  20.323  38.821  1.00  0.00     0.196 C
HETATM    9  N4  UNL     1     -10.169  19.562  38.165  1.00  0.00    -0.171 NA
HETATM   10  N5  UNL     1     -12.653  23.039  38.407  1.00  0.00    -0.116 N
ATOM     11  H5  UNL     1     -12.482  22.979  37.403  1.00  0.00     0.206 HD
ENDROOT
BRANCH  10  12
HETATM   12  N6  UNL     1     -13.876  23.533  38.810  1.00  0.00    -0.117 N
ATOM     13  H6  UNL     1     -13.952  23.911  39.755  1.00  0.00     0.206 HD
BRANCH  12  14
HETATM   14  C4  UNL     1     -14.928  23.546  38.067  1.00  0.00     0.708 A
HETATM   15  N7  UNL     1     -15.449  24.642  37.556  1.00  0.00    -0.182 N
HETATM   16  C5  UNL     1     -16.522  24.302  36.852  1.00  0.00     0.140 A
ATOM     17  H7  UNL     1     -15.090  25.589  37.679  1.00  0.00     0.184 HD
HETATM   18  C6  UNL     1     -17.436  25.014  36.116  1.00  0.00     0.132 A
HETATM   19  C14 UNL     1     -16.646  22.905  36.952  1.00  0.00     0.185 A
HETATM   20  N9  UNL     1     -18.439  24.400  35.499  1.00  0.00    -0.320 N
HETATM   21  C7  UNL     1     -18.580  23.069  35.578  1.00  0.00     0.168 A
ATOM     22  H9  UNL     1     -19.110  24.947  34.958  1.00  0.00     0.169 HD
HETATM   23  N13 UNL     1     -17.685  22.365  36.298  1.00  0.00    -0.220 N
HETATM   24  N15 UNL     1     -15.645  22.425  37.716  1.00  0.00    -0.107 N
BRANCH  18  25
HETATM   25  N8  UNL     1     -17.300  26.318  36.034  1.00  0.00    -0.383 N
ATOM     26  H82 UNL     1     -16.473  26.726  35.599  1.00  0.00     0.157 HD
ATOM     27  H81 UNL     1     -18.037  26.912  36.414  1.00  0.00     0.157 HD
ENDBRANCH  18  25
BRANCH  21  28
HETATM   28  S1  UNL     1     -19.934  22.243  34.745  1.00  0.00    -0.091 SA
BRANCH  28  29
HETATM   29  C8  UNL     1     -21.468  22.410  35.685  1.00  0.00     0.093 C
BRANCH  29  30
HETATM   30  C9  UNL     1     -21.356  21.963  37.096  1.00  0.00     0.097 C
BRANCH  30  31
HETATM   31  S2  UNL     1     -21.127  23.189  38.355  1.00  0.00    -0.097 SA
BRANCH  31  32
HETATM   32  S3  UNL     1     -19.320  23.139  39.401  1.00  0.00    -0.096 SA
BRANCH  32  33
HETATM   33  C10 UNL     1     -19.378  24.223  40.843  1.00  0.00     0.105 C
BRANCH  33  34
HETATM   34  C11 UNL     1     -20.150  25.486  40.440  1.00  0.00     0.133 C
BRANCH  34  35
HETATM   35  N10 UNL     1     -19.376  26.157  39.430  1.00  0.00    -0.362 N
HETATM   36  C12 UNL     1     -20.006  26.966  38.603  1.00  0.00     0.212 A
HETATM   37  O1  UNL     1     -19.515  27.659  37.635  1.00  0.00    -0.210 OA
HETATM   38  S4  UNL     1     -21.662  27.385  38.507  1.00  0.00    -0.007 SA
HETATM   39  N11 UNL     1     -20.225  28.389  36.926  1.00  0.00    -0.236 N
HETATM   40  C13 UNL     1     -21.539  28.454  37.175  1.00  0.00     0.166 A
ATOM     41  H11 UNL     1     -19.814  28.931  36.165  1.00  0.00     0.197 HD
ATOM     42  H10 UNL     1     -18.370  26.010  39.355  1.00  0.00     0.162 HD
BRANCH  40  43
HETATM   43  N12 UNL     1     -22.443  29.164  36.538  1.00  0.00    -0.378 N
ATOM     44 2H12 UNL     1     -23.440  29.013  36.387  1.00  0.00     0.158 HD
ATOM     45 1H12 UNL     1     -22.308  30.048  36.049  1.00  0.00     0.158 HD
ENDBRANCH  40  43
ENDBRANCH  34  35
ENDBRANCH  33  34
ENDBRANCH  32  33
ENDBRANCH  31  32
ENDBRANCH  30  31
ENDBRANCH  29  30
ENDBRANCH  28  29
ENDBRANCH  21  28
BRANCH  23  46
HETATM   46  N14 UNL     1     -17.887  20.994  36.340  1.00  0.00    -0.335 N
ATOM     47 2H14 UNL     1     -17.371  20.387  35.704  1.00  0.00     0.177 HD
ATOM     48 1H14 UNL     1     -18.564  20.664  37.029  1.00  0.00     0.177 HD
ENDBRANCH  23  46
BRANCH  24  49
HETATM   49  C15 UNL     1     -15.373  21.097  38.080  1.00  0.00     0.175 C
HETATM   50  O2  UNL     1     -14.102  20.608  38.013  1.00  0.00    -0.326 OA
HETATM   51  C16 UNL     1     -14.151  19.347  38.564  1.00  0.00     0.185 C
HETATM   52  C18 UNL     1     -15.327  19.237  39.472  1.00  0.00     0.186 C
HETATM   53  C19 UNL     1     -16.082  20.540  39.283  1.00  0.00     0.225 C
BRANCH  51  54
HETATM   54  C17 UNL     1     -14.049  18.225  37.561  1.00  0.00     0.199 C
BRANCH  54  55
HETATM   55  O3  UNL     1     -12.747  17.971  37.147  1.00  0.00    -0.398 OA
ATOM     56  H3  UNL     1     -12.095  18.160  37.811  1.00  0.00     0.209 HD
ENDBRANCH  54  55
ENDBRANCH  51  54
BRANCH  52  57
HETATM   57  O4  UNL     1     -14.976  19.063  40.813  1.00  0.00    -0.390 OA
ATOM     58  H4  UNL     1     -15.723  18.916  41.382  1.00  0.00     0.210 HD
ENDBRANCH  52  57
BRANCH  53  59
HETATM   59  O5  UNL     1     -17.414  20.177  38.987  1.00  0.00    -0.385 OA
ATOM     60  H5  UNL     1     -17.778  20.704  38.286  1.00  0.00     0.210 HD
ENDBRANCH  53  59
ENDBRANCH  24  49
ENDBRANCH  12  14
ENDBRANCH  10  12
TORSDOF 18
ENDMDL