MODEL 5
REMARK VINA RESULT: -7.901299068      2.480      5.972
REMARK  25 active torsions:
REMARK  status: ('A' for Active; 'I' for Inactive)
REMARK    1  A    between atoms: C2_2  and  O1_3
REMARK    2  A    between atoms: C2_2  and  C3_5
REMARK    3  A    between atoms: C3_5  and  O2_6
REMARK    4  A    between atoms: C3_5  and  C4_8
REMARK    5  A    between atoms: C4_8  and  O3_9
REMARK    6  A    between atoms: C4_8  and  C5_11
REMARK    7  A    between atoms: C5_11  and  C6_12
REMARK    8  A    between atoms: C6_12  and  C7_13
REMARK    9  A    between atoms: C7_13  and  O4_14
REMARK   10  A    between atoms: C7_13  and  O5_16
REMARK   11  A    between atoms: O5_16  and  C8_17
REMARK   12  A    between atoms: C9_19  and  O7_20
REMARK   13  A    between atoms: C9_19  and  C10_22
REMARK   14  A    between atoms: C10_22  and  O8_23
REMARK   15  A    between atoms: O8_23  and  C11_24
REMARK   16  A    between atoms: C11_24  and  C12_26
REMARK   17  A    between atoms: C14_28  and  O10_29
REMARK   18  A    between atoms: C15_31  and  O11_32
REMARK   19  A    between atoms: C16_34  and  O12_35
REMARK   20  A    between atoms: C19_39  and  C20_40
REMARK   21  A    between atoms: C20_40  and  O14_42
REMARK   22  A    between atoms: O14_42  and  C21_43
REMARK   23  A    between atoms: C25_50  and  O16_51
REMARK   24  A    between atoms: C26_53  and  O17_54
REMARK   25  A    between atoms: O17_54  and  C27_55
ROOT
HETATM    1  C8  UNL     1     -18.430  25.436  37.803  1.00  0.00     0.297 C
HETATM    2  O6  UNL     1     -19.121  24.015  38.122  1.00  0.00    -0.320 OA
HETATM    3  C9  UNL     1     -19.019  23.873  39.478  1.00  0.00     0.187 C
HETATM    4  C18 UNL     1     -19.470  25.118  40.205  1.00  0.00     0.088 C
HETATM    5  C19 UNL     1     -20.310  26.016  39.337  1.00  0.00     0.125 C
HETATM    6  C26 UNL     1     -19.886  26.203  37.948  1.00  0.00     0.204 C
ENDROOT
BRANCH   3   7
HETATM    7  O7  UNL     1     -19.870  22.795  39.777  1.00  0.00    -0.363 OA
ATOM      8  H7  UNL     1     -20.159  22.965  40.666  1.00  0.00     0.213 HD
ENDBRANCH   3   7
BRANCH   3   9
HETATM    9  C10 UNL     1     -17.621  23.468  39.836  1.00  0.00     0.247 C
BRANCH   9  10
HETATM   10  O8  UNL     1     -16.929  22.638  38.987  1.00  0.00    -0.312 OA
BRANCH  10  11
HETATM   11  C11 UNL     1     -16.052  22.863  37.981  1.00  0.00     0.293 C
HETATM   12  O9  UNL     1     -16.331  22.435  36.834  1.00  0.00    -0.259 OA
BRANCH  11  13
HETATM   13  C12 UNL     1     -14.787  23.574  38.125  1.00  0.00     0.045 A
HETATM   14  C13 UNL     1     -14.715  24.898  37.793  1.00  0.00     0.057 A
HETATM   15  C14 UNL     1     -13.570  25.657  37.872  1.00  0.00     0.102 A
HETATM   16  C15 UNL     1     -12.399  25.061  38.318  1.00  0.00     0.132 A
HETATM   17  C16 UNL     1     -12.454  23.713  38.660  1.00  0.00     0.102 A
HETATM   18  C17 UNL     1     -13.615  22.988  38.568  1.00  0.00     0.057 A
BRANCH  15  19
HETATM   19  O10 UNL     1     -13.578  26.990  37.515  1.00  0.00    -0.358 OA
ATOM     20  H10 UNL     1     -12.925  27.590  37.856  1.00  0.00     0.217 HD
ENDBRANCH  15  19
BRANCH  16  21
HETATM   21  O11 UNL     1     -11.190  25.759  38.429  1.00  0.00    -0.356 OA
ATOM     22  H11 UNL     1     -10.352  25.322  38.535  1.00  0.00     0.218 HD
ENDBRANCH  16  21
BRANCH  17  23
HETATM   23  O12 UNL     1     -11.257  23.138  39.105  1.00  0.00    -0.358 OA
ATOM     24  H12 UNL     1     -11.340  22.396  39.692  1.00  0.00     0.217 HD
ENDBRANCH  17  23
ENDBRANCH  11  13
ENDBRANCH  10  11
ENDBRANCH   9  10
ENDBRANCH   3   9
BRANCH   1  25
HETATM   25  O5  UNL     1     -18.593  25.107  36.406  1.00  0.00    -0.326 OA
BRANCH  25  26
HETATM   26  C7  UNL     1     -17.476  25.612  35.733  1.00  0.00     0.284 C
BRANCH  26  27
HETATM   27  C6  UNL     1     -17.626  25.459  34.285  1.00  0.00     0.031 C
BRANCH  27  28
HETATM   28  C5  UNL     1     -17.686  24.257  33.791  1.00  0.00     0.008 C
BRANCH  28  29
HETATM   29  C4  UNL     1     -18.974  23.612  33.423  1.00  0.00     0.172 C
BRANCH  29  30
HETATM   30  C3  UNL     1     -18.939  22.210  34.030  1.00  0.00     0.178 C
BRANCH  30  31
HETATM   31  C2  UNL     1     -17.753  21.410  33.592  1.00  0.00     0.145 C
HETATM   32  C1  UNL     1     -17.449  20.272  34.518  1.00  0.00     0.042 C
BRANCH  31  33
HETATM   33  O1  UNL     1     -17.786  20.975  32.287  1.00  0.00    -0.393 OA
ATOM     34  H1  UNL     1     -17.001  21.246  31.826  1.00  0.00     0.210 HD
ENDBRANCH  31  33
ENDBRANCH  30  31
BRANCH  30  35
HETATM   35  O2  UNL     1     -18.913  22.412  35.429  1.00  0.00    -0.390 OA
ATOM     36  H2  UNL     1     -18.640  23.299  35.632  1.00  0.00     0.210 HD
ENDBRANCH  30  35
ENDBRANCH  29  30
BRANCH  29  37
HETATM   37  O3  UNL     1     -18.900  23.486  32.005  1.00  0.00    -0.389 OA
ATOM     38  H3  UNL     1     -18.244  24.094  31.686  1.00  0.00     0.210 HD
ENDBRANCH  29  37
ENDBRANCH  28  29
ENDBRANCH  27  28
ENDBRANCH  26  27
BRANCH  26  39
HETATM   39  O4  UNL     1     -17.352  26.989  36.024  1.00  0.00    -0.368 OA
ATOM     40  H4  UNL     1     -16.787  27.383  35.370  1.00  0.00     0.213 HD
ENDBRANCH  26  39
ENDBRANCH  25  26
ENDBRANCH   1  25
BRANCH   5  41
HETATM   41  C20 UNL     1     -21.747  25.654  39.330  1.00  0.00     0.272 C
HETATM   42  O13 UNL     1     -22.155  24.778  38.498  1.00  0.00    -0.264 OA
BRANCH  41  43
HETATM   43  O14 UNL     1     -22.744  26.172  40.145  1.00  0.00    -0.258 OA
BRANCH  43  44
HETATM   44  C21 UNL     1     -23.943  26.629  39.562  1.00  0.00     0.188 A
HETATM   45  N1  UNL     1     -24.850  25.812  39.001  1.00  0.00    -0.344 N
HETATM   46  C22 UNL     1     -26.001  26.295  38.453  1.00  0.00     0.094 A
ATOM     47  H1  UNL     1     -24.674  24.807  38.986  1.00  0.00     0.167 HD
HETATM   48  C23 UNL     1     -26.272  27.666  38.457  1.00  0.00     0.075 A
HETATM   49  C24 UNL     1     -25.348  28.503  39.027  1.00  0.00     0.210 A
HETATM   50  O15 UNL     1     -25.519  29.751  39.071  1.00  0.00    -0.285 OA
HETATM   51  C25 UNL     1     -24.204  27.969  39.566  1.00  0.00     0.168 A
BRANCH  51  52
HETATM   52  O16 UNL     1     -23.245  28.807  40.152  1.00  0.00    -0.354 OA
ATOM     53  H16 UNL     1     -23.038  29.615  39.698  1.00  0.00     0.218 HD
ENDBRANCH  51  52
ENDBRANCH  43  44
ENDBRANCH  41  43
ENDBRANCH   5  41
BRANCH   6  54
HETATM   54  O17 UNL     1     -19.726  27.494  37.467  1.00  0.00    -0.285 OA
BRANCH  54  55
HETATM   55  C27 UNL     1     -20.772  28.377  37.294  1.00  0.00     0.333 C
HETATM   56  O18 UNL     1     -21.324  28.356  36.129  1.00  0.00    -0.624 OA
HETATM   57  O19 UNL     1     -21.250  29.251  38.252  1.00  0.00    -0.624 OA
ENDBRANCH  54  55
ENDBRANCH   6  54
TORSDOF 25
ENDMDL