MODEL 5
REMARK VINA RESULT: -9.007337435      0.913      1.437
REMARK  20 active torsions:
REMARK  status: ('A' for Active; 'I' for Inactive)
REMARK    1  A    between atoms: C2_2  and  C4_4
REMARK    2  A    between atoms: C4_4  and  N1_5
REMARK    3  A    between atoms: C4_4  and  C6_13
REMARK    4  A    between atoms: N1_5  and  C5_8
REMARK    5  A    between atoms: C5_8  and  O1_9
REMARK    6  A    between atoms: C5_8  and  O2_11
REMARK    7  A    between atoms: C6_13  and  O4_15
REMARK    8  A    between atoms: O4_15  and  C7_16
REMARK    9  A    between atoms: C7_16  and  C8_17
REMARK   10  A    between atoms: C7_16  and  C9_20
REMARK   11  A    between atoms: C8_17  and  O5_18
REMARK   12  A    between atoms: C9_20  and  C10_22
REMARK   13  A    between atoms: N2_24  and  C12_25
REMARK   14  A    between atoms: C15_30  and  O7_31
REMARK   15  A    between atoms: C16_33  and  C17_34
REMARK   16  A    between atoms: C17_34  and  O8_35
REMARK   17  A    between atoms: C25_47  and  O11_48
REMARK   18  A    between atoms: C26_50  and  O12_51
REMARK   19  A    between atoms: C27_53  and  C28_54
REMARK   20  A    between atoms: C28_54  and  O13_55
ROOT
HETATM    1  C12 UNL     1     -20.672  25.832  38.823  1.00  0.00     0.140 A
HETATM    2  N3  UNL     1     -21.629  26.263  38.011  1.00  0.00    -0.338 N
ATOM      3  H3  UNL     1     -21.983  25.636  37.290  1.00  0.00     0.167 HD
HETATM    4  C13 UNL     1     -22.151  27.511  38.112  1.00  0.00     0.080 A
HETATM    5  C14 UNL     1     -21.696  28.369  39.072  1.00  0.00     0.095 A
HETATM    6  C15 UNL     1     -20.708  27.974  39.941  1.00  0.00     0.096 A
HETATM    7  C16 UNL     1     -20.195  26.676  39.800  1.00  0.00     0.045 A
HETATM    8  C18 UNL     1     -22.459  29.605  38.890  1.00  0.00     0.270 A
HETATM    9  O9  UNL     1     -22.292  30.635  39.626  1.00  0.00    -0.266 OA
HETATM   10  N4  UNL     1     -23.369  29.464  37.812  1.00  0.00    -0.241 N
HETATM   11  C19 UNL     1     -23.198  28.200  37.326  1.00  0.00     0.076 A
HETATM   12  C20 UNL     1     -23.945  27.765  36.267  1.00  0.00     0.062 A
HETATM   13  C21 UNL     1     -24.861  28.640  35.721  1.00  0.00     0.042 A
HETATM   14  C22 UNL     1     -25.031  29.926  36.215  1.00  0.00     0.039 A
HETATM   15  C23 UNL     1     -24.259  30.315  37.278  1.00  0.00     0.263 A
HETATM   16  O10 UNL     1     -24.381  31.463  37.756  1.00  0.00    -0.267 OA
HETATM   17  C24 UNL     1     -25.973  30.993  35.710  1.00  0.00     0.081 C
HETATM   18  C25 UNL     1     -26.005  30.809  34.208  1.00  0.00     0.153 C
HETATM   19  C26 UNL     1     -27.048  29.867  33.724  1.00  0.00     0.171 C
HETATM   20  C27 UNL     1     -26.905  28.450  34.187  1.00  0.00     0.136 C
HETATM   21  N5  UNL     1     -25.607  28.078  34.649  1.00  0.00    -0.380 N
ATOM     22  H5  UNL     1     -25.158  27.312  34.147  1.00  0.00     0.160 HD
ENDROOT
BRANCH   1  23
HETATM   23  N2  UNL     1     -20.117  24.525  38.712  1.00  0.00    -0.234 N
HETATM   24  C11 UNL     1     -18.978  24.183  38.080  1.00  0.00     0.154 A
HETATM   25  C10 UNL     1     -18.764  22.827  38.260  1.00  0.00     0.115 A
HETATM   26  N7  UNL     1     -19.796  22.392  38.998  1.00  0.00    -0.281 N
HETATM   27  N6  UNL     1     -20.571  23.406  39.246  1.00  0.00    -0.234 N
ATOM     28  H7  UNL     1     -19.948  21.432  39.309  1.00  0.00     0.188 HD
ATOM     29  H6  UNL     1     -21.431  23.344  39.791  1.00  0.00     0.209 HD
BRANCH  25  30
HETATM   30  C9  UNL     1     -17.590  22.072  37.800  1.00  0.00     0.210 C
HETATM   31  O6  UNL     1     -17.590  21.661  36.599  1.00  0.00    -0.288 OA
BRANCH  30  32
HETATM   32  C7  UNL     1     -16.405  21.769  38.625  1.00  0.00     0.231 C
BRANCH  32  33
HETATM   33  O4  UNL     1     -15.224  22.030  37.840  1.00  0.00    -0.304 OA
BRANCH  33  34
HETATM   34  C6  UNL     1     -14.189  22.768  38.382  1.00  0.00     0.291 C
HETATM   35  O3  UNL     1     -13.641  22.266  39.408  1.00  0.00    -0.263 OA
BRANCH  34  36
HETATM   36  C4  UNL     1     -13.708  24.066  37.856  1.00  0.00     0.293 C
BRANCH  36  37
HETATM   37  C2  UNL     1     -14.819  25.076  38.078  1.00  0.00     0.018 C
HETATM   38  C1  UNL     1     -15.585  24.888  39.341  1.00  0.00     0.012 C
HETATM   39  C3  UNL     1     -15.748  25.128  36.898  1.00  0.00     0.012 C
ENDBRANCH  36  37
BRANCH  36  40
HETATM   40  N1  UNL     1     -12.634  24.478  38.773  1.00  0.00    -0.011 N
ATOM     41  H12 UNL     1     -12.994  24.721  39.695  1.00  0.00     0.284 HD
ATOM     42  H11 UNL     1     -12.044  23.692  39.044  1.00  0.00     0.284 HD
BRANCH  40  43
HETATM   43  C5  UNL     1     -11.862  25.559  38.190  1.00  0.00     0.465 C
BRANCH  43  44
HETATM   44  O1  UNL     1     -11.852  26.651  39.066  1.00  0.00    -0.350 OA
ATOM     45  H1  UNL     1     -11.231  26.490  39.767  1.00  0.00     0.214 HD
ENDBRANCH  43  44
BRANCH  43  46
HETATM   46  O2  UNL     1     -10.547  25.134  37.946  1.00  0.00    -0.350 OA
ATOM     47  H2  UNL     1     -10.404  24.280  38.337  1.00  0.00     0.214 HD
ENDBRANCH  43  46
ENDBRANCH  40  43
ENDBRANCH  36  40
ENDBRANCH  34  36
ENDBRANCH  33  34
ENDBRANCH  32  33
BRANCH  32  48
HETATM   48  C8  UNL     1     -16.334  20.368  39.139  1.00  0.00     0.205 C
BRANCH  48  49
HETATM   49  O5  UNL     1     -15.626  20.170  40.288  1.00  0.00    -0.398 OA
ATOM     50  H5  UNL     1     -15.799  19.366  40.764  1.00  0.00     0.209 HD
ENDBRANCH  48  49
ENDBRANCH  32  48
ENDBRANCH  30  32
ENDBRANCH  25  30
ENDBRANCH   1  23
BRANCH   7  51
HETATM   51  C17 UNL     1     -19.135  26.153  40.683  1.00  0.00     0.209 C
BRANCH  51  52
HETATM   52  O8  UNL     1     -19.611  26.146  41.992  1.00  0.00    -0.396 OA
ATOM     53  H8  UNL     1     -19.297  25.360  42.424  1.00  0.00     0.209 HD
ENDBRANCH  51  52
ENDBRANCH   7  51
BRANCH   6  54
HETATM   54  O7  UNL     1     -20.207  28.788  40.935  1.00  0.00    -0.359 OA
ATOM     55  H7  UNL     1     -20.225  28.557  41.856  1.00  0.00     0.217 HD
ENDBRANCH   6  54
BRANCH  20  56
HETATM   56  C28 UNL     1     -27.367  27.460  33.126  1.00  0.00     0.191 C
BRANCH  56  57
HETATM   57  O13 UNL     1     -26.200  26.915  32.545  1.00  0.00    -0.399 OA
ATOM     58  H13 UNL     1     -26.371  25.990  32.407  1.00  0.00     0.209 HD
ENDBRANCH  56  57
ENDBRANCH  20  56
BRANCH  18  59
HETATM   59  O11 UNL     1     -26.212  32.047  33.562  1.00  0.00    -0.393 OA
ATOM     60  H11 UNL     1     -26.381  31.916  32.637  1.00  0.00     0.210 HD
ENDBRANCH  18  59
BRANCH  19  61
HETATM   61  O12 UNL     1     -28.342  30.377  33.956  1.00  0.00    -0.391 OA
ATOM     62  H12 UNL     1     -28.993  29.685  33.934  1.00  0.00     0.210 HD
ENDBRANCH  19  61
TORSDOF 20
ENDMDL