MODEL 4
REMARK VINA RESULT: -10.156076103      1.646      2.501
REMARK  16 active torsions:
REMARK  status: ('A' for Active; 'I' for Inactive)
REMARK    1  A    between atoms: C2_5  and  C3_6
REMARK    2  A    between atoms: C5_10  and  C6_11
REMARK    3  A    between atoms: C6_11  and  C7_12
REMARK    4  A    between atoms: C11_20  and  C12_21
REMARK    5  A    between atoms: C12_21  and  C19_36
REMARK    6  A    between atoms: N6_22  and  O1_24
REMARK    7  A    between atoms: O1_24  and  C13_25
REMARK    8  A    between atoms: C17_30  and  O3_31
REMARK    9  A    between atoms: C17_30  and  C18_33
REMARK   10  A    between atoms: C20_39  and  O6_40
REMARK   11  A    between atoms: C21_42  and  C22_43
REMARK   12  A    between atoms: C22_43  and  O7_44
REMARK   13  A    between atoms: C24_50  and  N9_51
REMARK   14  A    between atoms: N9_51  and  C25_53
REMARK   15  A    between atoms: C27_55  and  O9_56
REMARK   16  A    between atoms: C28_60  and  O10_61
ROOT
HETATM    1  N1  UNL     1     -11.389  23.317  39.933  1.00  0.00    -0.172 NA
HETATM    2  C1  UNL     1     -11.455  22.170  39.856  1.00  0.00     0.181 C
HETATM    3  N2  UNL     1     -11.506  20.795  39.792  1.00  0.00    -0.305 N
ATOM      4  H2  UNL     1     -10.609  20.312  39.779  1.00  0.00     0.177 HD
HETATM    5  C2  UNL     1     -12.540  20.060  39.746  1.00  0.00     0.118 C
ENDROOT
BRANCH   5   6
HETATM    6  C3  UNL     1     -13.941  20.609  39.759  1.00  0.00     0.215 C
HETATM    7  N3  UNL     1     -14.783  19.449  39.763  1.00  0.00    -0.394 N
HETATM    8  C4  UNL     1     -16.145  19.622  39.338  1.00  0.00     0.154 C
ATOM      9  H3  UNL     1     -14.431  18.538  40.055  1.00  0.00     0.155 HD
HETATM   10  C5  UNL     1     -16.375  21.074  39.045  1.00  0.00    -0.018 C
HETATM   11  C24 UNL     1     -15.381  21.502  38.006  1.00  0.00     0.211 C
HETATM   12  N11 UNL     1     -14.068  21.438  38.571  1.00  0.00    -0.373 N
ATOM     13  H11 UNL     1     -13.276  21.939  38.167  1.00  0.00     0.158 HD
BRANCH  10  14
HETATM   14  C6  UNL     1     -17.740  21.586  39.037  1.00  0.00     0.057 C
BRANCH  14  15
HETATM   15  C7  UNL     1     -18.075  22.923  39.514  1.00  0.00     0.105 A
HETATM   16  N4  UNL     1     -17.131  23.733  40.059  1.00  0.00    -0.352 N
HETATM   17  C8  UNL     1     -17.388  24.942  40.516  1.00  0.00     0.101 A
ATOM     18  H4  UNL     1     -16.173  23.387  40.118  1.00  0.00     0.166 HD
HETATM   19  C9  UNL     1     -18.673  25.492  40.469  1.00  0.00     0.004 A
HETATM   20  C10 UNL     1     -19.652  24.646  39.907  1.00  0.00     0.072 A
HETATM   21  C23 UNL     1     -19.171  26.843  40.799  1.00  0.00     0.162 A
HETATM   22  N5  UNL     1     -19.331  23.448  39.471  1.00  0.00    -0.340 N
HETATM   23  C11 UNL     1     -20.863  25.557  39.922  1.00  0.00     0.089 A
ATOM     24  H5  UNL     1     -20.072  22.873  39.074  1.00  0.00     0.167 HD
HETATM   25  N8  UNL     1     -20.554  26.763  40.502  1.00  0.00    -0.382 N
ATOM     26  H8  UNL     1     -21.230  27.503  40.694  1.00  0.00     0.160 HD
BRANCH  23  27
HETATM   27  C12 UNL     1     -21.720  25.429  38.756  1.00  0.00     0.134 C
HETATM   28  N6  UNL     1     -22.873  25.694  38.582  1.00  0.00    -0.255 N
ATOM     29  H6  UNL     1     -23.194  25.470  37.640  1.00  0.00     0.195 HD
BRANCH  28  30
HETATM   30  O1  UNL     1     -23.867  26.237  39.374  1.00  0.00    -0.249 OA
BRANCH  30  31
HETATM   31  C13 UNL     1     -24.743  27.100  38.634  1.00  0.00     0.176 C
HETATM   32  C14 UNL     1     -24.550  28.300  38.336  1.00  0.00     0.015 C
HETATM   33  C15 UNL     1     -25.499  29.160  37.539  1.00  0.00     0.207 C
HETATM   34  C17 UNL     1     -23.397  29.231  38.672  1.00  0.00     0.195 C
HETATM   35  O2  UNL     1     -24.780  30.256  37.175  1.00  0.00    -0.383 OA
HETATM   36  C16 UNL     1     -23.974  30.575  38.281  1.00  0.00     0.222 C
BRANCH  34  37
HETATM   37  O3  UNL     1     -23.187  29.152  40.027  1.00  0.00    -0.373 OA
ATOM     38  H3  UNL     1     -23.745  28.460  40.362  1.00  0.00     0.211 HD
ENDBRANCH  34  37
BRANCH  34  39
HETATM   39  C18 UNL     1     -22.188  28.920  37.896  1.00  0.00     0.216 C
HETATM   40  O4  UNL     1     -21.063  28.949  38.416  1.00  0.00    -0.645 OA
HETATM   41  O5  UNL     1     -22.280  28.582  36.532  1.00  0.00    -0.645 OA
ENDBRANCH  34  39
ENDBRANCH  30  31
ENDBRANCH  28  30
BRANCH  27  42
HETATM   42  C19 UNL     1     -20.956  25.208  37.454  1.00  0.00     0.181 A
HETATM   43  N7  UNL     1     -20.511  26.152  36.697  1.00  0.00    -0.313 N
HETATM   44  C20 UNL     1     -19.864  25.583  35.638  1.00  0.00     0.174 A
ATOM     45  H7  UNL     1     -20.624  27.153  36.860  1.00  0.00     0.170 HD
HETATM   46  C21 UNL     1     -19.962  24.235  35.824  1.00  0.00     0.129 A
HETATM   47  O8  UNL     1     -20.648  24.048  36.958  1.00  0.00    -0.289 OA
BRANCH  44  48
HETATM   48  O6  UNL     1     -19.235  26.270  34.586  1.00  0.00    -0.344 OA
ATOM     49  H6  UNL     1     -18.659  25.889  33.933  1.00  0.00     0.219 HD
ENDBRANCH  44  48
BRANCH  46  50
HETATM   50  C22 UNL     1     -19.427  23.132  34.966  1.00  0.00     0.233 C
BRANCH  50  51
HETATM   51  O7  UNL     1     -18.104  22.895  35.220  1.00  0.00    -0.394 OA
ATOM     52  H7  UNL     1     -17.880  23.100  36.120  1.00  0.00     0.209 HD
ENDBRANCH  50  51
ENDBRANCH  46  50
ENDBRANCH  27  42
ENDBRANCH  23  27
ENDBRANCH  14  15
ENDBRANCH  10  14
BRANCH  11  53
HETATM   53  N9  UNL     1     -15.727  22.699  37.349  1.00  0.00    -0.362 N
ATOM     54  H9  UNL     1     -16.508  22.660  36.694  1.00  0.00     0.162 HD
BRANCH  53  55
HETATM   55  C25 UNL     1     -15.092  23.945  37.513  1.00  0.00     0.085 A
HETATM   56  C26 UNL     1     -14.076  24.387  38.300  1.00  0.00     0.089 A
HETATM   57  C27 UNL     1     -13.863  25.740  38.164  1.00  0.00     0.144 A
HETATM   58  N10 UNL     1     -14.787  26.175  37.248  1.00  0.00    -0.316 N
HETATM   59  C28 UNL     1     -15.514  25.133  36.858  1.00  0.00     0.169 A
ATOM     60  H10 UNL     1     -14.898  27.135  36.922  1.00  0.00     0.170 HD
BRANCH  57  61
HETATM   61  O9  UNL     1     -12.949  26.572  38.770  1.00  0.00    -0.346 OA
ATOM     62  H9  UNL     1     -12.000  26.540  38.793  1.00  0.00     0.219 HD
ENDBRANCH  57  61
BRANCH  59  63
HETATM   63  O10 UNL     1     -16.556  25.192  35.924  1.00  0.00    -0.344 OA
ATOM     64  H10 UNL     1     -16.445  25.058  34.990  1.00  0.00     0.219 HD
ENDBRANCH  59  63
ENDBRANCH  53  55
ENDBRANCH  11  53
ENDBRANCH   5   6
TORSDOF 16
ENDMDL