MODEL 3
REMARK VINA RESULT: -8.423325751      4.399     11.272
REMARK  7 active torsions:
REMARK  status: ('A' for Active; 'I' for Inactive)
REMARK    1  A    between atoms: C3_4  and  N2_5
REMARK       I    between atoms: N2_5  and  C4_7
REMARK    2  A    between atoms: C4_7  and  C5_9
REMARK    3  A    between atoms: C12_16  and  C13_17
REMARK    4  A    between atoms: C13_17  and  N3_18
REMARK    5  A    between atoms: N3_18  and  C14_19
REMARK    6  A    between atoms: N3_18  and  S1_26
REMARK    7  A    between atoms: S1_26  and  C20_29
ROOT
HETATM    1  C5  UNL     1     -14.057  36.224  -9.073  1.00  0.00     0.033 A
HETATM    2  C6  UNL     1     -15.342  36.256  -9.569  1.00  0.00     0.020 A
HETATM    3  C7  UNL     1     -16.389  36.135  -8.707  1.00  0.00     0.038 A
HETATM    4  C8  UNL     1     -16.159  35.980  -7.335  1.00  0.00     0.076 A
HETATM    5  C9  UNL     1     -14.889  35.941  -6.790  1.00  0.00    -0.022 A
HETATM    6  C10 UNL     1     -13.857  36.072  -7.735  1.00  0.00     0.027 A
HETATM    7  C11 UNL     1     -14.258  35.797  -5.476  1.00  0.00     0.063 C
HETATM    8  C12 UNL     1     -15.050  36.339  -4.280  1.00  0.00     0.098 C
HETATM    9  C26 UNL     1     -16.397  36.388  -4.674  1.00  0.00    -0.146 C
HETATM   10  C27 UNL     1     -17.675  36.326  -5.275  1.00  0.00     0.256 C
HETATM   11  O4  UNL     1     -17.402  35.877  -6.657  1.00  0.00    -0.340 OA
ENDROOT
BRANCH   8  12
HETATM   12  C13 UNL     1     -14.836  35.544  -3.015  1.00  0.00     0.099 C
BRANCH  12  13
HETATM   13  N3  UNL     1     -14.608  36.232  -1.818  1.00  0.00    -0.250 N
BRANCH  13  14
HETATM   14  C14 UNL     1     -15.475  37.137  -1.167  1.00  0.00     0.049 A
HETATM   15  C15 UNL     1     -15.389  38.518  -1.316  1.00  0.00     0.034 A
HETATM   16  C16 UNL     1     -16.267  39.394  -0.701  1.00  0.00     0.044 A
HETATM   17  C17 UNL     1     -17.280  38.921   0.100  1.00  0.00     0.116 A
HETATM   18  F1  UNL     1     -18.120  39.809   0.687  1.00  0.00    -0.206 F
HETATM   19  C18 UNL     1     -17.369  37.565   0.250  1.00  0.00     0.044 A
HETATM   20  C19 UNL     1     -16.514  36.672  -0.347  1.00  0.00     0.034 A
ENDBRANCH  13  14
BRANCH  13  21
HETATM   21  S1  UNL     1     -13.042  36.012  -1.061  1.00  0.00     0.268 S
HETATM   22  O2  UNL     1     -13.082  36.363   0.397  1.00  0.00    -0.200 OA
HETATM   23  O3  UNL     1     -12.600  34.583  -1.140  1.00  0.00    -0.200 OA
BRANCH  21  24
HETATM   24  C20 UNL     1     -11.904  36.984  -1.940  1.00  0.00     0.080 A
HETATM   25  C21 UNL     1     -12.233  38.074  -2.707  1.00  0.00     0.027 A
HETATM   26  C22 UNL     1     -11.275  38.803  -3.375  1.00  0.00     0.028 A
HETATM   27  C23 UNL     1      -9.938  38.473  -3.303  1.00  0.00     0.046 A
HETATM   28  N4  UNL     1      -8.900  39.166  -3.956  1.00  0.00    -0.102 NA
HETATM   29  C24 UNL     1      -9.601  37.366  -2.524  1.00  0.00     0.028 A
HETATM   30  C25 UNL     1     -10.571  36.649  -1.864  1.00  0.00     0.027 A
ENDBRANCH  21  24
ENDBRANCH  13  21
ENDBRANCH  12  13
ENDBRANCH   8  12
BRANCH   1  31
HETATM   31  C4  UNL     1     -12.958  36.364 -10.038  1.00  0.00     0.257 C
HETATM   32  N2  UNL     1     -13.188  36.952 -11.282  1.00  0.00    -0.308 N
ATOM     33  H2  UNL     1     -13.525  37.914 -11.262  1.00  0.00     0.170 HD
HETATM   34  O1  UNL     1     -11.814  35.951  -9.734  1.00  0.00    -0.267 OA
BRANCH  32  35
HETATM   35  C3  UNL     1     -13.032  36.442 -12.443  1.00  0.00     0.124 A
HETATM   36  C2  UNL     1     -12.580  37.161 -13.528  1.00  0.00     0.139 A
HETATM   37  N1  UNL     1     -12.422  36.568 -14.742  1.00  0.00    -0.356 N
HETATM   38  C1  UNL     1     -11.948  37.295 -15.903  1.00  0.00     0.156 C
HETATM   39  C33 UNL     1     -12.707  35.263 -14.898  1.00  0.00     0.061 A
HETATM   40  C28 UNL     1     -13.157  34.534 -13.831  1.00  0.00     0.060 A
HETATM   41  C32 UNL     1     -12.544  34.645 -16.141  1.00  0.00     0.032 A
HETATM   42  N5  UNL     1     -13.306  35.137 -12.642  1.00  0.00    -0.339 N
HETATM   43  C29 UNL     1     -13.445  33.185 -14.009  1.00  0.00     0.032 A
ATOM     44  H5  UNL     1     -13.642  34.584 -11.853  1.00  0.00     0.167 HD
HETATM   45  C30 UNL     1     -13.298  32.549 -15.213  1.00  0.00     0.002 A
HETATM   46  C31 UNL     1     -12.841  33.307 -16.274  1.00  0.00     0.002 A
ENDBRANCH  32  35
ENDBRANCH   1  31
TORSDOF 7
ENDMDL