MODEL 1
REMARK VINA RESULT: -7.833640127      0.000      0.000
REMARK  5 active torsions:
REMARK  status: ('A' for Active; 'I' for Inactive)
REMARK    1  A    between atoms: O1_2  and  C2_3
REMARK    2  A    between atoms: C5_6  and  C6_7
REMARK    3  A    between atoms: C19_23  and  C20_24
REMARK    4  A    between atoms: C20_24  and  C21_25
REMARK    5  A    between atoms: C33_43  and  O5_44
ROOT
HETATM    1  C6  UNL     1     -14.140  39.163  -5.052  1.00  0.00     0.141 C
HETATM    2  C7  UNL     1     -14.290  40.634  -4.859  1.00  0.00     0.004 C
HETATM    3  C8  UNL     1     -14.581  41.521  -5.793  1.00  0.00     0.010 C
HETATM    4  C9  UNL     1     -14.840  41.398  -7.231  1.00  0.00    -0.036 A
HETATM    5  C10 UNL     1     -14.185  42.450  -7.922  1.00  0.00     0.011 A
HETATM    6  C11 UNL     1     -14.237  42.623  -9.277  1.00  0.00     0.001 A
HETATM    7  C12 UNL     1     -14.979  41.695  -9.946  1.00  0.00     0.007 A
HETATM    8  C13 UNL     1     -15.658  40.620  -9.311  1.00  0.00    -0.057 A
HETATM    9  C14 UNL     1     -15.589  40.467  -7.952  1.00  0.00     0.018 A
HETATM   10  C15 UNL     1     -16.374  39.810 -10.341  1.00  0.00     0.052 C
HETATM   11  C16 UNL     1     -17.819  39.535 -10.152  1.00  0.00     0.078 C
HETATM   12  C17 UNL     1     -18.677  40.633 -10.817  1.00  0.00     0.020 C
HETATM   13  C18 UNL     1     -18.302  38.223 -10.607  1.00  0.00     0.222 C
HETATM   14  O2  UNL     1     -18.822  38.181 -11.779  1.00  0.00    -0.273 OA
HETATM   15  N1  UNL     1     -18.245  37.028  -9.878  1.00  0.00    -0.347 N
ATOM     16  H1  UNL     1     -19.089  36.460  -9.805  1.00  0.00     0.163 HD
HETATM   17  C19 UNL     1     -17.025  36.559  -9.216  1.00  0.00     0.181 C
HETATM   18  C27 UNL     1     -17.326  35.773  -8.015  1.00  0.00     0.243 C
HETATM   19  O3  UNL     1     -18.401  35.079  -8.056  1.00  0.00    -0.271 OA
HETATM   20  N2  UNL     1     -16.577  35.691  -6.824  1.00  0.00    -0.342 N
HETATM   21  C28 UNL     1     -16.845  34.567  -5.900  1.00  0.00     0.153 C
HETATM   22  C29 UNL     1     -15.551  36.607  -6.388  1.00  0.00     0.174 C
HETATM   23  C30 UNL     1     -14.322  35.752  -6.097  1.00  0.00     0.042 C
HETATM   24  C31 UNL     1     -15.955  37.361  -5.161  1.00  0.00     0.241 C
HETATM   25  O4  UNL     1     -16.946  36.855  -4.527  1.00  0.00    -0.271 OA
HETATM   26  N3  UNL     1     -15.379  38.515  -4.662  1.00  0.00    -0.347 N
ATOM     27  H3  UNL     1     -15.899  38.976  -3.916  1.00  0.00     0.163 HD
ENDROOT
BRANCH   1  28
HETATM   28  C5  UNL     1     -13.127  38.655  -4.045  1.00  0.00    -0.029 A
HETATM   29  C4  UNL     1     -13.620  38.129  -2.872  1.00  0.00     0.012 A
HETATM   30  C3  UNL     1     -12.788  37.650  -1.896  1.00  0.00     0.040 A
HETATM   31  C2  UNL     1     -11.429  37.698  -2.100  1.00  0.00     0.101 A
HETATM   32  C33 UNL     1     -10.939  38.233  -3.290  1.00  0.00     0.102 A
HETATM   33  C32 UNL     1     -11.794  38.707  -4.252  1.00  0.00     0.049 A
BRANCH  31  34
HETATM   34  O1  UNL     1     -10.594  37.215  -1.116  1.00  0.00    -0.353 OA
HETATM   35  C1  UNL     1     -10.599  35.852  -0.752  1.00  0.00     0.210 C
ENDBRANCH  31  34
BRANCH  32  36
HETATM   36  O5  UNL     1      -9.558  38.243  -3.414  1.00  0.00    -0.353 OA
HETATM   37  C34 UNL     1      -8.902  39.494  -3.494  1.00  0.00     0.210 C
ENDBRANCH  32  36
ENDBRANCH   1  28
BRANCH  17  38
HETATM   38  C20 UNL     1     -16.272  35.811 -10.275  1.00  0.00     0.073 C
BRANCH  38  39
HETATM   39  C21 UNL     1     -15.005  36.362 -10.704  1.00  0.00    -0.056 A
HETATM   40  C22 UNL     1     -14.929  37.105 -11.862  1.00  0.00     0.009 A
HETATM   41  C23 UNL     1     -13.730  37.654 -12.304  1.00  0.00     0.024 A
HETATM   42  C24 UNL     1     -12.589  37.453 -11.571  1.00  0.00     0.034 A
HETATM   43 CL1  UNL     1     -11.058  38.148 -12.124  1.00  0.00    -0.084 Cl
HETATM   44  C25 UNL     1     -12.648  36.713 -10.411  1.00  0.00     0.024 A
HETATM   45  C26 UNL     1     -13.858  36.167  -9.977  1.00  0.00     0.009 A
ENDBRANCH  38  39
ENDBRANCH  17  38
TORSDOF 5
ENDMDL