MODEL 4
REMARK VINA RESULT: -7.318361085      2.177      5.272
REMARK  8 active torsions:
REMARK  status: ('A' for Active; 'I' for Inactive)
REMARK    1  A    between atoms: C2_2  and  N2_4
REMARK       I    between atoms: N2_4  and  C3_5
REMARK    2  A    between atoms: C3_5  and  C4_7
REMARK    3  A    between atoms: C7_10  and  N3_11
REMARK    4  A    between atoms: C15_20  and  C16_21
REMARK    5  A    between atoms: C15_20  and  C22_27
REMARK    6  A    between atoms: N4_33  and  C28_34
REMARK    7  A    between atoms: C31_37  and  S1_38
REMARK    8  A    between atoms: S1_38  and  N5_39
ROOT
HETATM    1  C4  UNL     1     -13.037  38.117  -2.993  1.00  0.00     0.124 A
HETATM    2  C5  UNL     1     -12.575  38.764  -4.113  1.00  0.00     0.041 A
HETATM    3  C6  UNL     1     -13.534  38.627  -5.044  1.00  0.00     0.052 A
HETATM    4  C7  UNL     1     -14.630  37.870  -4.493  1.00  0.00     0.119 A
HETATM    5  N4  UNL     1     -14.257  37.598  -3.257  1.00  0.00    -0.291 N
ENDROOT
BRANCH   4   6
HETATM    6  N3  UNL     1     -15.774  37.567  -5.296  1.00  0.00    -0.276 N
HETATM    7  C8  UNL     1     -17.154  37.677  -4.784  1.00  0.00     0.261 C
HETATM    8  O2  UNL     1     -17.622  38.565  -4.061  1.00  0.00    -0.267 OA
HETATM    9  C9  UNL     1     -17.835  36.472  -5.343  1.00  0.00     0.042 A
HETATM   10  C10 UNL     1     -19.004  35.832  -4.917  1.00  0.00     0.018 A
HETATM   11  C14 UNL     1     -16.896  35.824  -6.108  1.00  0.00    -0.004 A
HETATM   12  C11 UNL     1     -19.150  34.505  -5.299  1.00  0.00     0.001 A
HETATM   13  C12 UNL     1     -18.224  33.814  -6.051  1.00  0.00     0.001 A
HETATM   14  C13 UNL     1     -17.073  34.512  -6.455  1.00  0.00     0.011 A
HETATM   15  C15 UNL     1     -16.012  36.985  -6.571  1.00  0.00     0.125 C
BRANCH  15  16
HETATM   16  C16 UNL     1     -14.993  36.671  -7.501  1.00  0.00    -0.020 A
HETATM   17  C17 UNL     1     -13.733  36.285  -7.058  1.00  0.00     0.010 A
HETATM   18  C18 UNL     1     -12.710  35.965  -7.939  1.00  0.00     0.001 A
HETATM   19  C19 UNL     1     -12.886  36.015  -9.303  1.00  0.00     0.000 A
HETATM   20  C20 UNL     1     -14.128  36.394  -9.758  1.00  0.00     0.001 A
HETATM   21  C21 UNL     1     -15.159  36.714  -8.862  1.00  0.00     0.010 A
ENDBRANCH  15  16
BRANCH  15  22
HETATM   22  C22 UNL     1     -17.051  37.817  -7.344  1.00  0.00    -0.020 A
HETATM   23  C23 UNL     1     -18.049  37.189  -8.067  1.00  0.00     0.010 A
HETATM   24  C24 UNL     1     -18.998  37.877  -8.799  1.00  0.00     0.001 A
HETATM   25  C25 UNL     1     -18.965  39.231  -8.818  1.00  0.00     0.000 A
HETATM   26  C26 UNL     1     -17.980  39.883  -8.109  1.00  0.00     0.001 A
HETATM   27  C27 UNL     1     -17.007  39.181  -7.358  1.00  0.00     0.010 A
ENDBRANCH  15  22
ENDBRANCH   4   6
BRANCH   5  28
HETATM   28  C28 UNL     1     -14.922  36.846  -2.235  1.00  0.00     0.041 A
HETATM   29  C29 UNL     1     -15.688  37.529  -1.335  1.00  0.00     0.031 A
HETATM   30  C30 UNL     1     -16.384  36.853  -0.368  1.00  0.00     0.027 A
HETATM   31  C31 UNL     1     -16.289  35.474  -0.328  1.00  0.00     0.079 A
HETATM   32  C32 UNL     1     -15.523  34.763  -1.224  1.00  0.00     0.027 A
HETATM   33  C33 UNL     1     -14.832  35.494  -2.194  1.00  0.00     0.031 A
BRANCH  31  34
HETATM   34  S1  UNL     1     -17.238  34.675   0.922  1.00  0.00     0.256 S
HETATM   35  O3  UNL     1     -16.518  33.427   1.363  1.00  0.00    -0.201 OA
HETATM   36  O4  UNL     1     -18.565  34.341   0.323  1.00  0.00    -0.201 OA
BRANCH  34  37
HETATM   37  N5  UNL     1     -17.427  35.772   2.239  1.00  0.00    -0.324 N
ATOM     38  H52 UNL     1     -18.313  36.003   2.688  1.00  0.00     0.169 HD
ATOM     39  H51 UNL     1     -16.506  36.140   2.482  1.00  0.00     0.169 HD
ENDBRANCH  34  37
ENDBRANCH  31  34
ENDBRANCH   5  28
BRANCH   1  40
HETATM   40  C3  UNL     1     -12.224  38.033  -1.751  1.00  0.00     0.344 C
HETATM   41  N2  UNL     1     -11.206  37.189  -1.581  1.00  0.00    -0.355 NA
HETATM   42  O1  UNL     1     -12.567  38.843  -0.821  1.00  0.00    -0.249 OA
BRANCH  41  43
HETATM   43  C2  UNL     1     -10.305  36.446  -1.427  1.00  0.00     0.166 C
HETATM   44  C1  UNL     1     -10.261  35.342  -0.393  1.00  0.00     0.102 C
HETATM   45  N1  UNL     1      -9.082  36.480  -2.232  1.00  0.00    -0.072 NA
ENDBRANCH  41  43
ENDBRANCH   1  40
TORSDOF 8
ENDMDL