MODEL 2
REMARK VINA RESULT: -8.318932946      1.140      1.322
REMARK  7 active torsions:
REMARK  status: ('A' for Active; 'I' for Inactive)
REMARK    1  A    between atoms: C2_2  and  C3_4
REMARK    2  A    between atoms: C3_4  and  N1_5
REMARK    3  A    between atoms: C14_17  and  N3_18
REMARK    4  A    between atoms: C15_20  and  C16_21
REMARK    5  A    between atoms: C16_21  and  C17_22
REMARK    6  A    between atoms: C20_25  and  S1_26
REMARK    7  A    between atoms: S1_26  and  N4_27
ROOT
HETATM    1  N1  UNL     1     -14.635  38.433  -2.399  1.00  0.00    -0.333 N
HETATM    2  C4  UNL     1     -13.440  38.099  -2.760  1.00  0.00     0.288 A
HETATM    3  C5  UNL     1     -13.226  38.080  -4.337  1.00  0.00     0.267 A
HETATM    4  C6  UNL     1     -13.184  38.080  -5.644  1.00  0.00    -0.002 A
HETATM    5  C7  UNL     1     -12.429  37.161  -6.462  1.00  0.00     0.066 C
HETATM    6  C8  UNL     1     -13.117  35.850  -6.418  1.00  0.00    -0.022 C
HETATM    7  C9  UNL     1     -14.373  35.477  -6.040  1.00  0.00     0.000 C
HETATM    8  C10 UNL     1     -15.173  35.640  -4.864  1.00  0.00     0.057 C
HETATM    9  C11 UNL     1     -14.669  36.078  -3.628  1.00  0.00     0.221 C
HETATM   10  N2  UNL     1     -13.675  36.870  -3.650  1.00  0.00     0.069 N
HETATM   11  C12 UNL     1     -14.581  38.464  -3.645  1.00  0.00     0.289 A
HETATM   12  C13 UNL     1     -14.533  38.491  -4.731  1.00  0.00     0.055 A
HETATM   13  C14 UNL     1     -14.313  38.457  -6.057  1.00  0.00     0.047 A
HETATM   14  N5  UNL     1     -15.047  35.659  -2.286  1.00  0.00    -0.297 N
HETATM   15  C23 UNL     1     -16.389  35.098  -2.196  1.00  0.00     0.161 C
HETATM   16  C24 UNL     1     -14.156  35.746  -1.120  1.00  0.00     0.259 C
HETATM   17  O3  UNL     1     -14.584  35.256  -0.059  1.00  0.00    -0.267 OA
HETATM   18  C25 UNL     1     -12.808  36.359  -1.094  1.00  0.00     0.043 A
HETATM   19  C26 UNL     1     -11.807  35.828  -0.372  1.00  0.00     0.018 A
HETATM   20  C27 UNL     1     -10.506  36.349  -0.394  1.00  0.00     0.001 A
HETATM   21  C28 UNL     1     -10.196  37.450  -1.172  1.00  0.00     0.001 A
HETATM   22  C29 UNL     1     -11.194  38.026  -1.923  1.00  0.00     0.013 A
HETATM   23  C30 UNL     1     -12.446  37.508  -1.888  1.00  0.00     0.018 A
ENDROOT
BRANCH  13  24
HETATM   24  N3  UNL     1     -15.387  38.888  -6.809  1.00  0.00    -0.369 N
HETATM   25  C15 UNL     1     -15.374  39.004  -8.168  1.00  0.00     0.066 C
ATOM     26  H3  UNL     1     -16.245  39.134  -6.318  1.00  0.00     0.165 HD
BRANCH  25  27
HETATM   27  C16 UNL     1     -15.543  37.670  -8.856  1.00  0.00     0.083 C
BRANCH  27  28
HETATM   28  C17 UNL     1     -14.642  37.474 -10.014  1.00  0.00    -0.053 A
HETATM   29  C18 UNL     1     -13.799  36.411 -10.118  1.00  0.00     0.009 A
HETATM   30  C19 UNL     1     -12.950  36.240 -11.223  1.00  0.00     0.026 A
HETATM   31  C20 UNL     1     -13.002  37.212 -12.222  1.00  0.00     0.079 A
HETATM   32  C21 UNL     1     -13.840  38.286 -12.136  1.00  0.00     0.026 A
HETATM   33  C22 UNL     1     -14.662  38.412 -11.023  1.00  0.00     0.009 A
BRANCH  31  34
HETATM   34  S1  UNL     1     -11.988  37.101 -13.658  1.00  0.00     0.256 S
HETATM   35  O1  UNL     1     -10.691  37.832 -13.447  1.00  0.00    -0.201 OA
HETATM   36  O2  UNL     1     -12.647  37.718 -14.851  1.00  0.00    -0.201 OA
BRANCH  34  37
HETATM   37  N4  UNL     1     -11.618  35.471 -13.999  1.00  0.00    -0.324 N
ATOM     38  H42 UNL     1     -11.414  34.771 -13.286  1.00  0.00     0.169 HD
ATOM     39  H41 UNL     1     -11.632  35.307 -15.006  1.00  0.00     0.169 HD
ENDBRANCH  34  37
ENDBRANCH  31  34
ENDBRANCH  27  28
ENDBRANCH  25  27
ENDBRANCH  13  24
BRANCH   1  40
HETATM   40  C3  UNL     1     -15.741  38.796  -1.447  1.00  0.00     0.138 C
BRANCH  40  41
HETATM   41  C2  UNL     1     -16.795  39.616  -2.153  1.00  0.00     0.071 C
HETATM   42  C1  UNL     1     -17.283  40.770  -1.360  1.00  0.00     0.023 C
HETATM   43 BR1  UNL     1     -18.273  38.452  -2.568  1.00  0.00    -0.090 Br
ENDBRANCH  40  41
ENDBRANCH   1  40
TORSDOF 7
ENDMDL