MODEL 4
REMARK VINA RESULT: -8.141311266      2.512      3.377
REMARK  10 active torsions:
REMARK  status: ('A' for Active; 'I' for Inactive)
REMARK    1  A    between atoms: C3_3  and  C4_4
REMARK    2  A    between atoms: C4_4  and  C5_5
REMARK    3  A    between atoms: C10_11  and  C11_12
REMARK    4  A    between atoms: C11_12  and  C12_13
REMARK    5  A    between atoms: C14_18  and  C15_19
REMARK    6  A    between atoms: C15_19  and  C16_20
REMARK    7  A    between atoms: C19_23  and  C20_24
REMARK    8  A    between atoms: N3_36  and  C29_37
REMARK    9  A    between atoms: C33_41  and  O3_42
REMARK   10  A    between atoms: O3_42  and  C34_43
ROOT
HETATM    1  C5  UNL     1     -12.480  36.871  -2.124  1.00  0.00    -0.023 A
HETATM    2  C6  UNL     1     -12.016  36.176  -1.032  1.00  0.00     0.012 A
HETATM    3  C7  UNL     1     -10.690  36.280  -0.631  1.00  0.00     0.003 A
HETATM    4  C8  UNL     1      -9.805  37.083  -1.318  1.00  0.00     0.024 A
HETATM    5  C9  UNL     1     -10.260  37.781  -2.412  1.00  0.00     0.045 A
HETATM    6 CL1  UNL     1      -9.160  38.817  -3.322  1.00  0.00    -0.083 Cl
HETATM    7  C10 UNL     1     -11.595  37.673  -2.813  1.00  0.00    -0.002 A
ENDROOT
BRANCH   7   8
HETATM    8  C11 UNL     1     -12.100  38.393  -3.953  1.00  0.00     0.049 C
BRANCH   8   9
HETATM    9  C12 UNL     1     -12.591  37.824  -5.040  1.00  0.00     0.104 A
HETATM   10  N1  UNL     1     -13.891  37.852  -5.363  1.00  0.00    -0.317 N
HETATM   11  C13 UNL     1     -14.388  37.256  -6.486  1.00  0.00     0.273 A
ATOM     12  H1  UNL     1     -14.538  38.339  -4.743  1.00  0.00     0.169 HD
HETATM   13  O1  UNL     1     -15.619  37.358  -6.670  1.00  0.00    -0.266 OA
HETATM   14  C14 UNL     1     -13.556  36.594  -7.343  1.00  0.00     0.104 A
HETATM   15  N2  UNL     1     -12.231  36.556  -7.029  1.00  0.00    -0.317 N
HETATM   16  C25 UNL     1     -11.771  37.143  -5.932  1.00  0.00     0.273 A
ATOM     17  H2  UNL     1     -11.583  36.069  -7.648  1.00  0.00     0.169 HD
HETATM   18  O2  UNL     1     -10.534  37.086  -5.677  1.00  0.00    -0.266 OA
BRANCH  14  19
HETATM   19  C15 UNL     1     -14.004  36.007  -8.424  1.00  0.00     0.046 C
BRANCH  19  20
HETATM   20  C16 UNL     1     -13.835  36.506  -9.758  1.00  0.00    -0.034 A
HETATM   21  C17 UNL     1     -14.695  37.424 -10.353  1.00  0.00     0.012 A
HETATM   22  C18 UNL     1     -14.507  37.906 -11.630  1.00  0.00     0.008 A
HETATM   23  C19 UNL     1     -13.444  37.491 -12.377  1.00  0.00    -0.055 A
HETATM   24  C23 UNL     1     -12.569  36.590 -11.840  1.00  0.00     0.008 A
HETATM   25  C24 UNL     1     -12.759  36.111 -10.564  1.00  0.00     0.012 A
BRANCH  23  26
HETATM   26  C20 UNL     1     -13.207  37.995 -13.757  1.00  0.00     0.010 C
HETATM   27  C21 UNL     1     -12.288  37.016 -14.461  1.00  0.00     0.015 C
HETATM   28  C22 UNL     1     -12.535  39.337 -13.689  1.00  0.00     0.015 C
ENDBRANCH  23  26
ENDBRANCH  19  20
ENDBRANCH  14  19
ENDBRANCH   8   9
ENDBRANCH   7   8
BRANCH   1  29
HETATM   29  C4  UNL     1     -13.876  36.730  -2.502  1.00  0.00     0.026 C
BRANCH  29  30
HETATM   30  C3  UNL     1     -14.825  37.086  -1.651  1.00  0.00    -0.007 A
HETATM   31  C2  UNL     1     -15.634  36.291  -0.871  1.00  0.00     0.040 A
HETATM   32  C1  UNL     1     -15.600  34.975  -0.838  1.00  0.00     0.044 C
HETATM   33  N3  UNL     1     -16.480  37.070  -0.134  1.00  0.00    -0.316 N
HETATM   34  C27 UNL     1     -16.242  38.356  -0.415  1.00  0.00     0.014 A
HETATM   35  C26 UNL     1     -15.211  38.378  -1.362  1.00  0.00     0.039 A
HETATM   36  C28 UNL     1     -16.941  39.503   0.170  1.00  0.00     0.068 C
BRANCH  33  37
HETATM   37  C29 UNL     1     -17.462  36.621   0.788  1.00  0.00     0.042 A
HETATM   38  C30 UNL     1     -17.104  36.455   2.113  1.00  0.00     0.030 A
HETATM   39  C31 UNL     1     -17.980  36.033   3.075  1.00  0.00     0.005 A
HETATM   40  C32 UNL     1     -19.300  35.754   2.716  1.00  0.00     0.037 A
HETATM   41  C33 UNL     1     -19.688  35.908   1.413  1.00  0.00     0.081 A
HETATM   42  C36 UNL     1     -18.766  36.340   0.458  1.00  0.00     0.067 A
BRANCH  41  43
HETATM   43  O3  UNL     1     -21.001  35.635   1.033  1.00  0.00    -0.279 OA
BRANCH  43  44
HETATM   44  C34 UNL     1     -21.511  34.347   1.058  1.00  0.00     0.260 C
HETATM   45  C35 UNL     1     -22.830  34.045   1.705  1.00  0.00     0.126 C
HETATM   46  O4  UNL     1     -20.828  33.435   0.518  1.00  0.00    -0.265 OA
ENDBRANCH  43  44
ENDBRANCH  41  43
ENDBRANCH  33  37
ENDBRANCH  29  30
ENDBRANCH   1  29
TORSDOF 10
ENDMDL