MODEL 1
REMARK VINA RESULT: -8.024205321      0.000      0.000
REMARK  10 active torsions:
REMARK  status: ('A' for Active; 'I' for Inactive)
REMARK    1  A    between atoms: C2_2  and  C3_3
REMARK    2  A    between atoms: C6_6  and  C7_7
REMARK    3  A    between atoms: C7_7  and  C8_8
REMARK    4  A    between atoms: C8_8  and  C9_9
REMARK    5  A    between atoms: C12_14  and  C13_15
REMARK    6  A    between atoms: C19_22  and  C20_23
REMARK    7  A    between atoms: C20_23  and  C21_24
REMARK    8  A    between atoms: C22_26  and  C23_27
REMARK    9  A    between atoms: C23_27  and  C24_28
REMARK   10  A    between atoms: C27_31  and  N1_32
REMARK       I    between atoms: N1_32  and  C28_34
ROOT
HETATM    1  C9  UNL     1     -17.963  36.058  -1.834  1.00  0.00    -0.003 C
HETATM    2  C10 UNL     1     -18.041  34.767  -1.871  1.00  0.00     0.016 C
HETATM    3  S1  UNL     1     -17.180  33.574  -0.810  1.00  0.00    -0.047 SA
HETATM    4  C11 UNL     1     -18.618  32.495  -0.854  1.00  0.00     0.225 C
HETATM    5  O1  UNL     1     -19.020  31.761   0.050  1.00  0.00    -0.279 OA
HETATM    6  C12 UNL     1     -19.150  32.740  -2.224  1.00  0.00     0.043 C
HETATM    7  C19 UNL     1     -18.873  33.867  -2.788  1.00  0.00    -0.002 C
ENDROOT
BRANCH   7   8
HETATM    8  C20 UNL     1     -18.968  34.396  -4.149  1.00  0.00     0.038 C
BRANCH   8   9
HETATM    9  C21 UNL     1     -18.121  34.953  -4.974  1.00  0.00     0.075 A
HETATM   10  S2  UNL     1     -16.504  34.696  -5.412  1.00  0.00    -0.067 SA
HETATM   11  C22 UNL     1     -16.280  35.925  -6.557  1.00  0.00     0.078 A
HETATM   12  N2  UNL     1     -17.473  36.499  -6.564  1.00  0.00    -0.317 N
HETATM   13  C32 UNL     1     -18.413  36.052  -5.798  1.00  0.00     0.263 A
ATOM     14  H2  UNL     1     -17.651  37.296  -7.175  1.00  0.00     0.169 HD
HETATM   15  O3  UNL     1     -19.594  36.582  -5.771  1.00  0.00    -0.267 OA
BRANCH  11  16
HETATM   16  C23 UNL     1     -15.187  36.254  -7.278  1.00  0.00     0.048 C
BRANCH  16  17
HETATM   17  C24 UNL     1     -13.987  36.748  -6.628  1.00  0.00    -0.033 A
HETATM   18  C25 UNL     1     -12.749  36.486  -7.174  1.00  0.00     0.014 A
HETATM   19  C26 UNL     1     -11.599  36.941  -6.575  1.00  0.00     0.030 A
HETATM   20  C27 UNL     1     -11.605  37.688  -5.389  1.00  0.00     0.034 A
HETATM   21  C30 UNL     1     -12.851  37.935  -4.866  1.00  0.00     0.030 A
HETATM   22  C31 UNL     1     -14.030  37.477  -5.468  1.00  0.00     0.014 A
BRANCH  20  23
HETATM   23  N1  UNL     1     -10.389  38.121  -4.828  1.00  0.00    -0.328 N
HETATM   24  C28 UNL     1     -10.161  39.170  -3.935  1.00  0.00     0.218 C
HETATM   25  C29 UNL     1      -8.727  39.402  -3.495  1.00  0.00     0.117 C
HETATM   26  O2  UNL     1     -11.020  39.939  -3.462  1.00  0.00    -0.274 OA
ATOM     27  H1  UNL     1      -9.562  37.596  -5.111  1.00  0.00     0.169 HD
ENDBRANCH  20  23
ENDBRANCH  16  17
ENDBRANCH  11  16
ENDBRANCH   8   9
ENDBRANCH   7   8
BRANCH   6  28
HETATM   28  C13 UNL     1     -20.142  31.711  -2.676  1.00  0.00    -0.021 A
HETATM   29  C14 UNL     1     -19.943  30.975  -3.828  1.00  0.00     0.014 A
HETATM   30  C15 UNL     1     -20.856  30.074  -4.302  1.00  0.00     0.024 A
HETATM   31  C16 UNL     1     -22.028  29.892  -3.600  1.00  0.00     0.034 A
HETATM   32 CL1  UNL     1     -23.268  28.760  -4.123  1.00  0.00    -0.084 Cl
HETATM   33  C17 UNL     1     -22.269  30.618  -2.430  1.00  0.00     0.024 A
HETATM   34  C18 UNL     1     -21.319  31.511  -1.995  1.00  0.00     0.014 A
ENDBRANCH   6  28
BRANCH   1  35
HETATM   35  C8  UNL     1     -17.067  36.671  -0.810  1.00  0.00     0.056 C
BRANCH  35  36
HETATM   36  C7  UNL     1     -15.922  37.358  -1.417  1.00  0.00    -0.012 C
BRANCH  36  37
HETATM   37  C6  UNL     1     -14.669  37.005  -1.268  1.00  0.00    -0.040 A
HETATM   38  C5  UNL     1     -13.628  37.907  -1.402  1.00  0.00     0.012 A
HETATM   39  C4  UNL     1     -12.314  37.517  -1.241  1.00  0.00     0.012 A
HETATM   40  C3  UNL     1     -11.988  36.200  -0.939  1.00  0.00    -0.040 A
HETATM   41  C34 UNL     1     -13.020  35.301  -0.806  1.00  0.00     0.012 A
HETATM   42  C33 UNL     1     -14.347  35.697  -0.969  1.00  0.00     0.012 A
BRANCH  40  43
HETATM   43  C2  UNL     1     -10.711  35.828  -0.785  1.00  0.00    -0.020 C
HETATM   44  C1  UNL     1      -9.625  36.410  -1.593  1.00  0.00     0.037 C
ENDBRANCH  40  43
ENDBRANCH  36  37
ENDBRANCH  35  36
ENDBRANCH   1  35
TORSDOF 10
ENDMDL