MODEL 3
REMARK VINA RESULT: -8.037286429      2.295      2.578
REMARK  7 active torsions:
REMARK  status: ('A' for Active; 'I' for Inactive)
REMARK    1  A    between atoms: N1_2  and  C3_4
REMARK    2  A    between atoms: C7_8  and  C8_9
REMARK    3  A    between atoms: C8_9  and  C9_10
REMARK    4  A    between atoms: C8_9  and  N3_17
REMARK    5  A    between atoms: C16_20  and  N4_21
REMARK    6  A    between atoms: N4_21  and  S1_23
REMARK    7  A    between atoms: S1_23  and  C17_26
ROOT
HETATM    1  N3  UNL     1     -13.640  37.254  -3.198  1.00  0.00    -0.278 N
HETATM    2  C15 UNL     1     -14.585  36.207  -2.886  1.00  0.00     0.257 A
HETATM    3  O1  UNL     1     -15.611  35.898  -3.576  1.00  0.00    -0.270 OA
HETATM    4  C16 UNL     1     -14.228  35.508  -1.646  1.00  0.00     0.221 A
HETATM    5  C26 UNL     1     -12.914  36.131  -1.299  1.00  0.00     0.002 A
HETATM    6  C27 UNL     1     -12.024  35.847  -0.279  1.00  0.00     0.012 A
HETATM    7  C28 UNL     1     -10.861  36.578  -0.146  1.00  0.00     0.001 A
HETATM    8  C29 UNL     1     -10.559  37.605  -1.022  1.00  0.00     0.002 A
HETATM    9  C30 UNL     1     -11.446  37.873  -2.021  1.00  0.00     0.031 A
HETATM   10  C31 UNL     1     -12.626  37.145  -2.172  1.00  0.00     0.051 A
ENDROOT
BRANCH   4  11
HETATM   11  N4  UNL     1     -15.222  35.811  -0.637  1.00  0.00    -0.297 N
ATOM     12  H4  UNL     1     -15.245  36.698  -0.133  1.00  0.00     0.173 HD
BRANCH  11  13
HETATM   13  S1  UNL     1     -16.346  34.565  -0.362  1.00  0.00     0.261 S
HETATM   14  O2  UNL     1     -15.849  33.245  -0.911  1.00  0.00    -0.200 OA
HETATM   15  O3  UNL     1     -16.419  34.361   1.146  1.00  0.00    -0.200 OA
BRANCH  13  16
HETATM   16  C17 UNL     1     -17.952  34.922  -0.895  1.00  0.00     0.102 A
HETATM   17  C18 UNL     1     -18.355  36.184  -1.279  1.00  0.00     0.040 A
HETATM   18  C19 UNL     1     -19.638  36.448  -1.690  1.00  0.00    -0.008 A
HETATM   19  C20 UNL     1     -20.063  37.708  -2.079  1.00  0.00     0.019 A
HETATM   20  C23 UNL     1     -20.570  35.428  -1.726  1.00  0.00     0.047 A
HETATM   21  C21 UNL     1     -21.380  37.914  -2.487  1.00  0.00     0.075 A
HETATM   22  C22 UNL     1     -22.268  36.871  -2.506  1.00  0.00     0.245 A
HETATM   23  O4  UNL     1     -23.472  36.972  -2.859  1.00  0.00    -0.268 OA
HETATM   24  N5  UNL     1     -21.830  35.662  -2.123  1.00  0.00    -0.323 N
ATOM     25  H5  UNL     1     -22.487  34.881  -2.136  1.00  0.00     0.169 HD
HETATM   26  C24 UNL     1     -20.202  34.154  -1.349  1.00  0.00     0.056 A
HETATM   27  C25 UNL     1     -18.888  33.913  -0.935  1.00  0.00     0.059 A
HETATM   28 CL1  UNL     1     -18.534  32.248  -0.491  1.00  0.00    -0.083 Cl
ENDBRANCH  13  16
ENDBRANCH  11  13
ENDBRANCH   4  11
BRANCH   1  29
HETATM   29  C8  UNL     1     -13.699  38.124  -4.323  1.00  0.00     0.064 C
BRANCH  29  30
HETATM   30  C7  UNL     1     -13.707  37.434  -5.663  1.00  0.00    -0.006 A
HETATM   31  C6  UNL     1     -12.463  37.040  -6.189  1.00  0.00     0.014 A
HETATM   32  C5  UNL     1     -12.316  36.388  -7.382  1.00  0.00     0.003 A
HETATM   33  C4  UNL     1     -13.430  36.093  -8.124  1.00  0.00     0.029 A
HETATM   34  C3  UNL     1     -14.658  36.467  -7.630  1.00  0.00     0.030 A
HETATM   35  C32 UNL     1     -14.789  37.135  -6.404  1.00  0.00     0.043 A
BRANCH  34  36
HETATM   36  N1  UNL     1     -15.816  36.158  -8.406  1.00  0.00    -0.390 N
HETATM   37  C1  UNL     1     -15.769  36.166  -9.857  1.00  0.00     0.149 C
HETATM   38  C2  UNL     1     -17.071  35.827  -7.767  1.00  0.00     0.149 C
ENDBRANCH  34  36
ENDBRANCH  29  30
BRANCH  29  39
HETATM   39  C9  UNL     1     -14.597  39.263  -4.243  1.00  0.00     0.008 A
HETATM   40  C10 UNL     1     -14.311  40.362  -5.047  1.00  0.00     0.016 A
HETATM   41  C11 UNL     1     -15.077  41.495  -5.071  1.00  0.00     0.018 A
HETATM   42  C12 UNL     1     -16.191  41.537  -4.244  1.00  0.00     0.090 A
HETATM   43  N2  UNL     1     -16.482  40.474  -3.455  1.00  0.00    -0.370 N
HETATM   44  C13 UNL     1     -17.650  40.501  -2.581  1.00  0.00     0.154 C
HETATM   45  C14 UNL     1     -15.717  39.374  -3.450  1.00  0.00     0.103 A
ENDBRANCH  29  39
ENDBRANCH   1  29
TORSDOF 7
ENDMDL