MODEL 3
REMARK VINA RESULT: -7.978324407      4.081      7.428
REMARK  6 active torsions:
REMARK  status: ('A' for Active; 'I' for Inactive)
REMARK    1  A    between atoms: S1_2  and  C2_5
REMARK    2  A    between atoms: C9_15  and  C10_16
REMARK    3  A    between atoms: C10_16  and  C11_17
REMARK       I    between atoms: C11_17  and  N2_19
REMARK    4  A    between atoms: N2_19  and  C12_21
REMARK    5  A    between atoms: N3_35  and  C25_36
REMARK    6  A    between atoms: C25_36  and  C26_37
ROOT
HETATM    1  C2  UNL     1     -17.253  39.909  -5.631  1.00  0.00     0.061 A
HETATM    2  C3  UNL     1     -17.734  41.045  -5.019  1.00  0.00     0.024 A
HETATM    3  C4  UNL     1     -18.207  40.951  -3.708  1.00  0.00     0.011 A
HETATM    4  C5  UNL     1     -18.191  39.755  -3.049  1.00  0.00    -0.023 A
HETATM    5  C6  UNL     1     -17.711  38.612  -3.652  1.00  0.00     0.043 A
HETATM    6  C7  UNL     1     -17.246  38.714  -4.947  1.00  0.00     0.053 A
HETATM    7  N1  UNL     1     -17.525  37.238  -3.311  1.00  0.00    -0.325 N
ATOM      8  H1  UNL     1     -17.448  36.612  -4.113  1.00  0.00     0.169 HD
HETATM    9  C8  UNL     1     -17.428  36.578  -2.025  1.00  0.00     0.245 C
HETATM   10  O3  UNL     1     -17.969  35.450  -2.035  1.00  0.00    -0.271 OA
HETATM   11  C9  UNL     1     -16.847  36.933  -0.736  1.00  0.00     0.188 C
HETATM   12  N3  UNL     1     -17.293  38.198  -0.185  1.00  0.00    -0.334 N
HETATM   13  C32 UNL     1     -17.849  39.398  -0.696  1.00  0.00     0.225 C
HETATM   14  O5  UNL     1     -17.355  40.376  -0.017  1.00  0.00    -0.273 OA
HETATM   15  C33 UNL     1     -18.768  39.938  -1.700  1.00  0.00     0.144 C
ENDROOT
BRANCH  11  16
HETATM   16  C10 UNL     1     -15.359  36.874  -0.750  1.00  0.00     0.138 C
BRANCH  16  17
HETATM   17  C11 UNL     1     -14.688  37.696  -1.790  1.00  0.00     0.220 C
HETATM   18  O4  UNL     1     -14.707  38.954  -1.782  1.00  0.00    -0.274 OA
HETATM   19  N2  UNL     1     -13.982  37.077  -2.862  1.00  0.00    -0.348 N
ATOM     20  H2  UNL     1     -13.931  36.061  -2.925  1.00  0.00     0.163 HD
BRANCH  19  21
HETATM   21  C12 UNL     1     -13.345  37.896  -3.851  1.00  0.00     0.152 A
HETATM   22  C13 UNL     1     -11.924  38.119  -3.610  1.00  0.00    -0.020 A
HETATM   23  C14 UNL     1     -11.273  38.637  -2.483  1.00  0.00     0.010 A
HETATM   24  C18 UNL     1     -11.230  37.724  -4.722  1.00  0.00    -0.017 A
HETATM   25  C15 UNL     1      -9.907  38.737  -2.533  1.00  0.00     0.001 A
HETATM   26  C16 UNL     1      -9.156  38.358  -3.620  1.00  0.00     0.001 A
HETATM   27  C17 UNL     1      -9.832  37.853  -4.706  1.00  0.00     0.013 A
HETATM   28  C19 UNL     1     -12.162  37.233  -5.723  1.00  0.00    -0.017 A
HETATM   29  C20 UNL     1     -11.946  36.728  -6.998  1.00  0.00     0.014 A
HETATM   30  C24 UNL     1     -13.427  37.331  -5.210  1.00  0.00    -0.018 A
HETATM   31  C21 UNL     1     -12.990  36.306  -7.801  1.00  0.00     0.024 A
HETATM   32  C22 UNL     1     -14.262  36.407  -7.280  1.00  0.00     0.034 A
HETATM   33 CL1  UNL     1     -15.615  35.873  -8.286  1.00  0.00    -0.084 Cl
HETATM   34  C23 UNL     1     -14.486  36.907  -6.015  1.00  0.00     0.034 A
ENDBRANCH  19  21
ENDBRANCH  16  17
ENDBRANCH  11  16
BRANCH  12  35
HETATM   35  C25 UNL     1     -17.135  38.271   1.241  1.00  0.00     0.165 C
BRANCH  35  36
HETATM   36  C26 UNL     1     -18.170  37.443   1.946  1.00  0.00    -0.040 A
HETATM   37  C27 UNL     1     -19.514  37.789   1.876  1.00  0.00     0.009 A
HETATM   38  C28 UNL     1     -20.463  37.008   2.538  1.00  0.00     0.001 A
HETATM   39  C29 UNL     1     -20.102  35.906   3.254  1.00  0.00     0.000 A
HETATM   40  C30 UNL     1     -18.745  35.571   3.315  1.00  0.00     0.001 A
HETATM   41  C31 UNL     1     -17.799  36.334   2.666  1.00  0.00     0.009 A
ENDBRANCH  35  36
ENDBRANCH  12  35
BRANCH   1  42
HETATM   42  S1  UNL     1     -16.670  40.056  -7.269  1.00  0.00     0.172 S
HETATM   43  C1  UNL     1     -17.252  41.562  -8.025  1.00  0.00     0.167 C
HETATM   44  O1  UNL     1     -15.181  40.048  -7.342  1.00  0.00    -0.223 OA
HETATM   45  O2  UNL     1     -17.179  38.860  -8.030  1.00  0.00    -0.223 OA
ENDBRANCH   1  42
TORSDOF 6
ENDMDL