MODEL 5
REMARK VINA RESULT: -7.437521378      3.904      7.461
REMARK  7 active torsions:
REMARK  status: ('A' for Active; 'I' for Inactive)
REMARK    1  A    between atoms: N3_7  and  C3_8
REMARK    2  A    between atoms: C3_8  and  C4_9
REMARK    3  A    between atoms: C10_15  and  O1_16
REMARK    4  A    between atoms: C10_15  and  C11_18
REMARK    5  A    between atoms: C11_18  and  N4_19
REMARK    6  A    between atoms: C15_24  and  C16_25
REMARK    7  A    between atoms: N5_35  and  C24_36
ROOT
HETATM    1  C1  UNL     1     -16.019  36.358  -6.500  1.00  0.00     0.171 C
HETATM    2  N1  UNL     1     -15.280  36.958  -5.424  1.00  0.00    -0.194 N
HETATM    3  C2  UNL     1     -13.866  37.052  -5.257  1.00  0.00     0.676 C
HETATM    4  N2  UNL     1     -13.000  36.205  -5.683  1.00  0.00    -0.235 N
ATOM      5  H21 UNL     1     -11.990  36.273  -5.563  1.00  0.00     0.174 HD
ATOM      6  H22 UNL     1     -13.176  35.340  -6.193  1.00  0.00     0.174 HD
HETATM    7  N3  UNL     1     -13.619  38.265  -4.542  1.00  0.00    -0.173 N
HETATM    8  C10 UNL     1     -14.912  38.811  -4.157  1.00  0.00     0.223 C
HETATM    9  C22 UNL     1     -15.788  37.617  -4.210  1.00  0.00     0.215 C
HETATM   10  C23 UNL     1     -15.417  36.662  -3.140  1.00  0.00     0.268 C
HETATM   11  O3  UNL     1     -14.341  36.044  -2.968  1.00  0.00    -0.269 OA
HETATM   12  N5  UNL     1     -16.509  36.524  -2.278  1.00  0.00    -0.279 N
HETATM   13  C30 UNL     1     -17.595  37.215  -2.902  1.00  0.00     0.052 A
HETATM   14  C31 UNL     1     -18.928  37.275  -2.474  1.00  0.00     0.031 A
HETATM   15  C32 UNL     1     -19.907  37.885  -3.223  1.00  0.00     0.002 A
HETATM   16  C33 UNL     1     -19.498  38.431  -4.419  1.00  0.00     0.001 A
HETATM   17  C34 UNL     1     -18.191  38.383  -4.852  1.00  0.00     0.013 A
HETATM   18  C35 UNL     1     -17.198  37.767  -4.091  1.00  0.00     0.013 A
ENDROOT
BRANCH   8  19
HETATM   19  O1  UNL     1     -14.807  39.170  -2.767  1.00  0.00    -0.363 OA
ATOM     20  H1  UNL     1     -15.574  38.811  -2.335  1.00  0.00     0.213 HD
ENDBRANCH   8  19
BRANCH   8  21
HETATM   21  C11 UNL     1     -15.211  40.026  -4.871  1.00  0.00     0.129 C
BRANCH  21  22
HETATM   22  N4  UNL     1     -15.433  41.274  -4.294  1.00  0.00    -0.353 N
HETATM   23  C12 UNL     1     -16.713  41.764  -4.002  1.00  0.00     0.072 C
HETATM   24  C13 UNL     1     -16.665  43.288  -4.119  1.00  0.00     0.125 C
HETATM   25  C14 UNL     1     -15.248  43.609  -4.326  1.00  0.00     0.159 C
HETATM   26  O2  UNL     1     -14.621  44.638  -4.146  1.00  0.00    -0.295 OA
HETATM   27  C15 UNL     1     -14.639  42.355  -4.843  1.00  0.00     0.191 C
BRANCH  27  28
HETATM   28  C16 UNL     1     -14.599  42.413  -6.311  1.00  0.00    -0.028 A
HETATM   29  C17 UNL     1     -15.428  41.692  -7.143  1.00  0.00     0.011 A
HETATM   30  C18 UNL     1     -15.390  41.749  -8.513  1.00  0.00     0.024 A
HETATM   31  C19 UNL     1     -14.466  42.578  -9.130  1.00  0.00     0.034 A
HETATM   32 CL1  UNL     1     -14.418  42.649 -10.879  1.00  0.00    -0.084 Cl
HETATM   33  C20 UNL     1     -13.619  43.315  -8.332  1.00  0.00     0.024 A
HETATM   34  C21 UNL     1     -13.675  43.243  -6.964  1.00  0.00     0.011 A
ENDBRANCH  27  28
ENDBRANCH  21  22
ENDBRANCH   8  21
BRANCH   7  35
HETATM   35  C3  UNL     1     -12.364  38.891  -4.227  1.00  0.00     0.183 C
BRANCH  35  36
HETATM   36  C4  UNL     1     -11.501  38.204  -3.280  1.00  0.00    -0.040 A
HETATM   37  C5  UNL     1     -10.373  37.547  -3.727  1.00  0.00     0.009 A
HETATM   38  C6  UNL     1      -9.521  36.880  -2.854  1.00  0.00     0.001 A
HETATM   39  C7  UNL     1      -9.789  36.864  -1.505  1.00  0.00     0.000 A
HETATM   40  C8  UNL     1     -10.904  37.511  -1.036  1.00  0.00     0.001 A
HETATM   41  C9  UNL     1     -11.737  38.166  -1.920  1.00  0.00     0.009 A
ENDBRANCH  35  36
ENDBRANCH   7  35
BRANCH  12  42
HETATM   42  C24 UNL     1     -16.578  35.842  -1.019  1.00  0.00     0.042 A
HETATM   43  C25 UNL     1     -16.150  36.475   0.124  1.00  0.00     0.030 A
HETATM   44  C26 UNL     1     -16.207  35.835   1.366  1.00  0.00     0.002 A
HETATM   45  C27 UNL     1     -16.692  34.555   1.467  1.00  0.00     0.000 A
HETATM   46  C28 UNL     1     -17.120  33.916   0.330  1.00  0.00     0.002 A
HETATM   47  C29 UNL     1     -17.062  34.563  -0.911  1.00  0.00     0.030 A
ENDBRANCH  12  42
TORSDOF 7
ENDMDL