MODEL 4
REMARK VINA RESULT: -9.165984780      0.978      1.390
REMARK  7 active torsions:
REMARK  status: ('A' for Active; 'I' for Inactive)
REMARK    1  A    between atoms: N1_1  and  S1_4
REMARK    2  A    between atoms: S1_4  and  C1_7
REMARK    3  A    between atoms: C6_12  and  C7_13
REMARK    4  A    between atoms: N2_25  and  C18_26
REMARK    5  A    between atoms: C18_26  and  C19_27
REMARK    6  A    between atoms: C19_27  and  C20_28
REMARK    7  A    between atoms: C19_27  and  C26_34
ROOT
HETATM    1  C7  UNL     1     -13.272  36.233 -10.929  1.00  0.00    -0.013 A
HETATM    2  C8  UNL     1     -12.059  36.310 -10.283  1.00  0.00     0.014 A
HETATM    3  C9  UNL     1     -12.026  36.291  -8.883  1.00  0.00     0.019 A
HETATM    4  C10 UNL     1     -13.178  36.195  -8.139  1.00  0.00     0.044 A
HETATM    5  C11 UNL     1     -14.407  36.115  -8.760  1.00  0.00     0.006 A
HETATM    6  C12 UNL     1     -15.568  36.024  -8.002  1.00  0.00     0.044 A
HETATM    7  C13 UNL     1     -16.783  35.951  -8.626  1.00  0.00     0.018 A
HETATM    8  C14 UNL     1     -16.834  35.971  -9.999  1.00  0.00     0.002 A
HETATM    9  C15 UNL     1     -15.666  36.063 -10.743  1.00  0.00     0.013 A
HETATM   10  C16 UNL     1     -14.430  36.136 -10.143  1.00  0.00    -0.013 A
HETATM   11  C17 UNL     1     -15.472  36.010  -6.529  1.00  0.00     0.261 A
HETATM   12  O3  UNL     1     -16.547  35.933  -5.929  1.00  0.00    -0.267 OA
HETATM   13  N2  UNL     1     -14.259  36.084  -5.844  1.00  0.00    -0.276 N
HETATM   14  C34 UNL     1     -13.076  36.180  -6.689  1.00  0.00     0.261 A
HETATM   15  O5  UNL     1     -11.965  36.252  -6.118  1.00  0.00    -0.267 OA
ENDROOT
BRANCH  13  16
HETATM   16  C18 UNL     1     -14.124  36.025  -4.420  1.00  0.00     0.176 C
BRANCH  16  17
HETATM   17  C19 UNL     1     -13.966  37.268  -3.667  1.00  0.00    -0.016 C
BRANCH  17  18
HETATM   18  C20 UNL     1     -12.719  37.885  -3.332  1.00  0.00    -0.027 A
HETATM   19  C21 UNL     1     -12.016  37.328  -2.238  1.00  0.00     0.012 A
HETATM   20  C22 UNL     1     -10.804  37.795  -1.811  1.00  0.00     0.001 A
HETATM   21  C23 UNL     1     -10.192  38.853  -2.438  1.00  0.00     0.000 A
HETATM   22  C24 UNL     1     -10.876  39.396  -3.503  1.00  0.00     0.001 A
HETATM   23  C25 UNL     1     -12.086  38.927  -3.924  1.00  0.00     0.012 A
ENDBRANCH  17  18
BRANCH  17  24
HETATM   24  C26 UNL     1     -14.876  37.336  -2.458  1.00  0.00     0.012 A
HETATM   25  C27 UNL     1     -15.552  38.519  -2.156  1.00  0.00     0.025 A
HETATM   26  C28 UNL     1     -16.392  38.667  -1.064  1.00  0.00    -0.024 A
HETATM   27  C29 UNL     1     -16.544  37.570  -0.254  1.00  0.00     0.042 A
HETATM   28  C33 UNL     1     -17.203  39.809  -0.557  1.00  0.00     0.162 A
HETATM   29  C30 UNL     1     -15.879  36.390  -0.540  1.00  0.00     0.060 A
HETATM   30  C32 UNL     1     -17.463  37.957   0.819  1.00  0.00     0.252 A
HETATM   31  C31 UNL     1     -15.035  36.243  -1.640  1.00  0.00     0.128 A
HETATM   32  F1  UNL     1     -14.427  35.054  -1.860  1.00  0.00    -0.205 F
HETATM   33  O4  UNL     1     -17.842  37.215   1.753  1.00  0.00    -0.268 OA
HETATM   34  N3  UNL     1     -17.848  39.301   0.625  1.00  0.00    -0.353 N
ATOM     35  H3  UNL     1     -18.481  39.827   1.227  1.00  0.00     0.163 HD
ENDBRANCH  17  24
ENDBRANCH  16  17
ENDBRANCH  13  16
BRANCH   1  36
HETATM   36  C6  UNL     1     -13.326  36.159 -12.383  1.00  0.00    -0.002 A
HETATM   37  C1  UNL     1     -13.211  37.187 -13.251  1.00  0.00     0.090 A
HETATM   38  C2  UNL     1     -13.197  36.940 -14.637  1.00  0.00     0.026 A
HETATM   39  C3  UNL     1     -13.298  35.675 -15.163  1.00  0.00     0.002 A
HETATM   40  C4  UNL     1     -13.417  34.623 -14.272  1.00  0.00     0.001 A
HETATM   41  C5  UNL     1     -13.430  34.864 -12.919  1.00  0.00     0.014 A
BRANCH  37  42
HETATM   42  S1  UNL     1     -13.146  38.829 -12.676  1.00  0.00     0.257 S
HETATM   43  O1  UNL     1     -11.765  39.150 -12.196  1.00  0.00    -0.201 OA
HETATM   44  O2  UNL     1     -14.207  39.135 -11.669  1.00  0.00    -0.201 OA
BRANCH  42  45
HETATM   45  N1  UNL     1     -13.404  39.929 -14.018  1.00  0.00    -0.324 N
ATOM     46  H12 UNL     1     -12.995  39.869 -14.951  1.00  0.00     0.169 HD
ATOM     47  H11 UNL     1     -14.049  40.628 -13.650  1.00  0.00     0.169 HD
ENDBRANCH  42  45
ENDBRANCH  37  42
ENDBRANCH   1  36
TORSDOF 7
ENDMDL