MODEL 1
REMARK VINA RESULT: -7.972166275      0.000      0.000
REMARK  5 active torsions:
REMARK  status: ('A' for Active; 'I' for Inactive)
REMARK    1  A    between atoms: C4_4  and  C5_5
REMARK    2  A    between atoms: C5_5  and  C6_6
REMARK    3  A    between atoms: C6_6  and  C7_7
REMARK    4  A    between atoms: C7_7  and  C8_8
REMARK    5  A    between atoms: C8_8  and  C9_9
ROOT
HETATM    1  C6  UNL     1       7.949   4.148  23.128  1.00  0.00     0.005 C
ENDROOT
BRANCH   1   2
HETATM    2  C5  UNL     1       9.248   4.665  23.674  1.00  0.00     0.038 C
BRANCH   2   3
HETATM    3  C4  UNL     1      10.429   3.930  23.202  1.00  0.00    -0.058 A
HETATM    4  C3  UNL     1      10.443   2.556  23.190  1.00  0.00     0.007 A
HETATM    5  C2  UNL     1      11.509   1.798  22.764  1.00  0.00     0.001 A
HETATM    6  C1  UNL     1      12.642   2.468  22.317  1.00  0.00     0.000 A
HETATM    7  C13 UNL     1      12.662   3.846  22.315  1.00  0.00     0.001 A
HETATM    8  C12 UNL     1      11.576   4.571  22.750  1.00  0.00     0.007 A
ENDBRANCH   2   3
ENDBRANCH   1   2
BRANCH   1   9
HETATM    9  C7  UNL     1       6.832   4.161  24.130  1.00  0.00     0.006 C
BRANCH   9  10
HETATM   10  C8  UNL     1       5.878   5.277  23.701  1.00  0.00     0.053 C
BRANCH  10  11
HETATM   11  C9  UNL     1       6.131   6.515  24.531  1.00  0.00    -0.010 A
HETATM   12  N1  UNL     1       5.587   6.913  25.573  1.00  0.00    -0.376 N
HETATM   13  C10 UNL     1       6.349   8.056  25.685  1.00  0.00     0.066 A
ATOM     14  H1  UNL     1       4.838   6.528  26.147  1.00  0.00     0.164 HD
HETATM   15  C11 UNL     1       7.038   7.644  24.450  1.00  0.00     0.097 A
ENDBRANCH  10  11
ENDBRANCH   9  10
ENDBRANCH   1   9
TORSDOF 5
ENDMDL