MODEL 3
REMARK VINA RESULT: -8.278743454      0.978      1.895
REMARK  5 active torsions:
REMARK  status: ('A' for Active; 'I' for Inactive)
REMARK    1  A    between atoms: C4_4  and  C5_5
REMARK    2  A    between atoms: C5_5  and  C6_6
REMARK    3  A    between atoms: C6_6  and  C7_7
REMARK    4  A    between atoms: C7_7  and  C8_8
REMARK    5  A    between atoms: C8_8  and  C9_9
ROOT
HETATM    1  C6  UNL     1       8.664   4.209  24.893  1.00  0.00     0.005 C
ENDROOT
BRANCH   1   2
HETATM    2  C5  UNL     1       9.102   4.538  23.492  1.00  0.00     0.038 C
BRANCH   2   3
HETATM    3  C4  UNL     1      10.346   3.868  23.094  1.00  0.00    -0.058 A
HETATM    4  C3  UNL     1      11.406   4.649  22.682  1.00  0.00     0.007 A
HETATM    5  C2  UNL     1      12.622   4.124  22.285  1.00  0.00     0.001 A
HETATM    6  C1  UNL     1      12.803   2.757  22.293  1.00  0.00     0.000 A
HETATM    7  C14 UNL     1      11.744   1.973  22.704  1.00  0.00     0.001 A
HETATM    8  C13 UNL     1      10.533   2.504  23.099  1.00  0.00     0.007 A
ENDBRANCH   2   3
ENDBRANCH   1   2
BRANCH   1   9
HETATM    9  C7  UNL     1       8.373   5.517  25.597  1.00  0.00     0.005 C
BRANCH   9  10
HETATM   10  C8  UNL     1       7.873   6.538  24.609  1.00  0.00     0.040 C
BRANCH  10  11
HETATM   11  C9  UNL     1       6.769   7.322  25.208  1.00  0.00    -0.034 A
HETATM   12  C10 UNL     1       5.509   7.493  24.676  1.00  0.00     0.033 A
HETATM   13  C11 UNL     1       4.842   8.292  25.582  1.00  0.00     0.142 A
HETATM   14  O1  UNL     1       5.653   8.560  26.562  1.00  0.00    -0.334 OA
HETATM   15  C12 UNL     1       6.829   8.006  26.395  1.00  0.00     0.148 A
ENDBRANCH  10  11
ENDBRANCH   9  10
ENDBRANCH   1   9
TORSDOF 5
ENDMDL