MODEL 5
REMARK VINA RESULT: -8.379826001      0.831      1.105
REMARK  5 active torsions:
REMARK  status: ('A' for Active; 'I' for Inactive)
REMARK    1  A    between atoms: C4_4  and  C5_5
REMARK    2  A    between atoms: C5_5  and  C6_6
REMARK    3  A    between atoms: C6_6  and  C7_7
REMARK    4  A    between atoms: C7_7  and  C8_8
REMARK    5  A    between atoms: C8_8  and  C9_9
ROOT
HETATM    1  C6  UNL     1       7.962   4.202  23.255  1.00  0.00     0.005 C
ENDROOT
BRANCH   1   2
HETATM    2  C5  UNL     1       9.310   4.724  23.564  1.00  0.00     0.038 C
BRANCH   2   3
HETATM    3  C4  UNL     1      10.442   3.910  23.142  1.00  0.00    -0.058 A
HETATM    4  C3  UNL     1      11.576   4.567  22.705  1.00  0.00     0.007 A
HETATM    5  C2  UNL     1      12.704   3.891  22.284  1.00  0.00     0.001 A
HETATM    6  C1  UNL     1      12.740   2.510  22.286  1.00  0.00     0.000 A
HETATM    7  C14 UNL     1      11.603   1.862  22.724  1.00  0.00     0.001 A
HETATM    8  C13 UNL     1      10.475   2.534  23.146  1.00  0.00     0.007 A
ENDBRANCH   2   3
ENDBRANCH   1   2
BRANCH   1   9
HETATM    9  C7  UNL     1       6.947   5.008  24.050  1.00  0.00     0.007 C
BRANCH   9  10
HETATM   10  C8  UNL     1       7.626   6.066  24.890  1.00  0.00     0.065 C
BRANCH  10  11
HETATM   11  C9  UNL     1       6.539   6.937  25.439  1.00  0.00     0.052 A
HETATM   12  C10 UNL     1       5.589   7.564  24.648  1.00  0.00     0.034 A
HETATM   13  C11 UNL     1       4.776   8.264  25.507  1.00  0.00     0.027 A
HETATM   14  C12 UNL     1       5.245   8.048  26.772  1.00  0.00     0.142 A
HETATM   15  O1  UNL     1       6.288   7.257  26.678  1.00  0.00    -0.327 OA
ENDBRANCH  10  11
ENDBRANCH   9  10
ENDBRANCH   1   9
TORSDOF 5
ENDMDL