MODEL 3
REMARK VINA RESULT: -7.235863942      0.995      1.831
REMARK  5 active torsions:
REMARK  status: ('A' for Active; 'I' for Inactive)
REMARK    1  A    between atoms: C3_3  and  C4_4
REMARK    2  A    between atoms: C4_4  and  C5_5
REMARK    3  A    between atoms: C5_5  and  S1_6
REMARK    4  A    between atoms: S1_6  and  C6_7
REMARK    5  A    between atoms: C6_7  and  C7_8
ROOT
HETATM    1  C1  UNL     1       5.614   8.706  27.391  1.00  0.00     0.012 C
HETATM    2  C2  UNL     1       6.616   8.341  26.821  1.00  0.00    -0.117 C
HETATM    3  C3  UNL     1       7.828   7.905  26.131  1.00  0.00     0.093 C
ENDROOT
BRANCH   3   4
HETATM    4  C4  UNL     1       7.474   7.540  24.687  1.00  0.00     0.022 C
BRANCH   4   5
HETATM    5  C5  UNL     1       7.117   6.068  24.682  1.00  0.00     0.075 C
BRANCH   5   6
HETATM    6  S1  UNL     1       8.600   5.030  24.795  1.00  0.00    -0.164 SA
BRANCH   6   7
HETATM    7  C6  UNL     1       8.745   4.124  23.237  1.00  0.00     0.112 C
BRANCH   7   8
HETATM    8  C7  UNL     1      10.149   3.772  22.925  1.00  0.00    -0.049 A
HETATM    9  C8  UNL     1      10.537   2.449  22.978  1.00  0.00     0.008 A
HETATM   10  C9  UNL     1      11.827   2.045  22.699  1.00  0.00     0.001 A
HETATM   11  C10 UNL     1      12.788   2.980  22.352  1.00  0.00     0.000 A
HETATM   12  C11 UNL     1      12.388   4.299  22.302  1.00  0.00     0.001 A
HETATM   13  C12 UNL     1      11.100   4.703  22.580  1.00  0.00     0.008 A
ENDBRANCH   7   8
ENDBRANCH   6   7
ENDBRANCH   5   6
ENDBRANCH   4   5
ENDBRANCH   3   4
TORSDOF 5
ENDMDL