MODEL 3
REMARK VINA RESULT: -7.263813245      1.571      6.477
REMARK  5 active torsions:
REMARK  status: ('A' for Active; 'I' for Inactive)
REMARK    1  A    between atoms: N1_4  and  C4_5
REMARK    2  A    between atoms: C4_5  and  C5_6
REMARK    3  A    between atoms: C5_6  and  C6_7
REMARK    4  A    between atoms: C6_7  and  C7_8
REMARK    5  A    between atoms: C7_8  and  C8_9
ROOT
HETATM    1  C5  UNL     1       8.500   4.079  23.062  1.00  0.00     0.020 C
ENDROOT
BRANCH   1   2
HETATM    2  C4  UNL     1       9.851   4.725  23.162  1.00  0.00     0.128 C
BRANCH   2   3
HETATM    3  N1  UNL     1      10.910   3.741  22.887  1.00  0.00    -0.366 N
HETATM    4  C3  UNL     1      12.177   4.008  22.504  1.00  0.00     0.090 A
HETATM    5  C2  UNL     1      12.895   2.854  22.334  1.00  0.00     0.019 A
HETATM    6  C1  UNL     1      12.028   1.822  22.628  1.00  0.00     0.019 A
HETATM    7  C13 UNL     1      10.824   2.411  22.960  1.00  0.00     0.090 A
ENDBRANCH   2   3
ENDBRANCH   1   2
BRANCH   1   8
HETATM    8  C6  UNL     1       7.572   4.512  24.161  1.00  0.00     0.002 C
BRANCH   8   9
HETATM    9  C7  UNL     1       8.223   5.588  24.998  1.00  0.00     0.005 C
BRANCH   9  10
HETATM   10  C8  UNL     1       7.375   6.832  24.859  1.00  0.00    -0.014 C
HETATM   11  C9  UNL     1       7.294   7.564  26.167  1.00  0.00     0.004 C
HETATM   12  C10 UNL     1       5.844   7.983  26.357  1.00  0.00     0.000 C
HETATM   13  C11 UNL     1       5.285   7.848  24.956  1.00  0.00     0.000 C
HETATM   14  C12 UNL     1       5.927   6.518  24.532  1.00  0.00     0.004 C
ENDBRANCH   9  10
ENDBRANCH   8   9
ENDBRANCH   1   8
TORSDOF 5
ENDMDL