MODEL 1
REMARK VINA RESULT: -7.340394923      0.000      0.000
REMARK  5 active torsions:
REMARK  status: ('A' for Active; 'I' for Inactive)
REMARK    1  A    between atoms: N1_3  and  C3_4
REMARK    2  A    between atoms: C3_4  and  C4_5
REMARK    3  A    between atoms: C4_5  and  C5_6
REMARK    4  A    between atoms: C5_6  and  C6_7
REMARK    5  A    between atoms: C6_7  and  C7_8
ROOT
HETATM    1  C4  UNL     1       7.557   4.231  24.171  1.00  0.00     0.020 C
ENDROOT
BRANCH   1   2
HETATM    2  C3  UNL     1       6.487   5.248  23.918  1.00  0.00     0.129 C
BRANCH   2   3
HETATM    3  N1  UNL     1       6.643   6.436  24.697  1.00  0.00    -0.352 N
HETATM    4  C2  UNL     1       7.616   6.720  25.580  1.00  0.00     0.108 A
HETATM    5  C1  UNL     1       7.393   7.981  26.118  1.00  0.00     0.106 A
HETATM    6  N2  UNL     1       6.266   8.443  25.538  1.00  0.00    -0.361 N
HETATM    7  C12 UNL     1       5.821   7.497  24.678  1.00  0.00     0.182 A
ATOM      8  H2  UNL     1       5.826   9.345  25.716  1.00  0.00     0.166 HD
ENDBRANCH   2   3
ENDBRANCH   1   2
BRANCH   1   9
HETATM    9  C5  UNL     1       8.445   4.016  22.961  1.00  0.00     0.002 C
BRANCH   9  10
HETATM   10  C6  UNL     1       9.735   4.716  23.226  1.00  0.00     0.005 C
BRANCH  10  11
HETATM   11  C7  UNL     1      10.923   3.831  23.352  1.00  0.00    -0.014 C
HETATM   12  C8  UNL     1      12.020   4.277  22.409  1.00  0.00     0.004 C
HETATM   13  C9  UNL     1      12.928   3.062  22.410  1.00  0.00     0.000 C
HETATM   14  C10 UNL     1      11.992   1.901  22.442  1.00  0.00     0.000 C
HETATM   15  C11 UNL     1      10.698   2.392  23.095  1.00  0.00     0.004 C
ENDBRANCH  10  11
ENDBRANCH   9  10
ENDBRANCH   1   9
TORSDOF 5
ENDMDL