MODEL 3
REMARK VINA RESULT: -8.104333113      1.008      1.532
REMARK  5 active torsions:
REMARK  status: ('A' for Active; 'I' for Inactive)
REMARK    1  A    between atoms: C4_4  and  C5_5
REMARK    2  A    between atoms: C5_5  and  C6_6
REMARK    3  A    between atoms: C6_6  and  C7_7
REMARK    4  A    between atoms: C7_7  and  C8_8
REMARK    5  A    between atoms: C8_8  and  N1_9
ROOT
HETATM    1  C6  UNL     1       8.148   4.160  23.197  1.00  0.00     0.006 C
ENDROOT
BRANCH   1   2
HETATM    2  C5  UNL     1       9.443   4.807  23.586  1.00  0.00     0.038 C
BRANCH   2   3
HETATM    3  C4  UNL     1      10.560   3.934  23.150  1.00  0.00    -0.058 A
HETATM    4  C3  UNL     1      10.453   2.560  23.148  1.00  0.00     0.007 A
HETATM    5  C2  UNL     1      11.497   1.757  22.741  1.00  0.00     0.001 A
HETATM    6  C1  UNL     1      12.660   2.361  22.333  1.00  0.00     0.000 A
HETATM    7  C14 UNL     1      12.791   3.744  22.326  1.00  0.00     0.001 A
HETATM    8  C13 UNL     1      11.731   4.513  22.738  1.00  0.00     0.007 A
ENDBRANCH   2   3
ENDBRANCH   1   2
BRANCH   1   9
HETATM    9  C7  UNL     1       7.096   4.411  24.257  1.00  0.00     0.021 C
BRANCH   9  10
HETATM   10  C8  UNL     1       6.098   5.438  23.840  1.00  0.00     0.128 C
BRANCH  10  11
HETATM   11  N1  UNL     1       6.201   6.554  24.776  1.00  0.00    -0.366 N
HETATM   12  C9  UNL     1       5.284   7.532  24.967  1.00  0.00     0.090 A
HETATM   13  C10 UNL     1       5.715   8.410  25.922  1.00  0.00     0.019 A
HETATM   14  C11 UNL     1       6.950   7.970  26.349  1.00  0.00     0.019 A
HETATM   15  C12 UNL     1       7.217   6.818  25.615  1.00  0.00     0.090 A
ENDBRANCH  10  11
ENDBRANCH   9  10
ENDBRANCH   1   9
TORSDOF 5
ENDMDL