MODEL 1
REMARK VINA RESULT: -7.647045297      0.000      0.000
REMARK  6 active torsions:
REMARK  status: ('A' for Active; 'I' for Inactive)
REMARK    1  A    between atoms: C3_3  and  C4_4
REMARK    2  A    between atoms: C4_4  and  C5_5
REMARK    3  A    between atoms: C5_5  and  C6_6
REMARK    4  A    between atoms: C6_6  and  C7_7
REMARK    5  A    between atoms: C7_7  and  O1_8
REMARK    6  A    between atoms: O1_8  and  C8_9
ROOT
HETATM    1  C1  UNL     1      11.185   1.228  22.836  1.00  0.00     0.012 C
HETATM    2  C2  UNL     1      12.022   2.064  22.540  1.00  0.00    -0.117 C
HETATM    3  C3  UNL     1      13.013   3.082  22.198  1.00  0.00     0.093 C
ENDROOT
BRANCH   3   4
HETATM    4  C4  UNL     1      12.501   4.422  22.671  1.00  0.00     0.012 C
BRANCH   4   5
HETATM    5  C5  UNL     1      11.158   4.790  22.094  1.00  0.00     0.003 C
BRANCH   5   6
HETATM    6  C6  UNL     1      10.175   4.977  23.216  1.00  0.00     0.027 C
BRANCH   6   7
HETATM    7  C7  UNL     1       8.947   4.169  22.951  1.00  0.00     0.175 C
BRANCH   7   8
HETATM    8  O1  UNL     1       8.177   4.138  24.163  1.00  0.00    -0.356 OA
BRANCH   8   9
HETATM    9  C8  UNL     1       7.464   5.246  24.598  1.00  0.00     0.042 C
HETATM   10  C9  UNL     1       7.982   5.986  25.561  1.00  0.00     0.005 C
HETATM   11  C10 UNL     1       7.246   7.183  26.054  1.00  0.00     0.029 C
HETATM   12  C11 UNL     1       6.635   7.839  24.814  1.00  0.00     0.004 C
HETATM   13  C12 UNL     1       5.686   6.919  24.112  1.00  0.00     0.007 C
HETATM   14  C13 UNL     1       6.170   5.526  23.955  1.00  0.00     0.064 C
ENDBRANCH   8   9
ENDBRANCH   7   8
ENDBRANCH   6   7
ENDBRANCH   5   6
ENDBRANCH   4   5
ENDBRANCH   3   4
TORSDOF 6
ENDMDL