MODEL 5
REMARK VINA RESULT: -6.441249335      0.792      1.112
REMARK  11 active torsions:
REMARK  status: ('A' for Active; 'I' for Inactive)
REMARK    1  A    between atoms: N1_2  and  C3_4
REMARK    2  A    between atoms: C3_4  and  C4_5
REMARK    3  A    between atoms: C6_8  and  N2_9
REMARK       I    between atoms: N2_9  and  C7_11
REMARK       I    between atoms: C7_11  and  N4_15
REMARK    4  A    between atoms: N4_15  and  N5_17
REMARK    5  A    between atoms: N6_20  and  N7_21
REMARK       I    between atoms: N7_21  and  C8_23
REMARK    6  A    between atoms: C8_23  and  C9_25
REMARK    7  A    between atoms: C9_25  and  C10_26
REMARK    8  A    between atoms: C10_26  and  C11_28
REMARK    9  A    between atoms: C11_28  and  N8_29
REMARK   10  A    between atoms: C11_28  and  C12_33
REMARK   11  A    between atoms: C12_33  and  O3_36
ROOT
HETATM    1  C4  UNL     1      -8.971  17.173 -13.163  1.00  0.00     0.071 A
HETATM    2  C5  UNL     1      -8.728  17.850 -12.009  1.00  0.00     0.082 A
HETATM    3  S1  UNL     1      -7.912  19.235 -12.520  1.00  0.00    -0.061 SA
HETATM    4  C6  UNL     1      -7.913  18.895 -14.201  1.00  0.00     0.185 A
HETATM    5  N6  UNL     1      -8.540  17.732 -14.302  1.00  0.00    -0.233 N
ENDROOT
BRANCH   5   6
HETATM    6  N7  UNL     1      -8.813  17.080 -15.539  1.00  0.00    -0.261 N
HETATM    7  C8  UNL     1      -9.597  17.453 -16.591  1.00  0.00     0.243 C
HETATM    8  O1  UNL     1     -10.265  18.457 -16.734  1.00  0.00    -0.271 OA
ATOM      9  H7  UNL     1      -8.344  16.183 -15.657  1.00  0.00     0.190 HD
BRANCH   7  10
HETATM   10  C9  UNL     1      -9.653  16.483 -17.762  1.00  0.00     0.185 C
BRANCH  10  11
HETATM   11  C10 UNL     1      -8.931  15.234 -17.482  1.00  0.00     0.169 C
HETATM   12  O2  UNL     1      -9.219  14.498 -16.520  1.00  0.00    -0.295 OA
BRANCH  11  13
HETATM   13  C11 UNL     1      -7.811  14.753 -18.326  1.00  0.00     0.286 C
BRANCH  13  14
HETATM   14  N8  UNL     1      -8.184  13.377 -18.751  1.00  0.00    -0.065 N
ATOM     15  H83 UNL     1      -9.008  13.011 -18.273  1.00  0.00     0.275 HD
ATOM     16  H82 UNL     1      -8.562  13.330 -19.697  1.00  0.00     0.275 HD
ATOM     17  H81 UNL     1      -7.348  12.808 -18.617  1.00  0.00     0.275 HD
ENDBRANCH  13  14
BRANCH  13  18
HETATM   18  C12 UNL     1      -6.563  14.584 -17.476  1.00  0.00     0.086 C
HETATM   19  C13 UNL     1      -6.425  13.253 -16.826  1.00  0.00     0.048 C
HETATM   20  C14 UNL     1      -5.330  14.868 -18.298  1.00  0.00     0.048 C
BRANCH  18  21
HETATM   21  O3  UNL     1      -6.653  15.540 -16.434  1.00  0.00    -0.388 OA
ATOM     22  H3  UNL     1      -6.108  16.273 -16.694  1.00  0.00     0.210 HD
ENDBRANCH  18  21
ENDBRANCH  13  18
ENDBRANCH  11  13
ENDBRANCH  10  11
ENDBRANCH   7  10
ENDBRANCH   5   6
BRANCH   1  23
HETATM   23  C3  UNL     1      -9.685  15.819 -13.074  1.00  0.00     0.330 C
BRANCH  23  24
HETATM   24  N1  UNL     1     -11.123  16.036 -13.024  1.00  0.00     0.085 N
HETATM   25  C1  UNL     1     -11.760  15.461 -14.192  1.00  0.00     0.309 C
HETATM   26  C2  UNL     1     -11.691  15.488 -11.799  1.00  0.00     0.309 C
ENDBRANCH  23  24
ENDBRANCH   1  23
BRANCH   4  27
HETATM   27  N2  UNL     1      -7.381  19.698 -15.076  1.00  0.00    -0.167 N
HETATM   28  C7  UNL     1      -7.934  20.970 -15.303  1.00  0.00     0.692 C
HETATM   29  N3  UNL     1      -9.183  21.089 -15.568  1.00  0.00    -0.233 N
HETATM   30  N4  UNL     1      -7.116  22.117 -15.238  1.00  0.00    -0.139 N
ATOM     31  H32 UNL     1      -9.774  20.260 -15.616  1.00  0.00     0.174 HD
ATOM     32  H31 UNL     1      -9.584  22.013 -15.733  1.00  0.00     0.174 HD
ATOM     33  H4  UNL     1      -6.105  21.994 -15.270  1.00  0.00     0.205 HD
ATOM     34  H2  UNL     1      -6.559  19.402 -15.602  1.00  0.00     0.186 HD
BRANCH  30  35
HETATM   35  N5  UNL     1      -7.627  23.413 -15.133  1.00  0.00    -0.331 N
ATOM     36  H52 UNL     1      -8.622  23.541 -15.314  1.00  0.00     0.177 HD
ATOM     37  H51 UNL     1      -7.053  24.219 -14.886  1.00  0.00     0.177 HD
ENDBRANCH  30  35
ENDBRANCH   4  27
TORSDOF 11
ENDMDL