MODEL 2
REMARK VINA RESULT: -7.448644877      2.788      6.688
REMARK  7 active torsions:
REMARK  status: ('A' for Active; 'I' for Inactive)
REMARK       I    between atoms: C1_4  and  N2_5
REMARK       I    between atoms: C1_4  and  N4_10
REMARK    1  A    between atoms: N2_5  and  N3_7
REMARK    2  A    between atoms: N4_10  and  C2_11
REMARK    3  A    between atoms: N4_10  and  C4_15
REMARK    4  A    between atoms: C2_11  and  C3_12
REMARK    5  A    between atoms: C5_18  and  N6_19
REMARK    6  A    between atoms: C10_24  and  N7_25
REMARK    7  A    between atoms: C11_28  and  N8_29
ROOT
HETATM    1  C4  UNL     1      -7.949  15.913 -16.481  1.00  0.00     0.702 A
HETATM    2  N5  UNL     1      -7.561  17.050 -15.889  1.00  0.00    -0.173 N
ATOM      3  H5  UNL     1      -6.583  17.332 -15.951  1.00  0.00     0.186 HD
HETATM    4  C5  UNL     1      -8.440  17.843 -15.201  1.00  0.00     0.156 A
HETATM    5  C10 UNL     1      -9.741  17.414 -15.152  1.00  0.00     0.191 A
HETATM    6  C11 UNL     1     -10.116  16.217 -15.782  1.00  0.00     0.152 A
HETATM    7  N9  UNL     1      -9.219  15.479 -16.440  1.00  0.00    -0.174 N
ATOM      8  H9  UNL     1      -9.491  14.609 -16.900  1.00  0.00     0.186 HD
ENDROOT
BRANCH   1   9
HETATM    9  N4  UNL     1      -6.996  15.124 -17.171  1.00  0.00    -0.003 N
HETATM   10  C1  UNL     1      -7.450  14.186 -18.114  1.00  0.00     0.712 C
HETATM   11  N1  UNL     1      -8.085  14.586 -19.146  1.00  0.00    -0.232 N
HETATM   12  N2  UNL     1      -7.180  12.816 -17.885  1.00  0.00    -0.071 N
ATOM     13  H12 UNL     1      -8.414  13.905 -19.830  1.00  0.00     0.174 HD
ATOM     14  H11 UNL     1      -8.279  15.573 -19.311  1.00  0.00     0.174 HD
ATOM     15  H2  UNL     1      -6.215  12.538 -17.712  1.00  0.00     0.212 HD
BRANCH  12  16
HETATM   16  N3  UNL     1      -8.160  11.827 -17.884  1.00  0.00    -0.024 N
HETATM   17  O1  UNL     1      -7.891  10.624 -18.125  1.00  0.00    -0.516 OA
HETATM   18  O2  UNL     1      -9.455  12.144 -17.617  1.00  0.00    -0.516 OA
ENDBRANCH  12  16
BRANCH   9  19
HETATM   19  C2  UNL     1      -5.604  15.335 -16.874  1.00  0.00     0.279 C
BRANCH  19  20
HETATM   20  C3  UNL     1      -5.169  14.518 -15.694  1.00  0.00     0.193 C
HETATM   21  O3  UNL     1      -4.515  13.483 -15.937  1.00  0.00    -0.647 OA
HETATM   22  O4  UNL     1      -5.490  14.913 -14.395  1.00  0.00    -0.647 OA
ENDBRANCH  19  20
ENDBRANCH   9  19
ENDBRANCH   1   9
BRANCH   4  23
HETATM   23  N6  UNL     1      -8.003  19.030 -14.573  1.00  0.00    -0.365 N
HETATM   24  C6  UNL     1      -7.796  19.215 -13.154  1.00  0.00     0.124 C
HETATM   25  C7  UNL     1      -8.413  20.577 -12.923  1.00  0.00     0.021 C
HETATM   26  C8  UNL     1      -7.861  21.331 -14.125  1.00  0.00     0.021 C
HETATM   27  C9  UNL     1      -7.663  20.309 -15.206  1.00  0.00     0.124 C
ENDBRANCH   4  23
BRANCH   6  28
HETATM   28  N8  UNL     1     -11.330  15.815 -15.735  1.00  0.00    -0.383 N
ATOM     29  H82 UNL     1     -11.758  15.649 -14.825  1.00  0.00     0.157 HD
ATOM     30  H81 UNL     1     -11.856  15.666 -16.596  1.00  0.00     0.157 HD
ENDBRANCH   6  28
BRANCH   5  31
HETATM   31  N7  UNL     1     -10.793  18.111 -14.515  1.00  0.00    -0.108 N
HETATM   32  O5  UNL     1     -11.407  19.002 -15.102  1.00  0.00    -0.531 OA
HETATM   33  O6  UNL     1     -11.109  17.805 -13.222  1.00  0.00    -0.531 OA
ENDBRANCH   5  31
TORSDOF 7
ENDMDL