MODEL 4
REMARK VINA RESULT: -6.271135988      3.810      6.707
REMARK  9 active torsions:
REMARK  status: ('A' for Active; 'I' for Inactive)
REMARK    1  A    between atoms: N1_1  and  S1_4
REMARK    2  A    between atoms: S1_4  and  O3_7
REMARK    3  A    between atoms: O3_7  and  C1_8
REMARK    4  A    between atoms: C1_8  and  C2_9
REMARK    5  A    between atoms: C2_9  and  C3_10
REMARK    6  A    between atoms: C3_10  and  O4_11
REMARK    7  A    between atoms: O4_11  and  C4_12
REMARK       I    between atoms: C4_12  and  N2_14
REMARK    8  A    between atoms: N2_14  and  S2_16
REMARK    9  A    between atoms: C5_23  and  C6_24
ROOT
HETATM    1  C2  UNL     1      -9.084  18.255 -14.260  1.00  0.00     0.229 C
HETATM    2  N3  UNL     1      -7.822  18.997 -14.402  1.00  0.00    -0.050 N
ATOM      3  H31 UNL     1      -7.332  18.783 -15.270  1.00  0.00     0.279 HD
ATOM      4  H32 UNL     1      -7.100  18.677 -13.756  1.00  0.00     0.279 HD
HETATM    5  C5  UNL     1      -8.117  20.386 -14.259  1.00  0.00     0.204 C
HETATM    6  C7  UNL     1      -9.616  20.562 -14.349  1.00  0.00     0.115 C
HETATM    7  C8  UNL     1     -10.082  19.254 -13.821  1.00  0.00     0.169 C
HETATM    8  O9  UNL     1     -11.081  19.083 -13.168  1.00  0.00    -0.295 OA
ENDROOT
BRANCH   1   9
HETATM    9  C1  UNL     1      -8.838  17.183 -13.248  1.00  0.00     0.241 C
BRANCH   9  10
HETATM   10  O3  UNL     1      -7.512  16.989 -12.937  1.00  0.00    -0.257 OA
BRANCH  10  11
HETATM   11  S1  UNL     1      -7.033  15.400 -13.049  1.00  0.00     0.355 S
HETATM   12  O1  UNL     1      -8.214  14.564 -13.451  1.00  0.00    -0.176 OA
HETATM   13  O2  UNL     1      -6.568  14.857 -11.708  1.00  0.00    -0.176 OA
BRANCH  11  14
HETATM   14  N1  UNL     1      -5.770  15.136 -14.173  1.00  0.00    -0.306 N
ATOM     15  H12 UNL     1      -5.871  14.641 -15.059  1.00  0.00     0.171 HD
ATOM     16  H11 UNL     1      -4.916  15.553 -13.806  1.00  0.00     0.171 HD
ENDBRANCH  11  14
ENDBRANCH  10  11
ENDBRANCH   9  10
ENDBRANCH   1   9
BRANCH   1  17
HETATM   17  C3  UNL     1      -9.388  17.734 -15.641  1.00  0.00     0.230 C
BRANCH  17  18
HETATM   18  O4  UNL     1      -8.206  17.576 -16.411  1.00  0.00    -0.300 OA
BRANCH  18  19
HETATM   19  C4  UNL     1      -7.871  16.301 -16.849  1.00  0.00     0.376 C
HETATM   20  O5  UNL     1      -6.899  16.186 -17.643  1.00  0.00    -0.237 OA
HETATM   21  N2  UNL     1      -8.613  15.154 -16.407  1.00  0.00    -0.211 N
ATOM     22  H2  UNL     1      -9.392  15.288 -15.763  1.00  0.00     0.186 HD
BRANCH  21  23
HETATM   23  S2  UNL     1      -8.229  13.571 -16.926  1.00  0.00     0.213 S
HETATM   24  O6  UNL     1      -6.810  13.191 -16.528  1.00  0.00    -0.578 OA
HETATM   25  O7  UNL     1      -9.124  12.536 -16.306  1.00  0.00    -0.578 OA
HETATM   26  O8  UNL     1      -8.270  13.526 -18.600  1.00  0.00    -0.578 OA
ENDBRANCH  21  23
ENDBRANCH  18  19
ENDBRANCH  17  18
ENDBRANCH   1  17
BRANCH   5  27
HETATM   27  C6  UNL     1      -7.452  21.101 -15.442  1.00  0.00     0.119 C
HETATM   28  S3  UNL     1      -7.676  22.897 -15.283  1.00  0.00    -0.096 SA
ENDBRANCH   5  27
TORSDOF 9
ENDMDL