MODEL 2
REMARK VINA RESULT: -6.160655475      1.945      2.598
REMARK  10 active torsions:
REMARK  status: ('A' for Active; 'I' for Inactive)
REMARK    1  A    between atoms: N1_1  and  S1_4
REMARK    2  A    between atoms: S1_4  and  N2_6
REMARK    3  A    between atoms: S1_4  and  O5_21
REMARK    4  A    between atoms: N2_6  and  N3_8
REMARK       I    between atoms: N3_8  and  C1_10
REMARK    5  A    between atoms: C1_10  and  C2_12
REMARK    6  A    between atoms: C3_13  and  O3_14
REMARK    7  A    between atoms: O5_21  and  C5_22
REMARK    8  A    between atoms: C5_22  and  C6_23
REMARK    9  A    between atoms: C6_23  and  O6_24
REMARK   10  A    between atoms: O6_24  and  S3_25
ROOT
HETATM    1  N2  UNL     1      -8.755  14.172 -16.620  1.00  0.00    -0.219 N
ATOM      2  H2  UNL     1      -8.757  14.538 -15.668  1.00  0.00     0.200 HD
ENDROOT
BRANCH   1   3
HETATM    3  S1  UNL     1      -8.707  15.154 -17.827  1.00  0.00     0.247 S
HETATM    4  O1  UNL     1      -8.039  14.466 -18.970  1.00  0.00    -0.197 OA
BRANCH   3   5
HETATM    5  N1  UNL     1     -10.333  15.497 -18.292  1.00  0.00    -0.322 N
ATOM      6  H12 UNL     1     -11.014  14.805 -18.607  1.00  0.00     0.169 HD
ATOM      7  H11 UNL     1     -10.483  16.501 -18.194  1.00  0.00     0.169 HD
ENDBRANCH   3   5
BRANCH   3   8
HETATM    8  O5  UNL     1      -7.853  16.542 -17.451  1.00  0.00    -0.273 OA
BRANCH   8   9
HETATM    9  C5  UNL     1      -7.593  16.652 -16.095  1.00  0.00     0.218 C
BRANCH   9  10
HETATM   10  C6  UNL     1      -8.708  17.444 -15.459  1.00  0.00     0.220 C
BRANCH  10  11
HETATM   11  O6  UNL     1      -9.008  18.594 -16.197  1.00  0.00    -0.255 OA
BRANCH  11  12
HETATM   12  S3  UNL     1     -10.610  18.648 -16.640  1.00  0.00     0.251 S
HETATM   13  O7  UNL     1     -11.281  19.908 -16.161  1.00  0.00    -0.572 OA
HETATM   14  O8  UNL     1     -11.344  17.485 -16.013  1.00  0.00    -0.572 OA
HETATM   15  O9  UNL     1     -10.752  18.527 -18.308  1.00  0.00    -0.572 OA
ENDBRANCH  11  12
ENDBRANCH  10  11
ENDBRANCH   9  10
ENDBRANCH   8   9
ENDBRANCH   3   8
ENDBRANCH   1   3
BRANCH   1  16
HETATM   16  N3  UNL     1      -8.798  12.774 -16.837  1.00  0.00    -0.256 N
HETATM   17  C1  UNL     1     -10.023  12.125 -16.937  1.00  0.00     0.279 C
HETATM   18  O2  UNL     1     -11.079  12.837 -16.826  1.00  0.00    -0.266 OA
ATOM     19  H3  UNL     1      -7.931  12.244 -16.920  1.00  0.00     0.191 HD
BRANCH  17  20
HETATM   20  C2  UNL     1     -10.227  10.677 -17.160  1.00  0.00     0.143 A
HETATM   21  C3  UNL     1     -11.350  10.052 -16.699  1.00  0.00     0.145 A
HETATM   22  S2  UNL     1     -11.096   8.422 -17.212  1.00  0.00     0.015 SA
HETATM   23  N4  UNL     1      -9.622   8.616 -17.963  1.00  0.00    -0.290 N
HETATM   24  C4  UNL     1      -9.334   9.902 -17.822  1.00  0.00     0.270 A
ATOM     25  H4  UNL     1      -9.063   7.901 -18.429  1.00  0.00     0.177 HD
HETATM   26  O4  UNL     1      -8.219  10.339 -18.322  1.00  0.00    -0.266 OA
BRANCH  21  27
HETATM   27  O3  UNL     1     -12.463  10.544 -15.985  1.00  0.00    -0.352 OA
ATOM     28  H3  UNL     1     -13.232  10.105 -15.642  1.00  0.00     0.218 HD
ENDBRANCH  21  27
ENDBRANCH  17  20
ENDBRANCH   1  16
TORSDOF 10
ENDMDL