MODEL 3
REMARK VINA RESULT: -7.910636445      1.592      1.792
REMARK  11 active torsions:
REMARK  status: ('A' for Active; 'I' for Inactive)
REMARK    1  A    between atoms: S1_2  and  C2_5
REMARK    2  A    between atoms: C2_5  and  N1_6
REMARK    3  A    between atoms: C2_5  and  C3_10
REMARK    4  A    between atoms: C3_10  and  N2_11
REMARK    5  A    between atoms: C3_10  and  C4_15
REMARK    6  A    between atoms: C4_15  and  O3_16
REMARK    7  A    between atoms: C4_15  and  C5_18
REMARK    8  A    between atoms: C5_18  and  C6_19
REMARK    9  A    between atoms: N3_20  and  O4_22
REMARK   10  A    between atoms: N4_24  and  N5_26
REMARK       I    between atoms: N5_26  and  C7_28
REMARK   11  A    between atoms: C7_28  and  C8_30
ROOT
HETATM    1  C8  UNL     1      -7.129  15.153 -17.077  1.00  0.00     0.054 A
HETATM    2  C9  UNL     1      -6.322  14.134 -16.552  1.00  0.00     0.018 A
HETATM    3  C10 UNL     1      -6.584  12.802 -16.770  1.00  0.00     0.001 A
HETATM    4  C11 UNL     1      -7.670  12.429 -17.524  1.00  0.00     0.002 A
HETATM    5  C12 UNL     1      -8.465  13.425 -18.040  1.00  0.00     0.024 A
HETATM    6  C13 UNL     1      -8.201  14.785 -17.822  1.00  0.00     0.060 A
HETATM    7  C14 UNL     1      -9.088  15.723 -18.486  1.00  0.00     0.100 C
HETATM    8  N6  UNL     1      -9.781  16.460 -19.040  1.00  0.00    -0.191 NA
ENDROOT
BRANCH   1   9
HETATM    9  C7  UNL     1      -6.815  16.491 -16.741  1.00  0.00     0.271 C
HETATM   10  N5  UNL     1      -7.470  17.267 -15.780  1.00  0.00    -0.266 N
ATOM     11  H5  UNL     1      -8.241  16.861 -15.251  1.00  0.00     0.190 HD
HETATM   12  O5  UNL     1      -5.841  17.039 -17.370  1.00  0.00    -0.266 OA
BRANCH  10  13
HETATM   13  N4  UNL     1      -7.091  18.581 -15.531  1.00  0.00    -0.298 N
HETATM   14  C5  UNL     1      -7.927  19.498 -15.316  1.00  0.00     0.074 C
ATOM     15  H4  UNL     1      -6.097  18.811 -15.521  1.00  0.00     0.187 HD
BRANCH  14  16
HETATM   16  C4  UNL     1      -9.372  19.268 -15.309  1.00  0.00     0.204 C
BRANCH  16  17
HETATM   17  C3  UNL     1     -10.045  19.609 -13.996  1.00  0.00     0.263 C
BRANCH  17  18
HETATM   18  C2  UNL     1     -10.259  18.401 -13.137  1.00  0.00     0.337 C
BRANCH  18  19
HETATM   19  S1  UNL     1      -8.866  18.210 -12.060  1.00  0.00     0.172 S
HETATM   20  C1  UNL     1      -9.325  17.477 -10.513  1.00  0.00     0.163 C
HETATM   21  O1  UNL     1      -7.850  17.361 -12.766  1.00  0.00    -0.226 OA
HETATM   22  O2  UNL     1      -8.323  19.579 -11.774  1.00  0.00    -0.226 OA
ENDBRANCH  18  19
BRANCH  18  23
HETATM   23  N1  UNL     1     -10.464  17.191 -13.901  1.00  0.00    -0.059 N
ATOM     24  H13 UNL     1      -9.781  16.471 -13.666  1.00  0.00     0.275 HD
ATOM     25  H12 UNL     1     -11.307  16.695 -13.613  1.00  0.00     0.275 HD
ATOM     26  H11 UNL     1     -10.467  17.404 -14.898  1.00  0.00     0.275 HD
ENDBRANCH  18  23
ENDBRANCH  17  18
BRANCH  17  27
HETATM   27  N2  UNL     1     -11.334  20.232 -14.227  1.00  0.00    -0.069 N
ATOM     28  H23 UNL     1     -11.926  20.232 -13.396  1.00  0.00     0.275 HD
ATOM     29  H22 UNL     1     -11.267  21.242 -14.349  1.00  0.00     0.275 HD
ATOM     30  H21 UNL     1     -11.773  19.767 -15.022  1.00  0.00     0.275 HD
ENDBRANCH  17  27
ENDBRANCH  16  17
BRANCH  16  31
HETATM   31  O3  UNL     1     -10.078  19.900 -16.321  1.00  0.00    -0.387 OA
ATOM     32  H3  UNL     1     -10.427  19.226 -16.894  1.00  0.00     0.210 HD
ENDBRANCH  16  31
ENDBRANCH  14  16
BRANCH  14  33
HETATM   33  C6  UNL     1      -7.390  20.832 -15.091  1.00  0.00     0.142 C
HETATM   34  N3  UNL     1      -7.694  21.872 -15.782  1.00  0.00    -0.278 N
ATOM     35  H3  UNL     1      -8.359  21.776 -16.550  1.00  0.00     0.193 HD
BRANCH  34  36
HETATM   36  O4  UNL     1      -7.157  23.101 -15.525  1.00  0.00    -0.290 OA
ATOM     37  H4  UNL     1      -7.668  23.900 -15.583  1.00  0.00     0.244 HD
ENDBRANCH  34  36
ENDBRANCH  14  33
ENDBRANCH  10  13
ENDBRANCH   1   9
TORSDOF 11
ENDMDL