MODEL 4
REMARK VINA RESULT: -7.032123995      1.210      1.420
REMARK  9 active torsions:
REMARK  status: ('A' for Active; 'I' for Inactive)
REMARK    1  A    between atoms: C3_7  and  O1_8
REMARK    2  A    between atoms: C5_10  and  O2_11
REMARK    3  A    between atoms: C8_14  and  C9_15
REMARK    4  A    between atoms: C9_15  and  N3_16
REMARK    5  A    between atoms: N3_16  and  N4_18
REMARK    6  A    between atoms: N4_18  and  C10_20
REMARK    7  A    between atoms: C10_20  and  N5_22
REMARK    8  A    between atoms: N5_22  and  C11_24
REMARK    9  A    between atoms: C11_24  and  N6_25
ROOT
HETATM    1  N3  UNL     1      -8.547  12.756 -18.154  1.00  0.00    -0.330 N
ATOM      2  H3  UNL     1      -8.192  11.847 -18.450  1.00  0.00     0.180 HD
ENDROOT
BRANCH   1   3
HETATM    3  C9  UNL     1      -9.552  12.886 -17.129  1.00  0.00     0.182 C
BRANCH   3   4
HETATM    4  C8  UNL     1     -10.208  11.562 -16.982  1.00  0.00     0.007 A
HETATM    5  C2  UNL     1     -11.437  11.464 -16.387  1.00  0.00     0.110 A
HETATM    6  N1  UNL     1     -12.064  12.389 -15.900  1.00  0.00    -0.380 N
HETATM    7  N2  UNL     1     -12.052  10.212 -16.313  1.00  0.00    -0.321 N
HETATM    8  C1  UNL     1     -12.079  13.746 -15.638  1.00  0.00     0.147 C
ATOM      9  H1  UNL     1     -12.935  12.004 -15.536  1.00  0.00     0.160 HD
HETATM   10  C3  UNL     1     -11.486   9.108 -16.799  1.00  0.00     0.177 A
ATOM     11  H2  UNL     1     -12.969  10.140 -15.870  1.00  0.00     0.169 HD
HETATM   12  C5  UNL     1     -10.247   9.206 -17.401  1.00  0.00     0.119 A
HETATM   13  C7  UNL     1      -9.613  10.408 -17.492  1.00  0.00     0.053 A
BRANCH  10  14
HETATM   14  O1  UNL     1     -12.096   7.856 -16.729  1.00  0.00    -0.339 OA
HETATM   15  C4  UNL     1     -13.336   7.754 -16.069  1.00  0.00     0.211 C
ENDBRANCH  10  14
BRANCH  12  16
HETATM   16  O2  UNL     1      -9.660   8.065 -17.909  1.00  0.00    -0.352 OA
HETATM   17  C6  UNL     1      -8.667   8.060 -18.893  1.00  0.00     0.210 C
ENDBRANCH  12  16
ENDBRANCH   3   4
ENDBRANCH   1   3
BRANCH   1  18
HETATM   18  N4  UNL     1      -8.098  13.924 -18.708  1.00  0.00    -0.280 N
ATOM     19  H4  UNL     1      -8.205  14.034 -19.717  1.00  0.00     0.189 HD
BRANCH  18  20
HETATM   20  C10 UNL     1      -7.503  14.983 -18.005  1.00  0.00     0.187 C
HETATM   21  S1  UNL     1      -5.853  15.004 -17.808  1.00  0.00    -0.040 SA
BRANCH  20  22
HETATM   22  N5  UNL     1      -8.213  16.065 -17.447  1.00  0.00    -0.348 N
ATOM     23  H5  UNL     1      -8.998  16.483 -17.948  1.00  0.00     0.163 HD
BRANCH  22  24
HETATM   24  C11 UNL     1      -7.807  16.581 -16.136  1.00  0.00     0.275 C
BRANCH  24  25
HETATM   25  N6  UNL     1      -8.509  17.829 -15.910  1.00  0.00    -0.206 N
HETATM   26  N7  UNL     1      -7.941  19.029 -15.676  1.00  0.00     0.002 NA
HETATM   27  N8  UNL     1      -8.916  19.919 -15.518  1.00  0.00    -0.220 N
HETATM   28  N9  UNL     1     -10.095  19.348 -15.639  1.00  0.00    -0.233 N
ATOM     29  H8  UNL     1      -8.770  20.911 -15.329  1.00  0.00     0.206 HD
HETATM   30  C12 UNL     1     -11.424  19.980 -15.522  1.00  0.00     0.184 C
HETATM   31  C13 UNL     1      -9.829  18.059 -15.880  1.00  0.00     0.358 A
HETATM   32  O3  UNL     1     -10.705  17.169 -16.058  1.00  0.00    -0.244 OA
ENDBRANCH  24  25
ENDBRANCH  22  24
ENDBRANCH  20  22
ENDBRANCH  18  20
ENDBRANCH   1  18
TORSDOF 9
ENDMDL