MODEL 4
REMARK VINA RESULT: -5.948374555      4.524      6.465
REMARK  10 active torsions:
REMARK  status: ('A' for Active; 'I' for Inactive)
REMARK    1  A    between atoms: N1_2  and  C3_4
REMARK    2  A    between atoms: C4_5  and  C5_6
REMARK    3  A    between atoms: C5_6  and  N2_7
REMARK    4  A    between atoms: C7_10  and  C8_11
REMARK    5  A    between atoms: C8_11  and  S1_19
REMARK    6  A    between atoms: N3_12  and  N4_14
REMARK       I    between atoms: N4_14  and  C9_16
REMARK    7  A    between atoms: S1_19  and  C10_20
REMARK    8  A    between atoms: C10_20  and  C11_21
REMARK       I    between atoms: C11_21  and  N6_23
REMARK    9  A    between atoms: N6_23  and  N7_25
REMARK   10  A    between atoms: C12_28  and  O4_29
ROOT
HETATM    1  C8  UNL     1      -9.034  14.299 -15.930  1.00  0.00     0.105 C
HETATM    2  N3  UNL     1      -9.399  15.284 -16.518  1.00  0.00    -0.289 N
ATOM      3  H3  UNL     1      -9.016  16.048 -15.961  1.00  0.00     0.188 HD
ENDROOT
BRANCH   1   4
HETATM    4  C7  UNL     1      -9.304  12.923 -16.290  1.00  0.00     0.120 A
HETATM    5  C6  UNL     1     -10.112  11.963 -15.671  1.00  0.00     0.280 A
HETATM    6  N2  UNL     1     -10.046  10.805 -16.331  1.00  0.00    -0.249 N
HETATM    7  O1  UNL     1     -10.798  12.164 -14.645  1.00  0.00    -0.265 OA
HETATM    8  N8  UNL     1      -9.237  10.965 -17.346  1.00  0.00    -0.270 N
HETATM    9  C12 UNL     1      -8.762  12.230 -17.367  1.00  0.00     0.175 A
HETATM   10  C13 UNL     1      -8.875   9.960 -18.318  1.00  0.00     0.180 C
BRANCH   6  11
HETATM   11  C5  UNL     1     -10.732   9.566 -15.980  1.00  0.00     0.181 C
BRANCH  11  12
HETATM   12  C4  UNL     1     -12.152   9.626 -16.386  1.00  0.00     0.012 C
HETATM   13  C3  UNL     1     -13.157   9.475 -15.521  1.00  0.00     0.082 C
BRANCH  13  14
HETATM   14  N1  UNL     1     -14.505   9.538 -15.928  1.00  0.00    -0.399 N
HETATM   15  C1  UNL     1     -15.165  10.822 -15.963  1.00  0.00     0.148 C
HETATM   16  C2  UNL     1     -15.227   8.350 -16.313  1.00  0.00     0.148 C
ENDBRANCH  13  14
ENDBRANCH  11  12
ENDBRANCH   6  11
BRANCH   9  17
HETATM   17  O4  UNL     1      -7.882  12.767 -18.290  1.00  0.00    -0.344 OA
ATOM     18  H4  UNL     1      -6.959  12.548 -18.351  1.00  0.00     0.219 HD
ENDBRANCH   9  17
ENDBRANCH   1   4
BRANCH   1  19
HETATM   19  S1  UNL     1      -8.004  14.548 -14.446  1.00  0.00    -0.101 SA
BRANCH  19  20
HETATM   20  C10 UNL     1      -6.377  15.199 -14.881  1.00  0.00     0.185 C
BRANCH  20  21
HETATM   21  C11 UNL     1      -5.984  14.547 -16.148  1.00  0.00     0.245 C
HETATM   22  O3  UNL     1      -5.642  13.334 -16.170  1.00  0.00    -0.271 OA
HETATM   23  N6  UNL     1      -6.000  15.313 -17.343  1.00  0.00    -0.276 N
ATOM     24  H6  UNL     1      -6.275  16.295 -17.337  1.00  0.00     0.189 HD
BRANCH  23  25
HETATM   25  N7  UNL     1      -5.623  14.668 -18.537  1.00  0.00    -0.343 N
ATOM     26  H72 UNL     1      -4.893  13.956 -18.528  1.00  0.00     0.176 HD
ATOM     27  H71 UNL     1      -6.104  14.941 -19.394  1.00  0.00     0.176 HD
ENDBRANCH  23  25
ENDBRANCH  20  21
ENDBRANCH  19  20
ENDBRANCH   1  19
BRANCH   2  28
HETATM   28  N4  UNL     1     -10.025  15.901 -17.494  1.00  0.00    -0.253 N
HETATM   29  C9  UNL     1      -9.624  16.020 -18.861  1.00  0.00     0.347 C
HETATM   30  N5  UNL     1     -10.342  16.709 -19.859  1.00  0.00    -0.038 NA
HETATM   31  O2  UNL     1      -8.520  15.443 -19.149  1.00  0.00    -0.249 OA
ATOM     32  H4  UNL     1     -10.907  16.350 -17.245  1.00  0.00     0.191 HD
ENDBRANCH   2  28
TORSDOF 10
ENDMDL