MODEL 1
REMARK VINA RESULT: -6.584717872      0.000      0.000
REMARK  9 active torsions:
REMARK  status: ('A' for Active; 'I' for Inactive)
REMARK       I    between atoms: N1_2  and  C2_4
REMARK    1  A    between atoms: C2_4  and  C3_6
REMARK    2  A    between atoms: C3_6  and  O2_7
REMARK    3  A    between atoms: N2_10  and  C5_11
REMARK    4  A    between atoms: N6_22  and  N7_23
REMARK    5  A    between atoms: N7_23  and  C11_24
REMARK    6  A    between atoms: C11_24  and  C12_25
REMARK    7  A    between atoms: C12_25  and  O3_26
REMARK    8  A    between atoms: O3_26  and  N8_27
REMARK    9  A    between atoms: N8_27  and  C13_29
ROOT
HETATM    1  C3  UNL     1      -8.351  16.974 -15.535  1.00  0.00     0.248 C
HETATM    2  C4  UNL     1      -8.455  15.500 -15.670  1.00  0.00     0.214 C
HETATM    3  N2  UNL     1      -9.183  15.033 -16.806  1.00  0.00    -0.206 N
HETATM    4  C9  UNL     1      -9.736  15.948 -17.732  1.00  0.00     0.187 C
HETATM    5  C10 UNL     1     -10.073  17.295 -17.217  1.00  0.00     0.103 C
HETATM    6  N6  UNL     1      -9.392  17.745 -16.069  1.00  0.00    -0.264 N
ENDROOT
BRANCH   3   7
HETATM    7  C5  UNL     1      -9.346  13.647 -16.997  1.00  0.00     0.696 A
HETATM    8  N3  UNL     1     -10.366  12.874 -16.567  1.00  0.00    -0.178 N
HETATM    9  C6  UNL     1     -10.208  11.608 -16.919  1.00  0.00     0.110 A
ATOM     10  H3  UNL     1     -11.163  13.224 -16.035  1.00  0.00     0.185 HD
HETATM   11  C7  UNL     1     -11.101  10.447 -16.642  1.00  0.00     0.091 C
HETATM   12  N4  UNL     1      -9.043  11.556 -17.604  1.00  0.00    -0.270 N
HETATM   13  C8  UNL     1      -8.497  10.327 -18.173  1.00  0.00     0.179 C
HETATM   14  N5  UNL     1      -8.530  12.773 -17.649  1.00  0.00    -0.129 N
ATOM     15  H5  UNL     1      -7.652  13.022 -18.105  1.00  0.00     0.206 HD
ENDBRANCH   3   7
BRANCH   1  16
HETATM   16  C2  UNL     1      -8.186  17.297 -14.096  1.00  0.00     0.276 C
HETATM   17  N1  UNL     1      -7.794  18.571 -13.614  1.00  0.00    -0.361 N
HETATM   18  C1  UNL     1      -7.648  18.837 -12.202  1.00  0.00     0.149 C
ATOM     19  H1  UNL     1      -7.611  19.320 -14.282  1.00  0.00     0.162 HD
HETATM   20  O1  UNL     1      -8.408  16.389 -13.261  1.00  0.00    -0.268 OA
ENDBRANCH   1  16
BRANCH   1  21
HETATM   21  O2  UNL     1      -7.147  17.367 -16.169  1.00  0.00    -0.361 OA
ATOM     22  H2  UNL     1      -6.653  16.569 -16.317  1.00  0.00     0.213 HD
ENDBRANCH   1  21
BRANCH   6  23
HETATM   23  N7  UNL     1     -10.255  18.316 -15.127  1.00  0.00    -0.134 NA
BRANCH  23  24
HETATM   24  C11 UNL     1     -11.281  19.125 -15.755  1.00  0.00     0.164 C
BRANCH  24  25
HETATM   25  C12 UNL     1     -11.377  20.442 -15.018  1.00  0.00     0.219 C
BRANCH  25  26
HETATM   26  O3  UNL     1     -10.146  20.802 -14.462  1.00  0.00    -0.277 OA
BRANCH  26  27
HETATM   27  N8  UNL     1      -9.463  21.642 -15.246  1.00  0.00    -0.243 N
ATOM     28  H8  UNL     1      -9.972  22.300 -15.838  1.00  0.00     0.196 HD
BRANCH  27  29
HETATM   29  C13 UNL     1      -8.045  21.636 -15.272  1.00  0.00     0.204 C
HETATM   30  N9  UNL     1      -7.310  20.511 -15.733  1.00  0.00    -0.068 NA
HETATM   31  S1  UNL     1      -7.203  22.938 -14.764  1.00  0.00    -0.043 SA
ENDBRANCH  27  29
ENDBRANCH  26  27
ENDBRANCH  25  26
ENDBRANCH  24  25
ENDBRANCH  23  24
ENDBRANCH   6  23
TORSDOF 9
ENDMDL