MODEL 2
REMARK VINA RESULT: -7.264890091      2.444      3.297
REMARK  8 active torsions:
REMARK  status: ('A' for Active; 'I' for Inactive)
REMARK    1  A    between atoms: O1_2  and  N1_3
REMARK    2  A    between atoms: C2_5  and  C3_6
REMARK    3  A    between atoms: C2_5  and  C11_24
REMARK       I    between atoms: C3_6  and  N2_8
REMARK    4  A    between atoms: N2_8  and  C4_10
REMARK    5  A    between atoms: C4_10  and  C5_11
REMARK    6  A    between atoms: C7_15  and  C8_16
REMARK    7  A    between atoms: C8_16  and  N4_17
REMARK       I    between atoms: N4_17  and  C9_18
REMARK    8  A    between atoms: C13_27  and  N6_28
ROOT
HETATM    1  C3  UNL     1      -8.012  16.680 -16.117  1.00  0.00     0.275 C
HETATM    2  O2  UNL     1      -7.174  16.856 -17.008  1.00  0.00    -0.266 OA
HETATM    3  N2  UNL     1      -9.258  16.027 -16.365  1.00  0.00    -0.314 N
ATOM      4  H2  UNL     1      -9.921  15.898 -15.600  1.00  0.00     0.166 HD
ENDROOT
BRANCH   1   5
HETATM    5  C2  UNL     1      -7.726  17.162 -14.748  1.00  0.00     0.149 C
HETATM    6  N1  UNL     1      -7.341  16.266 -13.958  1.00  0.00    -0.260 N
ATOM      7  H1  UNL     1      -7.280  15.336 -14.371  1.00  0.00     0.194 HD
BRANCH   6   8
HETATM    8  O1  UNL     1      -7.002  16.324 -12.692  1.00  0.00    -0.285 OA
HETATM    9  C1  UNL     1      -7.567  15.416 -11.749  1.00  0.00     0.237 C
ENDBRANCH   6   8
BRANCH   5  10
HETATM   10  C11 UNL     1      -7.861  18.612 -14.425  1.00  0.00     0.075 A
HETATM   11  C12 UNL     1      -8.385  19.048 -13.237  1.00  0.00     0.085 A
HETATM   12  S1  UNL     1      -8.358  20.764 -13.434  1.00  0.00    -0.064 SA
HETATM   13  C13 UNL     1      -7.695  20.814 -14.983  1.00  0.00     0.142 A
HETATM   14  N7  UNL     1      -7.518  19.538 -15.296  1.00  0.00    -0.335 N
ATOM     15  H7  UNL     1      -7.122  19.277 -16.199  1.00  0.00     0.168 HD
BRANCH  13  16
HETATM   16  N6  UNL     1      -7.396  21.852 -15.751  1.00  0.00    -0.380 N
ATOM     17  H62 UNL     1      -6.832  22.656 -15.477  1.00  0.00     0.158 HD
ATOM     18  H61 UNL     1      -7.656  22.052 -16.717  1.00  0.00     0.158 HD
ENDBRANCH  13  16
ENDBRANCH   5  10
ENDBRANCH   1   5
BRANCH   3  19
HETATM   19  C4  UNL     1      -9.585  15.552 -17.674  1.00  0.00     0.247 C
HETATM   20  C6  UNL     1     -10.666  14.453 -17.580  1.00  0.00     0.135 C
HETATM   21  C7  UNL     1      -9.805  13.277 -17.310  1.00  0.00     0.066 C
HETATM   22  N5  UNL     1      -8.608  13.535 -17.653  1.00  0.00    -0.265 N
HETATM   23  O5  UNL     1      -8.500  14.808 -18.160  1.00  0.00    -0.237 OA
ATOM     24  H5  UNL     1      -7.829  12.883 -17.564  1.00  0.00     0.194 HD
BRANCH  19  25
HETATM   25  C5  UNL     1     -10.037  16.608 -18.607  1.00  0.00     0.289 C
HETATM   26  N3  UNL     1     -10.434  17.895 -18.186  1.00  0.00    -0.057 NA
HETATM   27  O3  UNL     1     -10.068  16.354 -19.829  1.00  0.00    -0.271 OA
ENDBRANCH  19  25
BRANCH  21  28
HETATM   28  C8  UNL     1     -10.384  12.027 -16.705  1.00  0.00     0.213 C
BRANCH  28  29
HETATM   29  N4  UNL     1      -9.838  10.900 -17.303  1.00  0.00    -0.382 NA
HETATM   30  C9  UNL     1      -9.310   9.806 -17.884  1.00  0.00     0.287 C
HETATM   31  C10 UNL     1     -10.103   8.486 -17.801  1.00  0.00     0.135 C
HETATM   32  O4  UNL     1      -8.227   9.632 -18.525  1.00  0.00    -0.258 OA
ENDBRANCH  28  29
ENDBRANCH  21  28
ENDBRANCH   3  19
TORSDOF 8
ENDMDL