MODEL 1
REMARK VINA RESULT: -7.239396260      0.000      0.000
REMARK  9 active torsions:
REMARK  status: ('A' for Active; 'I' for Inactive)
REMARK    1  A    between atoms: O1_2  and  C2_3
REMARK    2  A    between atoms: C2_3  and  C3_5
REMARK    3  A    between atoms: C3_5  and  C4_6
REMARK    4  A    between atoms: C4_6  and  N1_7
REMARK    5  A    between atoms: C4_6  and  C13_31
REMARK       I    between atoms: N1_7  and  C5_9
REMARK    6  A    between atoms: C5_9  and  C6_11
REMARK    7  A    between atoms: C7_15  and  C8_16
REMARK    8  A    between atoms: C11_21  and  N4_22
REMARK    9  A    between atoms: C13_31  and  O7_33
ROOT
HETATM    1  C6  UNL     1      -9.980  16.857 -16.982  1.00  0.00     0.197 A
HETATM    2  N2  UNL     1      -9.959  16.652 -18.312  1.00  0.00    -0.238 N
ATOM      3  H2  UNL     1      -9.909  17.379 -19.027  1.00  0.00     0.197 HD
HETATM    4  O4  UNL     1     -10.013  15.371 -18.533  1.00  0.00    -0.217 OA
HETATM    5  C7  UNL     1     -10.071  14.694 -17.415  1.00  0.00     0.190 A
HETATM    6  N6  UNL     1     -10.050  15.628 -16.446  1.00  0.00    -0.314 N
ATOM      7  H6  UNL     1     -10.083  15.431 -15.445  1.00  0.00     0.169 HD
ENDROOT
BRANCH   1   8
HETATM    8  C5  UNL     1      -9.937  18.127 -16.266  1.00  0.00     0.288 C
HETATM    9  N1  UNL     1      -9.001  18.383 -15.255  1.00  0.00    -0.340 N
ATOM     10  H1  UNL     1      -8.319  17.668 -15.000  1.00  0.00     0.163 HD
HETATM   11  O3  UNL     1     -10.781  19.016 -16.581  1.00  0.00    -0.264 OA
BRANCH   9  12
HETATM   12  C4  UNL     1      -9.000  19.657 -14.575  1.00  0.00     0.194 C
BRANCH  12  13
HETATM   13  C3  UNL     1      -9.079  19.451 -13.076  1.00  0.00     0.146 C
BRANCH  13  14
HETATM   14  C2  UNL     1      -7.933  18.740 -12.504  1.00  0.00     0.260 C
HETATM   15  O2  UNL     1      -7.211  19.286 -11.640  1.00  0.00    -0.265 OA
BRANCH  14  16
HETATM   16  O1  UNL     1      -7.611  17.454 -12.896  1.00  0.00    -0.326 OA
HETATM   17  C1  UNL     1      -7.231  16.496 -11.918  1.00  0.00     0.213 C
ENDBRANCH  14  16
ENDBRANCH  13  14
ENDBRANCH  12  13
BRANCH  12  18
HETATM   18  C13 UNL     1      -7.797  20.463 -14.949  1.00  0.00     0.281 C
HETATM   19  O6  UNL     1      -6.941  20.076 -15.780  1.00  0.00    -0.263 OA
BRANCH  18  20
HETATM   20  O7  UNL     1      -7.602  21.713 -14.350  1.00  0.00    -0.325 OA
HETATM   21  C14 UNL     1      -7.581  22.866 -15.165  1.00  0.00     0.213 C
ENDBRANCH  18  20
ENDBRANCH  12  18
ENDBRANCH   9  12
ENDBRANCH   1   8
BRANCH   5  22
HETATM   22  C8  UNL     1     -10.142  13.255 -17.224  1.00  0.00     0.108 A
HETATM   23  C9  UNL     1      -9.065  12.459 -17.547  1.00  0.00     0.043 A
HETATM   24  C10 UNL     1      -7.822  13.055 -18.102  1.00  0.00     0.070 C
HETATM   25  N3  UNL     1      -9.147  11.109 -17.355  1.00  0.00    -0.195 N
HETATM   26  C11 UNL     1     -10.281  10.561 -16.851  1.00  0.00     0.679 A
ATOM     27  H3  UNL     1      -8.355  10.512 -17.590  1.00  0.00     0.184 HD
HETATM   28  N5  UNL     1     -11.350  11.317 -16.528  1.00  0.00    -0.155 N
HETATM   29  C12 UNL     1     -11.257  12.632 -16.719  1.00  0.00     0.276 A
ATOM     30  H5  UNL     1     -12.199  10.896 -16.150  1.00  0.00     0.187 HD
HETATM   31  O5  UNL     1     -12.266  13.354 -16.416  1.00  0.00    -0.267 OA
BRANCH  26  32
HETATM   32  N4  UNL     1     -10.338   9.308 -16.679  1.00  0.00    -0.234 N
ATOM     33  H42 UNL     1      -9.582   8.841 -16.177  1.00  0.00     0.174 HD
ATOM     34  H41 UNL     1     -11.136   8.792 -17.047  1.00  0.00     0.174 HD
ENDBRANCH  26  32
ENDBRANCH   5  22
TORSDOF 9
ENDMDL