MODEL 5
REMARK VINA RESULT: -7.892917558      5.402      7.540
REMARK  11 active torsions:
REMARK  status: ('A' for Active; 'I' for Inactive)
REMARK    1  A    between atoms: C2_3  and  O1_4
REMARK    2  A    between atoms: C4_7  and  N2_8
REMARK    3  A    between atoms: C5_11  and  C6_12
REMARK    4  A    between atoms: C6_12  and  O4_18
REMARK    5  A    between atoms: N3_13  and  N4_15
REMARK    6  A    between atoms: O4_18  and  N5_19
REMARK       I    between atoms: N5_19  and  C7_21
REMARK    7  A    between atoms: C7_21  and  C8_23
REMARK    8  A    between atoms: C8_23  and  N6_24
REMARK    9  A    between atoms: N6_24  and  N7_25
REMARK       I    between atoms: N7_25  and  C9_27
REMARK   10  A    between atoms: C9_27  and  C10_29
REMARK   11  A    between atoms: C12_35  and  N10_36
ROOT
HETATM    1  O4  UNL     1      74.225  51.759  26.640  1.00  0.00    -0.214 OA
ENDROOT
BRANCH   1   2
HETATM    2  C6  UNL     1      73.003  51.026  26.621  1.00  0.00     0.202 C
HETATM    3  N3  UNL     1      72.422  50.996  27.758  1.00  0.00    -0.284 N
ATOM      4  H3  UNL     1      71.538  50.488  27.803  1.00  0.00     0.188 HD
BRANCH   2   5
HETATM    5  C5  UNL     1      72.545  50.416  25.397  1.00  0.00     0.120 A
HETATM    6  C4  UNL     1      71.756  51.007  24.478  1.00  0.00     0.127 A
HETATM    7  C3  UNL     1      71.250  50.256  23.376  1.00  0.00     0.093 A
HETATM    8  C2  UNL     1      71.573  48.927  23.249  1.00  0.00     0.146 A
HETATM    9  N1  UNL     1      72.365  48.369  24.183  1.00  0.00    -0.298 N
HETATM   10  C1  UNL     1      72.676  46.949  23.999  1.00  0.00     0.161 C
HETATM   11  C13 UNL     1      72.855  49.039  25.227  1.00  0.00     0.266 A
HETATM   12  O7  UNL     1      73.586  48.491  26.071  1.00  0.00    -0.267 OA
BRANCH   6  13
HETATM   13  N2  UNL     1      71.384  52.355  24.499  1.00  0.00    -0.114 N
HETATM   14  O2  UNL     1      70.530  52.910  25.178  1.00  0.00    -0.532 OA
HETATM   15  O3  UNL     1      72.133  53.245  23.698  1.00  0.00    -0.532 OA
ENDBRANCH   6  13
BRANCH   8  16
HETATM   16  O1  UNL     1      71.104  48.156  22.194  1.00  0.00    -0.346 OA
ATOM     17  H1  UNL     1      70.723  48.580  21.434  1.00  0.00     0.219 HD
ENDBRANCH   8  16
ENDBRANCH   2   5
BRANCH   3  18
HETATM   18  N4  UNL     1      72.849  51.567  28.917  1.00  0.00    -0.343 N
ATOM     19  H42 UNL     1      73.051  52.565  28.861  1.00  0.00     0.176 HD
ATOM     20  H41 UNL     1      72.986  51.109  29.817  1.00  0.00     0.176 HD
ENDBRANCH   3  18
ENDBRANCH   1   2
BRANCH   1  21
HETATM   21  N5  UNL     1      74.346  52.952  25.997  1.00  0.00    -0.222 N
HETATM   22  C7  UNL     1      73.836  54.148  26.544  1.00  0.00     0.296 C
HETATM   23  O5  UNL     1      73.251  54.161  27.655  1.00  0.00    -0.264 OA
ATOM     24  H5  UNL     1      74.818  52.982  25.093  1.00  0.00     0.198 HD
BRANCH  22  25
HETATM   25  C8  UNL     1      73.973  55.463  25.826  1.00  0.00     0.285 C
BRANCH  25  26
HETATM   26  N6  UNL     1      73.041  56.392  26.147  1.00  0.00    -0.330 NA
BRANCH  26  27
HETATM   27  N7  UNL     1      72.177  57.083  26.406  1.00  0.00    -0.199 N
HETATM   28  C9  UNL     1      71.249  57.968  25.869  1.00  0.00     0.285 C
HETATM   29  O6  UNL     1      70.289  57.555  25.181  1.00  0.00    -0.265 OA
ATOM     30  H7  UNL     1      72.025  57.036  27.414  1.00  0.00     0.205 HD
BRANCH  28  31
HETATM   31  C10 UNL     1      71.416  59.403  26.125  1.00  0.00     0.096 A
HETATM   32  C11 UNL     1      71.842  59.948  27.343  1.00  0.00     0.128 A
HETATM   33  N8  UNL     1      71.865  61.272  27.186  1.00  0.00    -0.309 N
HETATM   34  N9  UNL     1      71.486  61.601  25.966  1.00  0.00    -0.285 N
ATOM     35  H8  UNL     1      72.138  61.938  27.909  1.00  0.00     0.186 HD
HETATM   36  C12 UNL     1      71.200  60.457  25.280  1.00  0.00     0.131 A
ATOM     37  H9  UNL     1      71.417  62.549  25.597  1.00  0.00     0.188 HD
BRANCH  36  38
HETATM   38  N10 UNL     1      70.803  60.460  24.057  1.00  0.00    -0.384 N
ATOM     39 2H10 UNL     1      71.272  59.928  23.323  1.00  0.00     0.157 HD
ATOM     40 1H10 UNL     1      70.017  60.948  23.628  1.00  0.00     0.157 HD
ENDBRANCH  36  38
ENDBRANCH  28  31
ENDBRANCH  26  27
ENDBRANCH  25  26
ENDBRANCH  22  25
ENDBRANCH   1  21
TORSDOF 11
ENDMDL