MODEL 1
REMARK VINA RESULT: -8.570067218      0.000      0.000
REMARK  8 active torsions:
REMARK  status: ('A' for Active; 'I' for Inactive)
REMARK    1  A    between atoms: O1_2  and  C2_3
REMARK    2  A    between atoms: C2_3  and  N1_4
REMARK    3  A    between atoms: C3_7  and  C4_8
REMARK    4  A    between atoms: C5_17  and  S1_18
REMARK    5  A    between atoms: S1_18  and  C6_19
REMARK    6  A    between atoms: C6_19  and  C7_20
REMARK    7  A    between atoms: C10_26  and  N10_27
REMARK    8  A    between atoms: C11_32  and  N12_33
REMARK       I    between atoms: N12_33  and  C12_35
ROOT
HETATM    1  C7  UNL     1      72.178  53.619  27.154  1.00  0.00     0.005 A
HETATM    2  C8  UNL     1      72.572  52.373  26.611  1.00  0.00     0.032 A
HETATM    3  C9  UNL     1      73.958  51.856  26.597  1.00  0.00     0.070 C
HETATM    4  N8  UNL     1      71.525  51.752  26.125  1.00  0.00    -0.283 N
ATOM      5  H8  UNL     1      71.538  50.835  25.678  1.00  0.00     0.188 HD
HETATM    6  N9  UNL     1      70.448  52.498  26.304  1.00  0.00    -0.086 N
HETATM    7  C10 UNL     1      69.158  52.313  25.968  1.00  0.00     0.699 A
HETATM    8  N11 UNL     1      68.227  53.237  26.233  1.00  0.00    -0.175 N
ATOM      9  H11 UNL     1      67.259  53.061  25.964  1.00  0.00     0.186 HD
HETATM   10  C11 UNL     1      68.540  54.389  26.847  1.00  0.00     0.125 A
HETATM   11  C13 UNL     1      69.857  54.577  27.192  1.00  0.00     0.082 A
HETATM   12  C14 UNL     1      70.826  53.653  26.935  1.00  0.00     0.087 A
ENDROOT
BRANCH   1  13
HETATM   13  C6  UNL     1      73.122  54.579  27.718  1.00  0.00     0.125 C
BRANCH  13  14
HETATM   14  S1  UNL     1      73.676  55.954  26.791  1.00  0.00    -0.087 SA
BRANCH  14  15
HETATM   15  C5  UNL     1      72.616  57.345  26.658  1.00  0.00     0.165 A
HETATM   16  N1  UNL     1      71.998  57.957  27.696  1.00  0.00    -0.245 N
HETATM   17  N2  UNL     1      71.313  58.947  27.225  1.00  0.00    -0.276 N
HETATM   18  C3  UNL     1      71.447  59.025  25.908  1.00  0.00     0.169 A
ATOM     19  H2  UNL     1      70.748  59.581  27.789  1.00  0.00     0.189 HD
HETATM   20  N7  UNL     1      72.261  58.021  25.573  1.00  0.00    -0.317 N
ATOM     21  H7  UNL     1      72.565  57.805  24.624  1.00  0.00     0.169 HD
BRANCH  16  22
HETATM   22  C2  UNL     1      72.083  57.578  29.076  1.00  0.00     0.318 C
BRANCH  22  23
HETATM   23  O1  UNL     1      72.096  58.641  29.963  1.00  0.00    -0.375 OA
HETATM   24  C1  UNL     1      72.682  58.138  31.149  1.00  0.00     0.203 C
ENDBRANCH  22  23
ENDBRANCH  16  22
BRANCH  18  25
HETATM   25  C4  UNL     1      70.848  59.992  24.986  1.00  0.00     0.177 A
HETATM   26  N3  UNL     1      69.814  60.821  25.213  1.00  0.00    -0.267 N
HETATM   27  N4  UNL     1      69.580  61.536  24.124  1.00  0.00    -0.007 NA
ATOM     28  H3  UNL     1      69.291  60.888  26.087  1.00  0.00     0.185 HD
HETATM   29  N5  UNL     1      70.459  61.180  23.179  1.00  0.00    -0.007 NA
HETATM   30  N6  UNL     1      71.223  60.241  23.718  1.00  0.00    -0.267 N
ATOM     31  H6  UNL     1      71.991  59.771  23.237  1.00  0.00     0.185 HD
ENDBRANCH  18  25
ENDBRANCH  14  15
ENDBRANCH  13  14
ENDBRANCH   1  13
BRANCH   7  32
HETATM   32  N10 UNL     1      68.840  51.200  25.371  1.00  0.00    -0.233 N
ATOM     33 2H10 UNL     1      68.888  51.121  24.355  1.00  0.00     0.174 HD
ATOM     34 1H10 UNL     1      68.544  50.416  25.953  1.00  0.00     0.174 HD
ENDBRANCH   7  32
BRANCH  10  35
HETATM   35  N12 UNL     1      67.635  55.280  27.100  1.00  0.00    -0.317 N
HETATM   36  C12 UNL     1      67.012  55.933  26.006  1.00  0.00     0.187 C
HETATM   37  N13 UNL     1      65.831  55.554  25.654  1.00  0.00    -0.373 N
HETATM   38  N14 UNL     1      67.611  56.987  25.264  1.00  0.00    -0.064 NA
ATOM     39 2H13 UNL     1      65.401  54.797  26.186  1.00  0.00     0.158 HD
ATOM     40 1H13 UNL     1      65.383  56.023  24.866  1.00  0.00     0.158 HD
ATOM     41  H12 UNL     1      67.378  55.507  28.061  1.00  0.00     0.170 HD
ENDBRANCH  10  35
TORSDOF 8
ENDMDL