MODEL 5
REMARK VINA RESULT: -7.873496046      1.707      2.826
REMARK  7 active torsions:
REMARK  status: ('A' for Active; 'I' for Inactive)
REMARK    1  A    between atoms: C3_5  and  C4_6
REMARK       I    between atoms: C4_6  and  N2_8
REMARK    2  A    between atoms: N2_8  and  C5_10
REMARK    3  A    between atoms: C5_10  and  C6_11
REMARK    4  A    between atoms: C5_10  and  C10_23
REMARK    5  A    between atoms: C7_14  and  C8_15
REMARK    6  A    between atoms: N9_30  and  C12_31
REMARK    7  A    between atoms: C14_36  and  N12_37
ROOT
HETATM    1  C12 UNL     1      70.109  50.268  25.958  1.00  0.00     0.259 C
HETATM    2  C13 UNL     1      69.938  51.706  25.752  1.00  0.00     0.079 C
HETATM    3  N10 UNL     1      69.813  52.862  25.581  1.00  0.00    -0.196 NA
ENDROOT
BRANCH   1   4
HETATM    4  N9  UNL     1      69.923  49.548  24.704  1.00  0.00    -0.271 N
HETATM    5  C10 UNL     1      68.781  49.010  24.243  1.00  0.00     0.135 A
HETATM    6  N7  UNL     1      69.085  48.449  23.050  1.00  0.00    -0.283 N
HETATM    7  N8  UNL     1      70.367  48.632  22.781  1.00  0.00    -0.250 N
ATOM      8  H7  UNL     1      68.425  47.958  22.448  1.00  0.00     0.188 HD
HETATM    9  C11 UNL     1      70.918  49.318  23.800  1.00  0.00     0.343 A
ATOM     10  H8  UNL     1      70.854  48.309  21.945  1.00  0.00     0.192 HD
HETATM   11  O2  UNL     1      72.127  49.693  23.923  1.00  0.00    -0.245 OA
BRANCH   5  12
HETATM   12  C5  UNL     1      67.453  49.030  24.909  1.00  0.00     0.238 C
BRANCH  12  13
HETATM   13  N2  UNL     1      66.880  50.366  24.717  1.00  0.00    -0.255 N
HETATM   14  C4  UNL     1      66.522  51.182  25.801  1.00  0.00     0.300 C
HETATM   15  O1  UNL     1      66.695  50.760  26.970  1.00  0.00    -0.263 OA
HETATM   16  S1  UNL     1      66.644  50.939  23.073  1.00  0.00     0.049 SA
BRANCH  14  17
HETATM   17  C3  UNL     1      65.960  52.492  25.610  1.00  0.00     0.191 A
HETATM   18  N1  UNL     1      66.649  53.613  25.829  1.00  0.00    -0.327 N
HETATM   19  C2  UNL     1      66.184  54.854  25.669  1.00  0.00     0.095 A
ATOM     20  H1  UNL     1      67.613  53.514  26.146  1.00  0.00     0.169 HD
HETATM   21  C1  UNL     1      67.025  56.059  25.938  1.00  0.00     0.089 C
HETATM   22  N13 UNL     1      64.907  54.992  25.249  1.00  0.00    -0.181 N
HETATM   23  C14 UNL     1      64.172  53.892  25.014  1.00  0.00     0.678 A
ATOM     24  H13 UNL     1      64.506  55.920  25.113  1.00  0.00     0.185 HD
HETATM   25  N11 UNL     1      64.674  52.661  25.186  1.00  0.00    -0.171 N
ATOM     26  H11 UNL     1      64.090  51.846  24.999  1.00  0.00     0.186 HD
BRANCH  23  27
HETATM   27  N12 UNL     1      62.951  53.998  24.613  1.00  0.00    -0.234 N
ATOM     28 2H12 UNL     1      62.328  53.190  24.636  1.00  0.00     0.174 HD
ATOM     29 1H12 UNL     1      62.634  54.907  24.276  1.00  0.00     0.174 HD
ENDBRANCH  23  27
ENDBRANCH  14  17
ENDBRANCH  12  13
BRANCH  12  30
HETATM   30  C6  UNL     1      66.574  47.989  24.331  1.00  0.00     0.114 A
HETATM   31  N3  UNL     1      66.700  47.376  23.116  1.00  0.00    -0.340 N
HETATM   32  C7  UNL     1      65.673  46.491  23.004  1.00  0.00     0.090 A
ATOM     33  H3  UNL     1      67.428  47.550  22.423  1.00  0.00     0.167 HD
HETATM   34  C9  UNL     1      64.918  46.561  24.150  1.00  0.00     0.122 A
HETATM   35  N6  UNL     1      65.483  47.480  24.949  1.00  0.00    -0.351 N
ATOM     36  H6  UNL     1      65.144  47.751  25.872  1.00  0.00     0.166 HD
BRANCH  32  37
HETATM   37  C8  UNL     1      65.393  45.607  21.877  1.00  0.00     0.138 C
HETATM   38  N4  UNL     1      65.784  44.381  21.855  1.00  0.00    -0.386 N
ATOM     39  H42 UNL     1      66.306  44.015  22.652  1.00  0.00     0.157 HD
ATOM     40  H41 UNL     1      65.588  43.763  21.067  1.00  0.00     0.157 HD
HETATM   41  N5  UNL     1      64.662  46.121  20.760  1.00  0.00    -0.081 NA
ENDBRANCH  32  37
ENDBRANCH  12  30
ENDBRANCH   5  12
ENDBRANCH   1   4
TORSDOF 7
ENDMDL