MODEL 4
REMARK VINA RESULT: -8.122840109      8.428     10.747
REMARK  8 active torsions:
REMARK  status: ('A' for Active; 'I' for Inactive)
REMARK    1  A    between atoms: O1_2  and  C2_3
REMARK    2  A    between atoms: C4_5  and  N1_6
REMARK    3  A    between atoms: C5_8  and  C6_9
REMARK    4  A    between atoms: C7_14  and  N4_15
REMARK    5  A    between atoms: N4_15  and  N5_17
REMARK    6  A    between atoms: C9_24  and  C10_25
REMARK    7  A    between atoms: N8_28  and  C11_29
REMARK    8  A    between atoms: C16_38  and  O4_39
ROOT
HETATM    1  C2  UNL     1      65.297  46.067  23.796  1.00  0.00     0.105 A
HETATM    2  C3  UNL     1      65.148  47.386  24.147  1.00  0.00     0.070 A
HETATM    3  C4  UNL     1      66.078  48.047  24.943  1.00  0.00     0.051 A
HETATM    4  C9  UNL     1      67.176  47.374  25.394  1.00  0.00     0.063 A
HETATM    5  C15 UNL     1      67.362  46.028  25.056  1.00  0.00     0.098 A
HETATM    6  N10 UNL     1      68.481  45.272  25.494  1.00  0.00    -0.098 NA
HETATM    7  C16 UNL     1      66.416  45.421  24.269  1.00  0.00     0.127 A
ENDROOT
BRANCH   3   8
HETATM    8  N1  UNL     1      65.811  49.394  25.231  1.00  0.00    -0.363 N
HETATM    9  C5  UNL     1      65.921  50.316  24.336  1.00  0.00     0.125 C
ATOM     10  H1  UNL     1      65.521  49.651  26.175  1.00  0.00     0.165 HD
BRANCH   9  11
HETATM   11  C6  UNL     1      65.639  51.716  24.649  1.00  0.00     0.132 A
HETATM   12  N2  UNL     1      64.450  52.298  24.438  1.00  0.00    -0.280 N
HETATM   13  N3  UNL     1      64.236  53.571  24.737  1.00  0.00    -0.130 N
ATOM     14  H2  UNL     1      63.691  51.747  24.037  1.00  0.00     0.188 HD
HETATM   15  C7  UNL     1      65.242  54.306  25.268  1.00  0.00     0.713 A
ATOM     16  H3  UNL     1      63.323  53.993  24.568  1.00  0.00     0.205 HD
HETATM   17  N6  UNL     1      66.436  53.759  25.492  1.00  0.00    -0.151 N
HETATM   18  C8  UNL     1      66.647  52.476  25.189  1.00  0.00     0.289 A
ATOM     19  H6  UNL     1      67.187  54.319  25.894  1.00  0.00     0.188 HD
HETATM   20  O2  UNL     1      67.794  51.952  25.405  1.00  0.00    -0.265 OA
BRANCH  15  21
HETATM   21  N4  UNL     1      65.045  55.537  25.561  1.00  0.00    -0.137 N
ATOM     22  H4  UNL     1      65.375  55.913  26.450  1.00  0.00     0.205 HD
BRANCH  21  23
HETATM   23  N5  UNL     1      64.380  56.356  24.660  1.00  0.00    -0.331 N
ATOM     24  H52 UNL     1      64.882  56.711  23.846  1.00  0.00     0.177 HD
ATOM     25  H51 UNL     1      63.401  56.591  24.822  1.00  0.00     0.177 HD
ENDBRANCH  21  23
ENDBRANCH  15  21
ENDBRANCH   9  11
ENDBRANCH   3   8
BRANCH   4  26
HETATM   26  C10 UNL     1      68.224  47.957  26.237  1.00  0.00     0.138 A
HETATM   27  N7  UNL     1      69.305  48.641  25.789  1.00  0.00    -0.278 N
HETATM   28  N8  UNL     1      70.022  49.009  26.809  1.00  0.00    -0.237 N
ATOM     29  H7  UNL     1      69.521  48.836  24.812  1.00  0.00     0.189 HD
HETATM   30  C14 UNL     1      69.443  48.586  27.938  1.00  0.00     0.343 A
HETATM   31  O3  UNL     1      69.852  48.757  29.135  1.00  0.00    -0.245 OA
HETATM   32  N9  UNL     1      68.312  47.926  27.553  1.00  0.00    -0.291 N
ATOM     33  H9  UNL     1      67.643  47.481  28.181  1.00  0.00     0.172 HD
BRANCH  28  34
HETATM   34  C11 UNL     1      71.262  49.762  26.748  1.00  0.00     0.105 C
HETATM   35  C12 UNL     1      72.448  48.895  26.482  1.00  0.00     0.034 C
HETATM   36  C13 UNL     1      71.192  50.828  25.667  1.00  0.00     0.034 C
ENDBRANCH  28  34
ENDBRANCH   4  26
BRANCH   1  37
HETATM   37  O1  UNL     1      64.352  45.444  23.002  1.00  0.00    -0.353 OA
HETATM   38  C1  UNL     1      64.482  45.262  21.625  1.00  0.00     0.210 C
ENDBRANCH   1  37
BRANCH   7  39
HETATM   39  O4  UNL     1      66.598  44.082  23.931  1.00  0.00    -0.351 OA
HETATM   40  C17 UNL     1      67.370  43.686  22.829  1.00  0.00     0.210 C
ENDBRANCH   7  39
TORSDOF 8
ENDMDL