MODEL 2
REMARK VINA RESULT: -8.983189370      0.982      1.492
REMARK  12 active torsions:
REMARK  status: ('A' for Active; 'I' for Inactive)
REMARK    1  A    between atoms: O1_2  and  C2_3
REMARK    2  A    between atoms: C2_3  and  C3_4
REMARK       I    between atoms: C3_4  and  N1_6
REMARK    3  A    between atoms: N1_6  and  N2_8
REMARK    4  A    between atoms: N2_8  and  N3_9
REMARK    5  A    between atoms: N3_9  and  O3_10
REMARK    6  A    between atoms: N3_9  and  O4_12
REMARK    7  A    between atoms: O4_12  and  C4_13
REMARK    8  A    between atoms: C7_19  and  N5_20
REMARK    9  A    between atoms: N5_20  and  N6_22
REMARK   10  A    between atoms: C8_24  and  C9_25
REMARK   11  A    between atoms: C12_28  and  O6_29
REMARK   12  A    between atoms: C13_31  and  O7_32
ROOT
HETATM    1  C2  UNL     1      67.793  47.062  26.816  1.00  0.00     0.213 C
HETATM    2  C6  UNL     1      67.223  47.777  28.045  1.00  0.00     0.182 C
HETATM    3  N4  UNL     1      67.793  49.050  28.186  1.00  0.00    -0.365 N
ATOM      4  H4  UNL     1      67.861  49.474  29.112  1.00  0.00     0.161 HD
HETATM    5  C7  UNL     1      68.217  49.666  27.190  1.00  0.00     0.158 C
HETATM    6  S1  UNL     1      67.941  48.600  25.782  1.00  0.00    -0.043 SA
ENDROOT
BRANCH   5   7
HETATM    7  N5  UNL     1      68.813  50.932  27.112  1.00  0.00    -0.280 N
ATOM      8  H5  UNL     1      69.801  51.016  27.349  1.00  0.00     0.189 HD
BRANCH   7   9
HETATM    9  N6  UNL     1      68.119  52.092  26.724  1.00  0.00    -0.309 N
HETATM   10  C8  UNL     1      66.951  52.057  26.203  1.00  0.00     0.118 C
ATOM     11  H6  UNL     1      68.565  52.998  26.865  1.00  0.00     0.186 HD
BRANCH  10  12
HETATM   12  C9  UNL     1      66.317  53.322  25.835  1.00  0.00    -0.017 A
HETATM   13  C10 UNL     1      65.045  53.385  25.290  1.00  0.00     0.016 A
HETATM   14  C11 UNL     1      64.470  54.589  24.951  1.00  0.00     0.040 A
HETATM   15  C12 UNL     1      65.139  55.780  25.140  1.00  0.00     0.098 A
HETATM   16  C13 UNL     1      66.413  55.747  25.684  1.00  0.00     0.099 A
HETATM   17  C14 UNL     1      66.967  54.529  26.015  1.00  0.00     0.052 A
BRANCH  15  18
HETATM   18  O6  UNL     1      64.529  56.992  24.785  1.00  0.00    -0.358 OA
ATOM     19  H6  UNL     1      64.744  57.408  23.958  1.00  0.00     0.217 HD
ENDBRANCH  15  18
BRANCH  16  20
HETATM   20  O7  UNL     1      67.075  56.951  25.869  1.00  0.00    -0.358 OA
ATOM     21  H7  UNL     1      67.049  57.347  26.732  1.00  0.00     0.217 HD
ENDBRANCH  16  20
ENDBRANCH  10  12
ENDBRANCH   7   9
ENDBRANCH   5   7
BRANCH   1  22
HETATM   22  O1  UNL     1      69.063  46.613  27.032  1.00  0.00    -0.363 OA
HETATM   23  C1  UNL     1      69.958  46.794  26.004  1.00  0.00     0.204 C
ENDBRANCH   1  22
BRANCH   1  24
HETATM   24  C3  UNL     1      66.842  46.147  26.213  1.00  0.00     0.282 C
HETATM   25  O2  UNL     1      66.218  45.325  26.880  1.00  0.00    -0.268 OA
HETATM   26  N1  UNL     1      66.638  46.218  24.804  1.00  0.00    -0.251 N
ATOM     27  H1  UNL     1      67.157  46.900  24.251  1.00  0.00     0.187 HD
BRANCH  26  28
HETATM   28  N2  UNL     1      65.735  45.361  24.178  1.00  0.00     0.009 NA
BRANCH  28  29
HETATM   29  N3  UNL     1      64.821  46.024  23.387  1.00  0.00     0.058 NA
BRANCH  29  30
HETATM   30  O3  UNL     1      64.026  46.829  24.106  1.00  0.00    -0.272 OA
ATOM     31  H3  UNL     1      63.674  47.539  23.583  1.00  0.00     0.241 HD
ENDBRANCH  29  30
BRANCH  29  32
HETATM   32  O4  UNL     1      64.121  45.183  22.552  1.00  0.00    -0.182 OA
BRANCH  32  33
HETATM   33  C4  UNL     1      64.498  44.934  21.239  1.00  0.00     0.275 C
HETATM   34  C5  UNL     1      64.806  43.558  20.752  1.00  0.00     0.128 C
HETATM   35  O5  UNL     1      64.571  45.928  20.469  1.00  0.00    -0.264 OA
ENDBRANCH  32  33
ENDBRANCH  29  32
ENDBRANCH  28  29
ENDBRANCH  26  28
ENDBRANCH   1  24
TORSDOF 12
ENDMDL