MODEL 2
REMARK VINA RESULT: -7.420668918      2.368      3.876
REMARK  11 active torsions:
REMARK  status: ('A' for Active; 'I' for Inactive)
REMARK    1  A    between atoms: C2_2  and  C3_3
REMARK    2  A    between atoms: C3_3  and  N1_4
REMARK       I    between atoms: N1_4  and  C4_6
REMARK    3  A    between atoms: C4_6  and  C5_8
REMARK    4  A    between atoms: C7_13  and  N4_14
REMARK    5  A    between atoms: C10_22  and  N7_23
REMARK    6  A    between atoms: N7_23  and  C11_24
REMARK    7  A    between atoms: C14_27  and  N8_28
REMARK    8  A    between atoms: C16_32  and  N9_33
REMARK    9  A    between atoms: N9_33  and  O4_34
REMARK   10  A    between atoms: N10_36  and  N11_38
REMARK   11  A    between atoms: N11_38  and  N12_40
ROOT
HETATM    1  C5  UNL     1      70.551  52.557  26.188  1.00  0.00     0.108 A
HETATM    2  C6  UNL     1      71.400  53.575  26.556  1.00  0.00     0.158 A
HETATM    3  N2  UNL     1      70.946  54.804  26.877  1.00  0.00    -0.081 N
HETATM    4  N3  UNL     1      71.610  55.896  27.251  1.00  0.00    -0.111 N
ATOM      5  H3  UNL     1      72.620  55.978  27.361  1.00  0.00     0.207 HD
HETATM    6  C7  UNL     1      70.709  56.867  27.455  1.00  0.00     0.706 A
HETATM    7  N5  UNL     1      69.486  56.341  27.198  1.00  0.00    -0.019 N
ATOM      8  H5  UNL     1      68.597  56.836  27.265  1.00  0.00     0.203 HD
HETATM    9  C8  UNL     1      69.647  55.047  26.837  1.00  0.00     0.722 A
HETATM   10  N6  UNL     1      68.789  54.067  26.477  1.00  0.00    -0.157 N
HETATM   11  C9  UNL     1      67.396  54.472  26.461  1.00  0.00     0.178 C
HETATM   12  C10 UNL     1      69.173  52.812  26.144  1.00  0.00     0.213 A
ENDROOT
BRANCH  12  13
HETATM   13  N7  UNL     1      68.429  51.971  25.770  1.00  0.00    -0.383 NA
BRANCH  13  14
HETATM   14  C11 UNL     1      67.697  50.884  25.479  1.00  0.00     0.140 A
HETATM   15  C12 UNL     1      67.126  50.847  24.139  1.00  0.00     0.050 A
HETATM   16  C13 UNL     1      66.357  49.769  23.824  1.00  0.00     0.039 A
HETATM   17  C14 UNL     1      66.093  48.737  24.680  1.00  0.00     0.105 A
HETATM   18  C15 UNL     1      66.632  48.787  25.924  1.00  0.00     0.073 A
HETATM   19  C16 UNL     1      67.438  49.850  26.345  1.00  0.00     0.125 A
BRANCH  17  20
HETATM   20  N8  UNL     1      65.288  47.690  24.221  1.00  0.00    -0.116 N
HETATM   21  O2  UNL     1      64.244  47.407  24.862  1.00  0.00    -0.532 OA
HETATM   22  O3  UNL     1      65.591  46.974  23.103  1.00  0.00    -0.532 OA
ENDBRANCH  17  20
BRANCH  19  23
HETATM   23  N9  UNL     1      67.980  49.815  27.658  1.00  0.00    -0.144 N
HETATM   24  N10 UNL     1      69.012  49.165  27.934  1.00  0.00    -0.202 N
ATOM     25  H10 UNL     1      69.453  48.656  27.168  1.00  0.00     0.212 HD
BRANCH  23  26
HETATM   26  O4  UNL     1      67.340  50.529  28.638  1.00  0.00    -0.266 OA
ATOM     27  H4  UNL     1      67.052  50.062  29.413  1.00  0.00     0.247 HD
ENDBRANCH  23  26
BRANCH  24  28
HETATM   28  N11 UNL     1      69.603  49.071  29.153  1.00  0.00    -0.233 N
ATOM     29  H11 UNL     1      69.006  49.066  29.980  1.00  0.00     0.209 HD
BRANCH  28  30
HETATM   30  N12 UNL     1      70.983  48.979  29.333  1.00  0.00    -0.330 N
ATOM     31 2H12 UNL     1      71.574  49.196  28.531  1.00  0.00     0.178 HD
ATOM     32 1H12 UNL     1      71.418  48.711  30.215  1.00  0.00     0.178 HD
ENDBRANCH  28  30
ENDBRANCH  24  28
ENDBRANCH  19  23
ENDBRANCH  13  14
ENDBRANCH  12  13
BRANCH   1  33
HETATM   33  C4  UNL     1      71.124  51.242  25.919  1.00  0.00     0.258 C
HETATM   34  N1  UNL     1      71.292  50.821  24.586  1.00  0.00    -0.357 N
ATOM     35  H1  UNL     1      71.018  51.437  23.820  1.00  0.00     0.162 HD
HETATM   36  O1  UNL     1      71.445  50.511  26.860  1.00  0.00    -0.267 OA
BRANCH  34  37
HETATM   37  C3  UNL     1      71.863  49.495  24.294  1.00  0.00     0.122 C
BRANCH  37  38
HETATM   38  C2  UNL     1      70.771  48.675  23.648  1.00  0.00     0.015 C
HETATM   39  C1  UNL     1      70.113  47.837  24.703  1.00  0.00     0.006 C
ENDBRANCH  37  38
ENDBRANCH  34  37
ENDBRANCH   1  33
BRANCH   6  40
HETATM   40  N4  UNL     1      70.955  58.079  27.822  1.00  0.00    -0.233 N
ATOM     41  H42 UNL     1      71.801  58.407  28.288  1.00  0.00     0.174 HD
ATOM     42  H41 UNL     1      70.342  58.885  27.705  1.00  0.00     0.174 HD
ENDBRANCH   6  40
TORSDOF 11
ENDMDL