MODEL 2
REMARK VINA RESULT: -7.770083473      1.677      2.613
REMARK  11 active torsions:
REMARK  status: ('A' for Active; 'I' for Inactive)
REMARK    1  A    between atoms: O1_2  and  C2_3
REMARK    2  A    between atoms: C3_6  and  C4_7
REMARK    3  A    between atoms: C4_7  and  N2_8
REMARK    4  A    between atoms: N2_8  and  C6_10
REMARK    5  A    between atoms: C8_14  and  N4_15
REMARK    6  A    between atoms: C9_20  and  N6_21
REMARK       I    between atoms: N6_21  and  C10_23
REMARK    7  A    between atoms: C13_34  and  C14_35
REMARK    8  A    between atoms: C14_35  and  N10_36
REMARK    9  A    between atoms: C14_35  and  N11_40
REMARK   10  A    between atoms: C14_35  and  C15_44
REMARK   11  A    between atoms: C15_44  and  O3_45
ROOT
HETATM    1  C2  UNL     1      71.938  58.727  26.635  1.00  0.00     0.172 A
HETATM    2  N1  UNL     1      72.455  57.501  26.725  1.00  0.00    -0.322 N
ATOM      3  H1  UNL     1      72.697  57.148  27.651  1.00  0.00     0.169 HD
HETATM    4  C3  UNL     1      72.672  56.713  25.678  1.00  0.00     0.116 A
HETATM    5  N8  UNL     1      72.340  57.211  24.460  1.00  0.00    -0.287 N
ATOM      6  H8  UNL     1      72.488  56.645  23.624  1.00  0.00     0.188 HD
HETATM    7  N9  UNL     1      71.834  58.407  24.350  1.00  0.00    -0.295 N
ATOM      8  H9  UNL     1      71.598  58.743  23.417  1.00  0.00     0.187 HD
HETATM    9  C13 UNL     1      71.604  59.225  25.393  1.00  0.00     0.143 A
ENDROOT
BRANCH   4  10
HETATM   10  C4  UNL     1      73.246  55.347  25.753  1.00  0.00     0.202 C
BRANCH  10  11
HETATM   11  N2  UNL     1      72.585  54.575  26.783  1.00  0.00    -0.359 N
HETATM   12  C5  UNL     1      73.314  54.242  27.975  1.00  0.00     0.152 C
BRANCH  11  13
HETATM   13  C6  UNL     1      71.242  54.143  26.645  1.00  0.00     0.149 A
HETATM   14  N3  UNL     1      70.830  53.006  26.127  1.00  0.00    -0.331 N
HETATM   15  C7  UNL     1      69.560  52.739  26.063  1.00  0.00     0.113 A
ATOM     16  H3  UNL     1      71.510  52.332  25.775  1.00  0.00     0.168 HD
HETATM   17  C8  UNL     1      68.961  51.577  25.543  1.00  0.00     0.144 A
HETATM   18  C12 UNL     1      68.684  53.671  26.548  1.00  0.00     0.124 A
HETATM   19  N5  UNL     1      67.629  51.471  25.558  1.00  0.00    -0.174 N
HETATM   20  C9  UNL     1      66.772  52.386  26.034  1.00  0.00     0.687 A
ATOM     21  H5  UNL     1      67.228  50.616  25.173  1.00  0.00     0.186 HD
HETATM   22  N7  UNL     1      67.327  53.506  26.537  1.00  0.00    -0.183 N
ATOM     23  H7  UNL     1      66.727  54.239  26.914  1.00  0.00     0.185 HD
HETATM   24  S1  UNL     1      69.775  54.904  27.077  1.00  0.00    -0.033 SA
BRANCH  17  25
HETATM   25  N4  UNL     1      69.692  50.627  25.059  1.00  0.00    -0.383 N
ATOM     26  H42 UNL     1      70.219  50.766  24.196  1.00  0.00     0.157 HD
ATOM     27  H41 UNL     1      69.749  49.728  25.536  1.00  0.00     0.157 HD
ENDBRANCH  17  25
BRANCH  20  28
HETATM   28  N6  UNL     1      65.498  52.235  26.025  1.00  0.00    -0.160 N
HETATM   29  C10 UNL     1      64.645  52.751  25.030  1.00  0.00     0.231 C
HETATM   30  C11 UNL     1      64.366  54.203  24.988  1.00  0.00     0.118 C
HETATM   31  O2  UNL     1      64.112  52.013  24.174  1.00  0.00    -0.273 OA
ATOM     32  H6  UNL     1      65.075  51.707  26.789  1.00  0.00     0.187 HD
ENDBRANCH  20  28
ENDBRANCH  11  13
ENDBRANCH  10  11
ENDBRANCH   4  10
BRANCH   1  33
HETATM   33  O1  UNL     1      71.733  59.500  27.746  1.00  0.00    -0.339 OA
HETATM   34  C1  UNL     1      72.311  59.217  28.990  1.00  0.00     0.211 C
ENDBRANCH   1  33
BRANCH   9  35
HETATM   35  C14 UNL     1      71.029  60.547  25.158  1.00  0.00     0.349 C
BRANCH  35  36
HETATM   36  N10 UNL     1      71.558  61.469  26.173  1.00  0.00    -0.037 N
ATOM     37 3H10 UNL     1      70.858  61.735  26.864  1.00  0.00     0.277 HD
ATOM     38 2H10 UNL     1      72.217  61.017  26.808  1.00  0.00     0.277 HD
ATOM     39 1H10 UNL     1      71.964  62.274  25.694  1.00  0.00     0.277 HD
ENDBRANCH  35  36
BRANCH  35  40
HETATM   40  N11 UNL     1      69.596  60.587  25.269  1.00  0.00    -0.037 N
ATOM     41 3H11 UNL     1      69.204  59.650  25.181  1.00  0.00     0.277 HD
ATOM     42 2H11 UNL     1      69.316  60.803  26.225  1.00  0.00     0.277 HD
ATOM     43 1H11 UNL     1      69.149  61.227  24.611  1.00  0.00     0.277 HD
ENDBRANCH  35  40
BRANCH  35  44
HETATM   44  C15 UNL     1      71.409  61.124  23.802  1.00  0.00     0.240 C
BRANCH  44  45
HETATM   45  O3  UNL     1      70.719  60.492  22.768  1.00  0.00    -0.396 OA
ATOM     46  H3  UNL     1      70.645  61.055  22.006  1.00  0.00     0.209 HD
ENDBRANCH  44  45
ENDBRANCH  35  44
ENDBRANCH   9  35
TORSDOF 11
ENDMDL