MODEL 2
REMARK VINA RESULT: -8.926716319      1.328      1.548
REMARK  8 active torsions:
REMARK  status: ('A' for Active; 'I' for Inactive)
REMARK    1  A    between atoms: O1_2  and  C2_3
REMARK       I    between atoms: C2_3  and  N1_5
REMARK    2  A    between atoms: N1_5  and  C3_7
REMARK    3  A    between atoms: C3_7  and  C5_9
REMARK    4  A    between atoms: C3_7  and  C6_16
REMARK    5  A    between atoms: C7_20  and  C8_21
REMARK    6  A    between atoms: N9_30  and  C11_32
REMARK    7  A    between atoms: C11_32  and  C12_33
REMARK    8  A    between atoms: C12_33  and  O4_34
ROOT
HETATM    1  C6  UNL     1      66.975  49.325  25.496  1.00  0.00     0.077 A
HETATM    2  N6  UNL     1      67.066  49.619  26.801  1.00  0.00    -0.261 N
ATOM      3  H6  UNL     1      67.230  48.941  27.545  1.00  0.00     0.194 HD
HETATM    4  O3  UNL     1      66.918  50.865  26.975  1.00  0.00    -0.233 OA
HETATM    5  C7  UNL     1      66.715  51.509  25.813  1.00  0.00     0.150 A
HETATM    6  C13 UNL     1      66.750  50.543  24.869  1.00  0.00     0.005 A
HETATM    7  C14 UNL     1      66.617  50.658  23.421  1.00  0.00     0.054 C
ENDROOT
BRANCH   5   8
HETATM    8  C8  UNL     1      66.503  52.973  25.719  1.00  0.00     0.146 A
HETATM    9  N7  UNL     1      65.291  53.331  25.209  1.00  0.00    -0.321 N
HETATM   10  C9  UNL     1      64.776  54.528  25.051  1.00  0.00     0.147 A
ATOM     11  H7  UNL     1      64.699  52.557  24.906  1.00  0.00     0.169 HD
HETATM   12  N8  UNL     1      63.588  54.731  24.546  1.00  0.00    -0.379 N
HETATM   13  S1  UNL     1      65.807  55.797  25.572  1.00  0.00    -0.018 SA
ATOM     14  H82 UNL     1      62.975  53.977  24.237  1.00  0.00     0.158 HD
ATOM     15  H81 UNL     1      63.188  55.661  24.424  1.00  0.00     0.158 HD
HETATM   16  C10 UNL     1      67.280  55.198  26.181  1.00  0.00     0.149 A
HETATM   17  N9  UNL     1      68.239  55.907  26.637  1.00  0.00    -0.368 N
HETATM   18  N10 UNL     1      67.408  53.845  26.161  1.00  0.00    -0.320 N
ATOM     19  H9  UNL     1      68.079  56.914  26.623  1.00  0.00     0.161 HD
ATOM     20  H10 UNL     1      68.283  53.460  26.520  1.00  0.00     0.169 HD
BRANCH  17  21
HETATM   21  C11 UNL     1      69.489  55.502  27.160  1.00  0.00     0.147 C
BRANCH  21  22
HETATM   22  C12 UNL     1      70.591  56.529  27.024  1.00  0.00     0.183 C
BRANCH  22  23
HETATM   23  O4  UNL     1      70.330  57.619  27.850  1.00  0.00    -0.399 OA
ATOM     24  H4  UNL     1      71.023  57.711  28.495  1.00  0.00     0.209 HD
ENDBRANCH  22  23
ENDBRANCH  21  22
ENDBRANCH  17  21
ENDBRANCH   5   8
BRANCH   1  25
HETATM   25  C3  UNL     1      67.113  47.966  24.956  1.00  0.00     0.136 C
HETATM   26  C4  UNL     1      68.561  47.937  24.382  1.00  0.00     0.054 C
BRANCH  25  27
HETATM   27  N1  UNL     1      66.253  47.831  23.800  1.00  0.00    -0.315 N
HETATM   28  C2  UNL     1      65.969  46.621  23.137  1.00  0.00     0.361 C
HETATM   29  O2  UNL     1      66.475  45.553  23.534  1.00  0.00    -0.238 OA
ATOM     30  H1  UNL     1      65.817  48.679  23.437  1.00  0.00     0.166 HD
BRANCH  28  31
HETATM   31  O1  UNL     1      65.134  46.542  22.033  1.00  0.00    -0.309 OA
HETATM   32  C1  UNL     1      64.811  45.299  21.485  1.00  0.00     0.215 C
ENDBRANCH  28  31
ENDBRANCH  25  27
BRANCH  25  33
HETATM   33  C5  UNL     1      66.962  46.875  25.911  1.00  0.00     0.142 A
HETATM   34  N2  UNL     1      65.842  46.529  26.561  1.00  0.00    -0.271 N
HETATM   35  N3  UNL     1      66.078  45.479  27.345  1.00  0.00    -0.007 NA
ATOM     36  H2  UNL     1      64.942  47.001  26.470  1.00  0.00     0.185 HD
HETATM   37  N4  UNL     1      67.353  45.173  27.176  1.00  0.00    -0.007 NA
HETATM   38  N5  UNL     1      67.898  46.013  26.310  1.00  0.00    -0.271 N
ATOM     39  H5  UNL     1      68.869  46.003  25.999  1.00  0.00     0.185 HD
ENDBRANCH  25  33
ENDBRANCH   1  25
TORSDOF 8
ENDMDL