MODEL 2
REMARK VINA RESULT: -7.699612838      2.686      4.532
REMARK  8 active torsions:
REMARK  status: ('A' for Active; 'I' for Inactive)
REMARK    1  A    between atoms: N2_3  and  S1_5
REMARK    2  A    between atoms: S1_5  and  N3_7
REMARK    3  A    between atoms: S1_5  and  C3_16
REMARK    4  A    between atoms: N3_7  and  N4_9
REMARK       I    between atoms: N4_9  and  C2_11
REMARK    5  A    between atoms: C4_19  and  S2_20
REMARK    6  A    between atoms: S2_20  and  C5_21
REMARK    7  A    between atoms: C5_21  and  C6_22
REMARK    8  A    between atoms: C10_34  and  N12_35
ROOT
HETATM    1  N1  UNL     1      64.892  46.128  21.100  1.00  0.00    -0.171 NA
HETATM    2  C1  UNL     1      65.211  45.922  22.194  1.00  0.00     0.191 C
HETATM    3  N2  UNL     1      65.609  45.668  23.532  1.00  0.00    -0.230 N
ATOM      4  H2  UNL     1      66.060  44.796  23.806  1.00  0.00     0.190 HD
ENDROOT
BRANCH   3   5
HETATM    5  S1  UNL     1      65.311  46.811  24.561  1.00  0.00     0.199 S
HETATM    6  O1  UNL     1      63.854  47.190  24.506  1.00  0.00    -0.218 OA
BRANCH   5   7
HETATM    7  N3  UNL     1      65.673  46.350  26.178  1.00  0.00    -0.234 N
ATOM      8  H3  UNL     1      64.999  46.052  26.882  1.00  0.00     0.199 HD
BRANCH   7   9
HETATM    9  N4  UNL     1      67.065  46.458  26.360  1.00  0.00    -0.265 N
HETATM   10  C2  UNL     1      67.962  45.453  25.917  1.00  0.00     0.201 C
HETATM   11  N5  UNL     1      67.957  44.321  26.517  1.00  0.00    -0.372 N
HETATM   12  N6  UNL     1      68.823  45.734  24.833  1.00  0.00    -0.062 NA
ATOM     13  H52 UNL     1      67.336  44.119  27.300  1.00  0.00     0.158 HD
ATOM     14  H51 UNL     1      68.602  43.599  26.198  1.00  0.00     0.158 HD
ATOM     15  H4  UNL     1      67.440  47.285  26.825  1.00  0.00     0.190 HD
ENDBRANCH   7   9
ENDBRANCH   5   7
BRANCH   5  16
HETATM   16  C3  UNL     1      66.230  48.246  24.179  1.00  0.00     0.220 A
HETATM   17  N7  UNL     1      65.915  49.433  24.723  1.00  0.00    -0.312 N
HETATM   18  C4  UNL     1      66.635  50.552  24.424  1.00  0.00     0.162 A
ATOM     19  H7  UNL     1      65.127  49.498  25.368  1.00  0.00     0.170 HD
HETATM   20  N11 UNL     1      67.677  50.422  23.561  1.00  0.00    -0.171 N
HETATM   21  C10 UNL     1      68.003  49.244  23.011  1.00  0.00     0.679 A
ATOM     22  H11 UNL     1      68.228  51.248  23.323  1.00  0.00     0.186 HD
HETATM   23  N13 UNL     1      67.267  48.152  23.329  1.00  0.00    -0.166 N
ATOM     24  H13 UNL     1      67.503  47.248  22.919  1.00  0.00     0.186 HD
BRANCH  18  25
HETATM   25  S2  UNL     1      66.273  52.147  25.104  1.00  0.00    -0.086 SA
BRANCH  25  26
HETATM   26  C5  UNL     1      67.128  52.442  26.669  1.00  0.00     0.160 C
BRANCH  26  27
HETATM   27  C6  UNL     1      67.531  51.167  27.298  1.00  0.00     0.110 A
HETATM   28  N8  UNL     1      66.769  50.568  28.235  1.00  0.00    -0.286 N
HETATM   29  N9  UNL     1      67.389  49.456  28.617  1.00  0.00    -0.278 N
ATOM     30  H8  UNL     1      65.875  50.908  28.589  1.00  0.00     0.188 HD
HETATM   31  C7  UNL     1      68.520  49.383  27.915  1.00  0.00     0.162 A
ATOM     32  H9  UNL     1      67.062  48.787  29.314  1.00  0.00     0.189 HD
HETATM   33  N10 UNL     1      68.663  50.414  27.082  1.00  0.00    -0.314 N
HETATM   34  S3  UNL     1      69.960  48.344  27.669  1.00  0.00    -0.091 SA
HETATM   35  C8  UNL     1      69.836  50.465  26.295  1.00  0.00     0.143 C
HETATM   36  C9  UNL     1      70.375  49.080  26.021  1.00  0.00     0.103 C
ENDBRANCH  26  27
ENDBRANCH  25  26
ENDBRANCH  18  25
BRANCH  21  37
HETATM   37  N12 UNL     1      68.996  49.172  22.201  1.00  0.00    -0.234 N
ATOM     38 2H12 UNL     1      69.368  50.002  21.738  1.00  0.00     0.174 HD
ATOM     39 1H12 UNL     1      69.429  48.269  22.009  1.00  0.00     0.174 HD
ENDBRANCH  21  37
ENDBRANCH   5  16
ENDBRANCH   3   5
TORSDOF 8
ENDMDL