MODEL 4
REMARK VINA RESULT: -8.538209269      4.243      7.371
REMARK  9 active torsions:
REMARK  status: ('A' for Active; 'I' for Inactive)
REMARK    1  A    between atoms: N1_2  and  C2_3
REMARK    2  A    between atoms: N1_2  and  N2_5
REMARK       I    between atoms: N2_5  and  C3_7
REMARK       I    between atoms: C3_7  and  N4_11
REMARK    3  A    between atoms: N4_11  and  O2_13
REMARK    4  A    between atoms: O2_13  and  C4_14
REMARK    5  A    between atoms: C4_14  and  C5_16
REMARK    6  A    between atoms: C8_19  and  N5_20
REMARK       I    between atoms: N5_20  and  C9_22
REMARK    7  A    between atoms: C9_22  and  C10_24
REMARK    8  A    between atoms: N6_26  and  C12_27
REMARK    9  A    between atoms: C13_33  and  N9_34
ROOT
HETATM    1  C5  UNL     1      73.012  52.947  26.782  1.00  0.00     0.041 A
HETATM    2  C6  UNL     1      73.907  53.826  27.344  1.00  0.00     0.020 A
HETATM    3  C7  UNL     1      73.738  55.218  27.248  1.00  0.00     0.030 A
HETATM    4  C8  UNL     1      72.664  55.742  26.584  1.00  0.00     0.035 A
HETATM    5  C14 UNL     1      71.753  54.824  26.013  1.00  0.00     0.030 A
HETATM    6  C15 UNL     1      71.927  53.469  26.112  1.00  0.00     0.020 A
ENDROOT
BRANCH   4   7
HETATM    7  N5  UNL     1      72.439  57.128  26.432  1.00  0.00    -0.322 N
HETATM    8  C9  UNL     1      71.635  57.949  27.233  1.00  0.00     0.275 C
HETATM    9  O4  UNL     1      70.989  57.580  28.218  1.00  0.00    -0.266 OA
ATOM     10  H5  UNL     1      72.914  57.582  25.652  1.00  0.00     0.169 HD
BRANCH   8  11
HETATM   11  C10 UNL     1      71.534  59.389  26.888  1.00  0.00     0.135 A
HETATM   12  C11 UNL     1      70.926  59.948  25.766  1.00  0.00     0.156 A
HETATM   13  N6  UNL     1      71.042  61.280  25.815  1.00  0.00    -0.229 N
HETATM   14  N10 UNL     1      71.697  61.544  26.922  1.00  0.00    -0.234 N
HETATM   15  N11 UNL     1      72.002  60.442  27.581  1.00  0.00    -0.279 N
ATOM     16  H10 UNL     1      71.939  62.484  27.234  1.00  0.00     0.209 HD
ATOM     17  H11 UNL     1      72.508  60.397  28.466  1.00  0.00     0.189 HD
BRANCH  13  18
HETATM   18  C12 UNL     1      70.563  62.217  24.873  1.00  0.00     0.195 A
HETATM   19  N7  UNL     1      69.255  62.587  24.751  1.00  0.00    -0.220 N
HETATM   20  O5  UNL     1      69.191  63.455  23.791  1.00  0.00    -0.153 OA
ATOM     21  H7  UNL     1      68.474  62.244  25.311  1.00  0.00     0.198 HD
HETATM   22  N8  UNL     1      70.349  63.682  23.278  1.00  0.00    -0.222 N
HETATM   23  C13 UNL     1      71.253  62.929  23.920  1.00  0.00     0.169 A
ATOM     24  H8  UNL     1      70.546  64.326  22.512  1.00  0.00     0.198 HD
BRANCH  23  25
HETATM   25  N9  UNL     1      72.528  62.849  23.722  1.00  0.00    -0.381 N
ATOM     26  H92 UNL     1      73.188  62.157  24.075  1.00  0.00     0.157 HD
ATOM     27  H91 UNL     1      73.070  63.503  23.157  1.00  0.00     0.157 HD
ENDBRANCH  23  25
ENDBRANCH  13  18
ENDBRANCH   8  11
ENDBRANCH   4   7
BRANCH   1  28
HETATM   28  C4  UNL     1      73.235  51.500  26.911  1.00  0.00     0.315 C
HETATM   29  O3  UNL     1      74.345  51.001  27.177  1.00  0.00    -0.257 OA
BRANCH  28  30
HETATM   30  O2  UNL     1      72.160  50.632  26.728  1.00  0.00    -0.180 OA
BRANCH  30  31
HETATM   31  N4  UNL     1      71.152  50.444  27.633  1.00  0.00    -0.087 N
HETATM   32  C3  UNL     1      70.973  49.152  28.183  1.00  0.00     0.710 C
HETATM   33  N2  UNL     1      69.776  48.834  28.863  1.00  0.00    -0.127 N
HETATM   34  N3  UNL     1      71.908  48.255  28.064  1.00  0.00    -0.232 N
ATOM     35  H2  UNL     1      69.794  48.577  29.850  1.00  0.00     0.206 HD
ATOM     36  H32 UNL     1      71.778  47.324  28.460  1.00  0.00     0.174 HD
ATOM     37  H31 UNL     1      72.772  48.484  27.573  1.00  0.00     0.174 HD
ATOM     38  H4  UNL     1      70.545  51.217  27.906  1.00  0.00     0.214 HD
BRANCH  33  39
HETATM   39  N1  UNL     1      68.571  48.875  28.166  1.00  0.00    -0.259 N
HETATM   40  C1  UNL     1      68.480  48.106  26.949  1.00  0.00     0.181 C
BRANCH  39  41
HETATM   41  C2  UNL     1      67.472  49.656  28.652  1.00  0.00     0.371 C
HETATM   42  O1  UNL     1      67.183  50.791  28.208  1.00  0.00    -0.282 OA
ENDBRANCH  39  41
ENDBRANCH  33  39
ENDBRANCH  30  31
ENDBRANCH  28  30
ENDBRANCH   1  28
TORSDOF 9
ENDMDL