MODEL 3
REMARK VINA RESULT: -8.626655346      3.885     10.784
REMARK  11 active torsions:
REMARK  status: ('A' for Active; 'I' for Inactive)
REMARK    1  A    between atoms: O1_2  and  C2_3
REMARK    2  A    between atoms: C5_6  and  C6_7
REMARK    3  A    between atoms: C6_7  and  C7_8
REMARK    4  A    between atoms: C8_9  and  O2_10
REMARK    5  A    between atoms: C9_12  and  O3_13
REMARK    6  A    between atoms: C10_15  and  C11_16
REMARK    7  A    between atoms: C14_20  and  O4_21
REMARK    8  A    between atoms: O4_21  and  C15_22
REMARK    9  A    between atoms: C15_22  and  C16_23
REMARK   10  A    between atoms: C19_29  and  O5_30
REMARK   11  A    between atoms: C33_48  and  O8_49
ROOT
HETATM    1  C7  UNL     1      40.114 -19.847  28.380  1.00  0.00     0.119 C
HETATM    2  C8  UNL     1      40.910 -20.909  29.083  1.00  0.00     0.170 C
HETATM    3  C9  UNL     1      40.225 -22.201  29.301  1.00  0.00     0.162 C
HETATM    4  C10 UNL     1      40.439 -23.079  28.068  1.00  0.00     0.088 C
HETATM    5  C22 UNL     1      39.291 -22.827  27.218  1.00  0.00     0.021 A
HETATM    6  C23 UNL     1      38.916 -21.532  26.832  1.00  0.00     0.041 A
HETATM    7  C24 UNL     1      37.840 -21.341  26.009  1.00  0.00     0.048 A
HETATM    8  C25 UNL     1      37.129 -22.447  25.567  1.00  0.00     0.051 A
HETATM    9  C26 UNL     1      37.495 -23.714  25.947  1.00  0.00     0.123 A
HETATM   10  C27 UNL     1      38.601 -23.921  26.791  1.00  0.00     0.160 A
HETATM   11  F2  UNL     1      38.896 -25.216  27.131  1.00  0.00    -0.202 F
HETATM   12  O6  UNL     1      36.636 -24.612  25.378  1.00  0.00    -0.334 OA
HETATM   13  C28 UNL     1      35.986 -24.022  24.271  1.00  0.00     0.199 C
HETATM   14  C29 UNL     1      34.577 -24.543  24.109  1.00  0.00     0.048 C
HETATM   15  C30 UNL     1      35.955 -22.583  24.697  1.00  0.00     0.191 C
HETATM   16  O7  UNL     1      35.164 -21.673  24.422  1.00  0.00    -0.289 OA
HETATM   17  N2  UNL     1      39.490 -20.251  27.176  1.00  0.00    -0.377 N
HETATM   18  C31 UNL     1      39.392 -19.309  26.073  1.00  0.00     0.150 C
ENDROOT
BRANCH   4  19
HETATM   19  C11 UNL     1      40.951 -24.377  28.363  1.00  0.00    -0.041 A
HETATM   20  C12 UNL     1      40.604 -25.021  29.532  1.00  0.00     0.053 A
HETATM   21  C13 UNL     1      41.126 -26.254  29.847  1.00  0.00     0.153 A
HETATM   22  F1  UNL     1      40.737 -26.843  31.030  1.00  0.00    -0.203 F
HETATM   23  C14 UNL     1      42.013 -26.889  29.007  1.00  0.00     0.141 A
HETATM   24  C19 UNL     1      42.359 -26.233  27.829  1.00  0.00     0.105 A
HETATM   25  C21 UNL     1      41.837 -25.003  27.519  1.00  0.00     0.047 A
BRANCH  23  26
HETATM   26  O4  UNL     1      42.514 -28.128  29.362  1.00  0.00    -0.339 OA
BRANCH  26  27
HETATM   27  C15 UNL     1      43.807 -28.313  29.905  1.00  0.00     0.240 C
BRANCH  27  28
HETATM   28  C16 UNL     1      43.894 -29.664  30.573  1.00  0.00     0.075 A
HETATM   29  N1  UNL     1      43.143 -30.732  30.360  1.00  0.00    -0.361 N
HETATM   30  C17 UNL     1      43.358 -31.819  31.030  1.00  0.00     0.096 A
ATOM     31  H1  UNL     1      42.393 -30.698  29.669  1.00  0.00     0.165 HD
HETATM   32  C18 UNL     1      44.382 -31.803  31.950  1.00  0.00     0.068 A
HETATM   33  S1  UNL     1      44.967 -30.207  31.780  1.00  0.00    -0.085 SA
ENDBRANCH  27  28
ENDBRANCH  26  27
ENDBRANCH  23  26
BRANCH  24  34
HETATM   34  O5  UNL     1      43.263 -26.870  26.965  1.00  0.00    -0.353 OA
HETATM   35  C20 UNL     1      42.722 -27.580  25.872  1.00  0.00     0.210 C
ENDBRANCH  24  34
ENDBRANCH   4  19
BRANCH   3  36
HETATM   36  O3  UNL     1      38.858 -22.112  29.530  1.00  0.00    -0.392 OA
ATOM     37  H3  UNL     1      38.438 -22.927  29.781  1.00  0.00     0.210 HD
ENDBRANCH   3  36
BRANCH   2  38
HETATM   38  O2  UNL     1      41.371 -20.375  30.280  1.00  0.00    -0.391 OA
ATOM     39  H2  UNL     1      41.402 -21.077  30.919  1.00  0.00     0.210 HD
ENDBRANCH   2  38
BRANCH   1  40
HETATM   40  C6  UNL     1      39.333 -19.117  29.401  1.00  0.00     0.066 C
BRANCH  40  41
HETATM   41  C5  UNL     1      38.666 -17.869  28.996  1.00  0.00    -0.053 A
HETATM   42  C4  UNL     1      37.444 -17.524  29.530  1.00  0.00     0.010 A
HETATM   43  C3  UNL     1      36.785 -16.377  29.143  1.00  0.00     0.040 A
HETATM   44  C2  UNL     1      37.354 -15.547  28.199  1.00  0.00     0.101 A
HETATM   45  C33 UNL     1      38.567 -15.859  27.646  1.00  0.00     0.102 A
HETATM   46  C32 UNL     1      39.207 -17.020  28.054  1.00  0.00     0.046 A
BRANCH  44  47
HETATM   47  O1  UNL     1      36.708 -14.379  27.789  1.00  0.00    -0.353 OA
HETATM   48  C1  UNL     1      35.858 -13.719  28.688  1.00  0.00     0.210 C
ENDBRANCH  44  47
BRANCH  45  49
HETATM   49  O8  UNL     1      39.098 -14.993  26.701  1.00  0.00    -0.353 OA
HETATM   50  C34 UNL     1      39.407 -15.526  25.425  1.00  0.00     0.210 C
ENDBRANCH  45  49
ENDBRANCH  40  41
ENDBRANCH   1  40
TORSDOF 11
ENDMDL