MODEL 3
REMARK VINA RESULT: -7.998492008      1.576      1.807
REMARK  14 active torsions:
REMARK  status: ('A' for Active; 'I' for Inactive)
REMARK    1  A    between atoms: C2_2  and  C4_4
REMARK    2  A    between atoms: C14_17  and  O4_18
REMARK    3  A    between atoms: O4_18  and  C15_19
REMARK    4  A    between atoms: C15_19  and  C16_21
REMARK    5  A    between atoms: C16_21  and  C17_22
REMARK    6  A    between atoms: C16_21  and  N1_24
REMARK    7  A    between atoms: N1_24  and  N2_26
REMARK    8  A    between atoms: N2_26  and  N3_27
REMARK    9  A    between atoms: C22_34  and  O6_35
REMARK   10  A    between atoms: C23_37  and  O7_38
REMARK   11  A    between atoms: O7_38  and  C24_39
REMARK   12  A    between atoms: C24_39  and  O8_40
REMARK   13  A    between atoms: C24_39  and  C25_43
REMARK   14  A    between atoms: O8_40  and  O9_41
ROOT
HETATM    1  C4  UNL     1      37.224 -21.384  22.485  1.00  0.00    -0.003 C
HETATM    2  C5  UNL     1      35.863 -20.776  22.100  1.00  0.00     0.008 C
HETATM    3  C6  UNL     1      35.652 -19.611  23.087  1.00  0.00     0.038 C
HETATM    4  C7  UNL     1      37.041 -19.300  23.432  1.00  0.00     0.063 C
HETATM    5  C8  UNL     1      37.756 -18.752  22.234  1.00  0.00     0.046 C
HETATM    6  O1  UNL     1      37.364 -18.730  24.610  1.00  0.00    -0.369 OA
HETATM    7  C9  UNL     1      38.745 -19.053  24.689  1.00  0.00     0.194 C
HETATM    8  C10 UNL     1      38.898 -20.429  24.154  1.00  0.00     0.051 C
HETATM    9  C11 UNL     1      39.292 -21.441  25.169  1.00  0.00    -0.003 C
HETATM   10  C12 UNL     1      38.943 -21.582  26.480  1.00  0.00     0.045 C
HETATM   11  C13 UNL     1      38.036 -20.670  27.110  1.00  0.00     0.294 C
HETATM   12  O2  UNL     1      36.959 -20.857  27.721  1.00  0.00    -0.259 OA
HETATM   13  O3  UNL     1      38.333 -19.242  27.088  1.00  0.00    -0.276 OA
HETATM   14  C14 UNL     1      39.203 -18.701  26.062  1.00  0.00     0.208 C
HETATM   15  C18 UNL     1      40.649 -19.075  26.293  1.00  0.00     0.073 C
HETATM   16  C19 UNL     1      40.992 -19.837  27.490  1.00  0.00     0.012 C
HETATM   17  C20 UNL     1      41.718 -21.107  27.440  1.00  0.00     0.013 C
HETATM   18  C21 UNL     1      43.136 -20.811  26.878  1.00  0.00     0.012 C
HETATM   19  C22 UNL     1      41.272 -22.328  26.825  1.00  0.00     0.155 C
HETATM   20  C23 UNL     1      39.777 -22.693  26.949  1.00  0.00     0.193 C
HETATM   21  C31 UNL     1      37.509 -20.743  23.752  1.00  0.00     0.034 C
ENDROOT
BRANCH  14  22
HETATM   22  O4  UNL     1      39.028 -17.302  26.146  1.00  0.00    -0.278 OA
BRANCH  22  23
HETATM   23  C15 UNL     1      38.981 -16.546  27.283  1.00  0.00     0.288 C
HETATM   24  O5  UNL     1      40.074 -16.416  27.915  1.00  0.00    -0.263 OA
BRANCH  23  25
HETATM   25  C16 UNL     1      37.755 -15.893  27.791  1.00  0.00     0.227 C
BRANCH  25  26
HETATM   26  C17 UNL     1      37.664 -15.844  29.276  1.00  0.00     0.152 C
HETATM   27 CL1  UNL     1      37.446 -17.495  29.895  1.00  0.00    -0.128 Cl
ENDBRANCH  25  26
BRANCH  25  28
HETATM   28  N1  UNL     1      37.551 -14.606  27.157  1.00  0.00    -0.237 N
ATOM     29  H1  UNL     1      38.126 -14.374  26.347  1.00  0.00     0.198 HD
BRANCH  28  30
HETATM   30  N2  UNL     1      36.738 -13.788  27.532  1.00  0.00    -0.248 NA
BRANCH  30  31
HETATM   31  N3  UNL     1      35.922 -13.003  27.972  1.00  0.00    -0.261 N
ATOM     32  H32 UNL     1      35.791 -13.877  28.481  1.00  0.00     0.193 HD
ATOM     33  H31 UNL     1      35.258 -12.302  28.302  1.00  0.00     0.193 HD
ENDBRANCH  30  31
ENDBRANCH  28  30
ENDBRANCH  25  28
ENDBRANCH  23  25
ENDBRANCH  22  23
ENDBRANCH  14  22
BRANCH   1  34
HETATM   34  C2  UNL     1      37.043 -22.881  22.509  1.00  0.00    -0.018 C
HETATM   35  C1  UNL     1      36.057 -23.405  21.517  1.00  0.00     0.010 C
HETATM   36  C3  UNL     1      38.407 -23.481  22.140  1.00  0.00     0.010 C
ENDBRANCH   1  34
BRANCH  20  37
HETATM   37  O7  UNL     1      39.592 -23.704  25.996  1.00  0.00    -0.342 OA
BRANCH  37  38
HETATM   38  C24 UNL     1      38.942 -24.820  26.460  1.00  0.00     0.331 C
BRANCH  38  39
HETATM   39  O8  UNL     1      38.868 -24.737  27.846  1.00  0.00    -0.205 OA
BRANCH  39  40
HETATM   40  O9  UNL     1      39.257 -25.850  28.377  1.00  0.00    -0.248 OA
ATOM     41  H9  UNL     1      38.549 -26.236  28.880  1.00  0.00     0.253 HD
ENDBRANCH  39  40
ENDBRANCH  38  39
BRANCH  38  42
HETATM   42  C25 UNL     1      37.625 -25.061  25.858  1.00  0.00     0.001 A
HETATM   43  C26 UNL     1      36.706 -24.034  25.826  1.00  0.00     0.012 A
HETATM   44  C27 UNL     1      35.437 -24.185  25.275  1.00  0.00     0.002 A
HETATM   45  C28 UNL     1      35.090 -25.406  24.745  1.00  0.00     0.024 A
HETATM   46  C29 UNL     1      35.989 -26.447  24.763  1.00  0.00     0.034 A
HETATM   47 CL2  UNL     1      35.522 -27.978  24.085  1.00  0.00    -0.084 Cl
HETATM   48  C30 UNL     1      37.240 -26.275  25.313  1.00  0.00     0.036 A
ENDBRANCH  38  42
ENDBRANCH  37  38
ENDBRANCH  20  37
BRANCH  19  49
HETATM   49  O6  UNL     1      41.919 -23.422  27.489  1.00  0.00    -0.392 OA
ATOM     50  H6  UNL     1      41.291 -23.821  28.079  1.00  0.00     0.210 HD
ENDBRANCH  19  49
TORSDOF 14
ENDMDL