MODEL 4
REMARK VINA RESULT: -8.292608608      3.096      5.901
REMARK  9 active torsions:
REMARK  status: ('A' for Active; 'I' for Inactive)
REMARK    1  A    between atoms: C9_13  and  S1_14
REMARK    2  A    between atoms: C12_22  and  N2_23
REMARK    3  A    between atoms: N2_23  and  S2_25
REMARK    4  A    between atoms: S2_25  and  O8_28
REMARK    5  A    between atoms: O8_28  and  C13_29
REMARK    6  A    between atoms: C13_29  and  C14_30
REMARK    7  A    between atoms: C14_30  and  C15_31
REMARK    8  A    between atoms: C15_31  and  C16_32
REMARK    9  A    between atoms: C16_32  and  C17_33
ROOT
HETATM    1  C1  UNL     1      35.630 -18.898  21.809  1.00  0.00     0.049 C
HETATM    2  C2  UNL     1      36.000 -19.903  22.832  1.00  0.00    -0.042 A
HETATM    3  C3  UNL     1      35.839 -21.260  22.673  1.00  0.00     0.090 A
HETATM    4  C4  UNL     1      36.219 -22.104  23.694  1.00  0.00     0.288 A
HETATM    5  O1  UNL     1      36.052 -23.334  23.500  1.00  0.00    -0.260 OA
HETATM    6  O2  UNL     1      36.728 -21.670  24.817  1.00  0.00    -0.274 OA
HETATM    7  C5  UNL     1      36.904 -20.389  25.025  1.00  0.00     0.106 A
HETATM    8  C6  UNL     1      36.547 -19.475  24.047  1.00  0.00     0.020 A
HETATM    9  C7  UNL     1      36.748 -18.132  24.283  1.00  0.00     0.103 A
HETATM   10  N1  UNL     1      37.279 -17.732  25.445  1.00  0.00    -0.363 N
ATOM     11  H1  UNL     1      37.425 -16.737  25.614  1.00  0.00     0.165 HD
HETATM   12  C8  UNL     1      37.620 -18.617  26.388  1.00  0.00     0.074 A
HETATM   13  C9  UNL     1      38.186 -18.119  27.549  1.00  0.00     0.133 A
HETATM   14  C10 UNL     1      38.572 -18.995  28.529  1.00  0.00     0.101 A
HETATM   15 CL1  UNL     1      39.301 -18.391  30.025  1.00  0.00    -0.079 Cl
HETATM   16  C11 UNL     1      38.401 -20.353  28.372  1.00  0.00     0.168 A
HETATM   17  F1  UNL     1      38.828 -21.163  29.390  1.00  0.00    -0.202 F
HETATM   18  C12 UNL     1      37.831 -20.879  27.213  1.00  0.00     0.100 A
HETATM   19  C28 UNL     1      37.452 -20.000  26.237  1.00  0.00     0.058 A
ENDROOT
BRANCH  18  20
HETATM   20  N2  UNL     1      37.604 -22.243  27.105  1.00  0.00    -0.258 N
ATOM     21  H2  UNL     1      36.645 -22.577  27.212  1.00  0.00     0.181 HD
BRANCH  20  22
HETATM   22  S2  UNL     1      38.866 -23.441  26.795  1.00  0.00     0.363 S
HETATM   23  O6  UNL     1      38.180 -24.646  26.234  1.00  0.00    -0.175 OA
HETATM   24  O7  UNL     1      39.677 -22.810  25.668  1.00  0.00    -0.175 OA
BRANCH  22  25
HETATM   25  O8  UNL     1      39.642 -23.633  28.169  1.00  0.00    -0.248 OA
BRANCH  25  26
HETATM   26  C13 UNL     1      40.797 -24.293  28.393  1.00  0.00     0.082 C
HETATM   27  C22 UNL     1      41.524 -24.516  27.067  1.00  0.00     0.039 C
HETATM   28  C23 UNL     1      42.279 -25.766  26.930  1.00  0.00     0.003 C
HETATM   29  C24 UNL     1      41.548 -27.006  27.386  1.00  0.00     0.004 C
HETATM   30  C25 UNL     1      41.256 -26.746  28.870  1.00  0.00    -0.016 C
HETATM   31  C26 UNL     1      40.600 -27.981  29.460  1.00  0.00     0.010 C
HETATM   32  C27 UNL     1      40.260 -25.657  28.912  1.00  0.00     0.044 C
BRANCH  26  33
HETATM   33  C14 UNL     1      41.717 -23.818  29.438  1.00  0.00     0.045 C
BRANCH  33  34
HETATM   34  C15 UNL     1      41.769 -22.400  29.825  1.00  0.00     0.072 C
BRANCH  34  35
HETATM   35  C16 UNL     1      43.202 -21.885  29.646  1.00  0.00     0.167 C
HETATM   36  O9  UNL     1      44.124 -22.904  29.650  1.00  0.00    -0.353 OA
HETATM   37  C20 UNL     1      44.425 -23.165  30.992  1.00  0.00     0.197 C
HETATM   38  C21 UNL     1      43.972 -21.953  31.744  1.00  0.00     0.197 C
HETATM   39  O10 UNL     1      43.484 -21.115  30.775  1.00  0.00    -0.353 OA
BRANCH  35  40
HETATM   40  C17 UNL     1      43.380 -21.016  28.448  1.00  0.00     0.040 C
HETATM   41  C18 UNL     1      43.999 -21.805  27.295  1.00  0.00     0.015 C
HETATM   42  C19 UNL     1      41.960 -20.681  27.960  1.00  0.00     0.015 C
ENDBRANCH  35  40
ENDBRANCH  34  35
ENDBRANCH  33  34
ENDBRANCH  26  33
ENDBRANCH  25  26
ENDBRANCH  22  25
ENDBRANCH  20  22
ENDBRANCH  18  20
BRANCH  13  43
HETATM   43  S1  UNL     1      38.412 -16.398  27.772  1.00  0.00     0.141 S
HETATM   44  O3  UNL     1      39.837 -16.027  27.603  1.00  0.00    -0.591 OA
HETATM   45  O4  UNL     1      37.597 -15.610  26.773  1.00  0.00    -0.591 OA
HETATM   46  O5  UNL     1      37.858 -15.922  29.303  1.00  0.00    -0.591 OA
ENDBRANCH  13  43
TORSDOF 9
ENDMDL