MODEL 5
REMARK VINA RESULT: -8.212290863      3.924      7.311
REMARK  11 active torsions:
REMARK  status: ('A' for Active; 'I' for Inactive)
REMARK    1  A    between atoms: O1_1  and  C1_3
REMARK    2  A    between atoms: C3_5  and  C4_6
REMARK    3  A    between atoms: C10_14  and  C11_15
REMARK    4  A    between atoms: C11_15  and  O2_16
REMARK    5  A    between atoms: C11_15  and  C12_19
REMARK    6  A    between atoms: C12_19  and  N2_20
REMARK    7  A    between atoms: N3_23  and  C15_24
REMARK    8  A    between atoms: C15_24  and  C16_25
REMARK    9  A    between atoms: C16_25  and  C17_26
REMARK   10  A    between atoms: C17_26  and  N4_27
REMARK   11  A    between atoms: N5_30  and  C20_31
ROOT
HETATM    1  N2  UNL     1      39.983 -25.346  26.537  1.00  0.00    -0.347 N
HETATM    2  C13 UNL     1      39.168 -26.431  26.209  1.00  0.00     0.098 C
HETATM    3  C14 UNL     1      37.717 -25.987  26.302  1.00  0.00     0.318 C
HETATM    4  N3  UNL     1      37.461 -24.867  25.423  1.00  0.00     0.097 N
HETATM    5  C28 UNL     1      38.670 -24.384  24.792  1.00  0.00     0.318 C
HETATM    6  C29 UNL     1      39.813 -24.217  25.742  1.00  0.00     0.098 C
ENDROOT
BRANCH   4   7
HETATM    7  C15 UNL     1      36.580 -25.282  24.350  1.00  0.00     0.275 C
BRANCH   7   8
HETATM    8  C16 UNL     1      35.539 -24.271  24.004  1.00  0.00     0.050 C
BRANCH   8   9
HETATM    9  C17 UNL     1      35.817 -23.738  22.617  1.00  0.00     0.129 C
BRANCH   9  10
HETATM   10  N4  UNL     1      36.069 -22.354  22.527  1.00  0.00    -0.371 N
HETATM   11  C18 UNL     1      37.386 -21.954  22.299  1.00  0.00     0.083 C
HETATM   12  C19 UNL     1      37.935 -20.902  23.187  1.00  0.00     0.169 C
HETATM   13  N5  UNL     1      36.940 -20.183  23.914  1.00  0.00    -0.357 N
HETATM   14  C26 UNL     1      35.585 -20.115  23.440  1.00  0.00     0.169 C
HETATM   15  C27 UNL     1      35.107 -21.468  23.036  1.00  0.00     0.083 C
BRANCH  13  16
HETATM   16  C20 UNL     1      37.275 -19.445  25.128  1.00  0.00     0.120 A
HETATM   17  C21 UNL     1      36.868 -19.887  26.364  1.00  0.00     0.137 A
HETATM   18  N6  UNL     1      37.177 -19.124  27.425  1.00  0.00    -0.355 N
HETATM   19  C22 UNL     1      37.872 -17.945  27.293  1.00  0.00     0.102 A
ATOM     20  H6  UNL     1      36.888 -19.428  28.355  1.00  0.00     0.166 HD
HETATM   21  S1  UNL     1      38.429 -16.732  28.352  1.00  0.00    -0.080 SA
HETATM   22  C25 UNL     1      38.278 -17.504  26.070  1.00  0.00     0.090 A
HETATM   23  C23 UNL     1      39.162 -15.689  27.222  1.00  0.00     0.078 A
HETATM   24  C24 UNL     1      38.955 -16.320  26.032  1.00  0.00     0.070 A
HETATM   25 CL1  UNL     1      39.571 -15.567  24.527  1.00  0.00    -0.081 Cl
HETATM   26  N7  UNL     1      37.951 -18.298  25.004  1.00  0.00    -0.338 N
ATOM     27  H7  UNL     1      38.237 -18.000  24.071  1.00  0.00     0.167 HD
ENDBRANCH  13  16
ENDBRANCH   9  10
ENDBRANCH   8   9
ENDBRANCH   7   8
ENDBRANCH   4   7
BRANCH   1  28
HETATM   28  C12 UNL     1      41.050 -25.478  27.419  1.00  0.00     0.124 C
BRANCH  28  29
HETATM   29  C11 UNL     1      40.805 -25.241  28.877  1.00  0.00     0.191 C
HETATM   30 BR1  UNL     1      42.145 -26.192  29.905  1.00  0.00    -0.041 Br
BRANCH  29  31
HETATM   31  C10 UNL     1      40.907 -23.791  29.186  1.00  0.00     0.063 A
HETATM   32  N1  UNL     1      42.045 -23.188  29.583  1.00  0.00    -0.359 N
HETATM   33  C3  UNL     1      42.102 -21.879  29.862  1.00  0.00     0.016 A
ATOM     34  H1  UNL     1      42.893 -23.749  29.674  1.00  0.00     0.165 HD
HETATM   35  C2  UNL     1      40.957 -21.111  29.739  1.00  0.00     0.061 A
HETATM   36  C1  UNL     1      39.761 -21.677  29.334  1.00  0.00     0.069 A
HETATM   37  C30 UNL     1      39.763 -23.029  29.062  1.00  0.00     0.066 A
BRANCH  33  38
HETATM   38  C4  UNL     1      43.380 -21.231  30.308  1.00  0.00     0.036 C
HETATM   39  C5  UNL     1      44.333 -21.116  29.117  1.00  0.00     0.011 C
HETATM   40  C6  UNL     1      45.633 -20.573  29.623  1.00  0.00     0.001 C
HETATM   41  C7  UNL     1      45.599 -20.186  31.082  1.00  0.00     0.000 C
HETATM   42  C8  UNL     1      45.224 -21.340  31.961  1.00  0.00     0.001 C
HETATM   43  C9  UNL     1      44.070 -22.069  31.352  1.00  0.00     0.011 C
ENDBRANCH  33  38
BRANCH  36  44
HETATM   44  O1  UNL     1      38.603 -20.935  29.202  1.00  0.00    -0.361 OA
ATOM     45  H1  UNL     1      38.249 -20.696  28.354  1.00  0.00     0.217 HD
ENDBRANCH  36  44
ENDBRANCH  29  31
BRANCH  29  46
HETATM   46  O2  UNL     1      39.575 -25.682  29.315  1.00  0.00    -0.369 OA
ATOM     47  H2  UNL     1      39.655 -25.906  30.235  1.00  0.00     0.212 HD
ENDBRANCH  29  46
ENDBRANCH  28  29
ENDBRANCH   1  28
TORSDOF 11
ENDMDL