MODEL 3
REMARK VINA RESULT: -9.237699095      0.422      1.959
REMARK  11 active torsions:
REMARK  status: ('A' for Active; 'I' for Inactive)
REMARK    1  A    between atoms: O1_2  and  C2_3
REMARK    2  A    between atoms: C4_5  and  C5_6
REMARK    3  A    between atoms: C5_6  and  C6_8
REMARK    4  A    between atoms: N1_12  and  N2_13
REMARK    5  A    between atoms: N2_13  and  C8_14
REMARK    6  A    between atoms: C16_28  and  C17_29
REMARK    7  A    between atoms: C19_31  and  O4_32
REMARK    8  A    between atoms: C21_34  and  O5_35
REMARK    9  A    between atoms: C23_37  and  O6_38
REMARK   10  A    between atoms: C27_42  and  O7_43
REMARK   11  A    between atoms: C29_45  and  O8_46
ROOT
HETATM    1  C6  UNL     1      38.375 -20.770  28.493  1.00  0.00     0.241 A
HETATM    2  O3  UNL     1      38.840 -22.010  28.942  1.00  0.00    -0.307 OA
HETATM    3  C7  UNL     1      39.974 -22.359  29.547  1.00  0.00     0.247 A
HETATM    4  S1  UNL     1      40.458 -23.851  29.949  1.00  0.00    -0.030 SA
HETATM    5  N1  UNL     1      40.893 -21.281  29.891  1.00  0.00    -0.165 N
HETATM    6  C15 UNL     1      40.429 -19.974  29.508  1.00  0.00     0.145 A
HETATM    7  C16 UNL     1      39.321 -19.682  28.893  1.00  0.00     0.008 A
ENDROOT
BRANCH   1   8
HETATM    8  C5  UNL     1      38.546 -20.855  26.979  1.00  0.00     0.193 C
HETATM    9  O2  UNL     1      39.691 -20.531  26.512  1.00  0.00    -0.289 OA
BRANCH   8  10
HETATM   10  C4  UNL     1      37.532 -21.274  26.052  1.00  0.00     0.018 A
HETATM   11  C3  UNL     1      36.994 -22.570  26.140  1.00  0.00     0.055 A
HETATM   12  C2  UNL     1      35.991 -23.039  25.351  1.00  0.00     0.105 A
HETATM   13  C29 UNL     1      35.452 -22.184  24.387  1.00  0.00     0.135 A
HETATM   14  C27 UNL     1      35.932 -20.904  24.248  1.00  0.00     0.105 A
HETATM   15  C26 UNL     1      36.951 -20.491  25.079  1.00  0.00     0.055 A
BRANCH  12  16
HETATM   16  O1  UNL     1      35.480 -24.334  25.467  1.00  0.00    -0.353 OA
HETATM   17  C1  UNL     1      36.342 -25.399  25.114  1.00  0.00     0.210 C
ENDBRANCH  12  16
BRANCH  13  18
HETATM   18  O8  UNL     1      34.433 -22.632  23.574  1.00  0.00    -0.351 OA
HETATM   19  C30 UNL     1      34.561 -23.459  22.460  1.00  0.00     0.210 C
ENDBRANCH  13  18
BRANCH  14  20
HETATM   20  O7  UNL     1      35.389 -20.045  23.282  1.00  0.00    -0.353 OA
HETATM   21  C28 UNL     1      35.922 -18.765  23.039  1.00  0.00     0.210 C
ENDBRANCH  14  20
ENDBRANCH   8  10
ENDBRANCH   1   8
BRANCH   7  22
HETATM   22  C17 UNL     1      39.028 -18.273  28.566  1.00  0.00    -0.020 A
HETATM   23  C18 UNL     1      39.680 -17.624  27.559  1.00  0.00     0.052 A
HETATM   24  C19 UNL     1      39.496 -16.267  27.271  1.00  0.00     0.105 A
HETATM   25  C21 UNL     1      38.605 -15.577  28.061  1.00  0.00     0.135 A
HETATM   26  C23 UNL     1      37.917 -16.195  29.097  1.00  0.00     0.105 A
HETATM   27  C25 UNL     1      38.152 -17.544  29.324  1.00  0.00     0.052 A
BRANCH  24  28
HETATM   28  O4  UNL     1      40.165 -15.624  26.246  1.00  0.00    -0.353 OA
HETATM   29  C20 UNL     1      39.694 -15.810  24.926  1.00  0.00     0.210 C
ENDBRANCH  24  28
BRANCH  25  30
HETATM   30  O5  UNL     1      38.395 -14.246  27.812  1.00  0.00    -0.351 OA
HETATM   31  C22 UNL     1      37.182 -13.862  27.194  1.00  0.00     0.210 C
ENDBRANCH  25  30
BRANCH  26  32
HETATM   32  O6  UNL     1      37.048 -15.437  29.838  1.00  0.00    -0.353 OA
HETATM   33  C24 UNL     1      35.669 -15.692  29.794  1.00  0.00     0.210 C
ENDBRANCH  26  32
ENDBRANCH   7  22
BRANCH   5  34
HETATM   34  N2  UNL     1      42.034 -21.445  30.482  1.00  0.00    -0.278 NA
BRANCH  34  35
HETATM   35  C8  UNL     1      43.130 -21.541  30.879  1.00  0.00     0.283 A
HETATM   36  N3  UNL     1      43.525 -22.180  32.025  1.00  0.00    -0.313 N
HETATM   37  C9  UNL     1      44.843 -22.073  32.154  1.00  0.00     0.064 A
ATOM     38  H3  UNL     1      42.905 -22.661  32.677  1.00  0.00     0.170 HD
HETATM   39  C10 UNL     1      45.754 -22.521  33.105  1.00  0.00     0.057 A
HETATM   40  C14 UNL     1      45.319 -21.367  31.093  1.00  0.00     0.064 A
HETATM   41  C11 UNL     1      47.090 -22.235  32.944  1.00  0.00     0.058 A
HETATM   42 CL1  UNL     1      48.262 -22.782  34.128  1.00  0.00    -0.082 Cl
HETATM   43  C12 UNL     1      47.574 -21.522  31.876  1.00  0.00     0.058 A
HETATM   44 CL2  UNL     1      49.279 -21.168  31.686  1.00  0.00    -0.082 Cl
HETATM   45  C13 UNL     1      46.671 -21.083  30.940  1.00  0.00     0.057 A
HETATM   46  N4  UNL     1      44.276 -21.056  30.338  1.00  0.00    -0.313 N
ATOM     47  H4  UNL     1      44.327 -20.524  29.469  1.00  0.00     0.170 HD
ENDBRANCH  34  35
ENDBRANCH   5  34
TORSDOF 11
ENDMDL