MODEL 1
REMARK VINA RESULT: -7.826724917      0.000      0.000
REMARK  10 active torsions:
REMARK  status: ('A' for Active; 'I' for Inactive)
REMARK    1  A    between atoms: O1_2  and  C2_3
REMARK    2  A    between atoms: C7_9  and  O2_10
REMARK    3  A    between atoms: C12_18  and  C13_19
REMARK    4  A    between atoms: C16_23  and  O4_24
REMARK    5  A    between atoms: O4_24  and  C17_25
REMARK    6  A    between atoms: C17_25  and  C18_26
REMARK    7  A    between atoms: C18_26  and  C19_27
REMARK    8  A    between atoms: C19_27  and  N2_28
REMARK    9  A    between atoms: N2_28  and  C21_30
REMARK   10  A    between atoms: C29_43  and  O5_44
ROOT
HETATM    1  C13 UNL     1      40.227 -22.863  26.153  1.00  0.00    -0.041 A
HETATM    2  C14 UNL     1      39.276 -22.243  26.925  1.00  0.00     0.030 A
HETATM    3  C15 UNL     1      38.275 -21.550  26.264  1.00  0.00     0.047 A
HETATM    4 BR1  UNL     1      36.931 -20.671  27.291  1.00  0.00    -0.048 Br
HETATM    5  C16 UNL     1      38.182 -21.448  24.894  1.00  0.00     0.119 A
HETATM    6  C29 UNL     1      39.152 -22.081  24.138  1.00  0.00     0.103 A
HETATM    7  C31 UNL     1      40.175 -22.788  24.783  1.00  0.00     0.048 A
ENDROOT
BRANCH   5   8
HETATM    8  O4  UNL     1      37.190 -20.760  24.250  1.00  0.00    -0.347 OA
BRANCH   8   9
HETATM    9  C17 UNL     1      37.397 -19.561  23.510  1.00  0.00     0.177 C
BRANCH   9  10
HETATM   10  C18 UNL     1      37.610 -18.390  24.429  1.00  0.00     0.046 C
BRANCH  10  11
HETATM   11  C19 UNL     1      38.935 -17.735  24.365  1.00  0.00     0.126 C
BRANCH  11  12
HETATM   12  N2  UNL     1      39.171 -16.619  25.210  1.00  0.00    -0.371 N
HETATM   13  C20 UNL     1      39.952 -15.496  24.728  1.00  0.00     0.151 C
BRANCH  12  14
HETATM   14  C21 UNL     1      38.652 -16.535  26.556  1.00  0.00     0.116 A
HETATM   15  N3  UNL     1      37.717 -15.584  26.848  1.00  0.00    -0.338 N
HETATM   16  C22 UNL     1      37.196 -15.497  28.085  1.00  0.00     0.182 A
ATOM     17  H3  UNL     1      37.412 -14.935  26.123  1.00  0.00     0.168 HD
HETATM   18  N4  UNL     1      37.574 -16.336  29.075  1.00  0.00    -0.351 N
HETATM   19  C23 UNL     1      38.496 -17.297  28.847  1.00  0.00     0.048 A
ATOM     20  H4  UNL     1      37.159 -16.242  30.002  1.00  0.00     0.166 HD
HETATM   21  C24 UNL     1      38.885 -18.153  29.867  1.00  0.00     0.057 A
HETATM   22  C28 UNL     1      39.025 -17.377  27.572  1.00  0.00     0.035 A
HETATM   23  C25 UNL     1      39.828 -19.133  29.652  1.00  0.00     0.048 A
HETATM   24  N5  UNL     1      40.239 -20.025  30.692  1.00  0.00    -0.102 NA
HETATM   25  C26 UNL     1      40.354 -19.211  28.382  1.00  0.00     0.027 A
HETATM   26  C27 UNL     1      39.965 -18.351  27.352  1.00  0.00     0.019 A
ENDBRANCH  12  14
ENDBRANCH  11  12
ENDBRANCH  10  11
ENDBRANCH   9  10
ENDBRANCH   8   9
ENDBRANCH   5   8
BRANCH   6  27
HETATM   27  O5  UNL     1      39.109 -22.013  22.749  1.00  0.00    -0.353 OA
HETATM   28  C30 UNL     1      38.573 -23.065  21.966  1.00  0.00     0.210 C
ENDBRANCH   6  27
BRANCH   1  29
HETATM   29  C12 UNL     1      41.319 -23.616  26.824  1.00  0.00     0.091 A
HETATM   30  C5  UNL     1      42.041 -22.873  27.851  1.00  0.00     0.006 A
HETATM   31  C4  UNL     1      42.660 -21.704  27.493  1.00  0.00     0.046 A
HETATM   32  C6  UNL     1      42.122 -23.303  29.182  1.00  0.00     0.081 A
HETATM   33  C3  UNL     1      43.336 -20.989  28.446  1.00  0.00     0.064 A
HETATM   34 CL1  UNL     1      42.665 -21.037  25.869  1.00  0.00    -0.084 Cl
HETATM   35  C2  UNL     1      43.427 -21.389  29.752  1.00  0.00     0.105 A
HETATM   36  C7  UNL     1      42.814 -22.563  30.134  1.00  0.00     0.127 A
HETATM   37  N1  UNL     1      41.508 -24.533  29.613  1.00  0.00    -0.329 N
HETATM   38  C8  UNL     1      41.561 -25.019  30.970  1.00  0.00     0.158 C
HETATM   39  C9  UNL     1      40.815 -25.273  28.582  1.00  0.00     0.150 A
HETATM   40  C10 UNL     1      40.730 -24.883  27.350  1.00  0.00     0.008 A
HETATM   41  O3  UNL     1      40.073 -26.448  28.366  1.00  0.00    -0.331 OA
HETATM   42  C11 UNL     1      39.934 -26.117  27.032  1.00  0.00     0.217 A
BRANCH  35  43
HETATM   43  O1  UNL     1      44.117 -20.641  30.678  1.00  0.00    -0.353 OA
HETATM   44  C1  UNL     1      45.523 -20.549  30.719  1.00  0.00     0.210 C
ENDBRANCH  35  43
BRANCH  36  45
HETATM   45  O2  UNL     1      42.881 -23.002  31.436  1.00  0.00    -0.356 OA
ATOM     46  H2  UNL     1      42.894 -22.386  32.158  1.00  0.00     0.218 HD
ENDBRANCH  36  45
ENDBRANCH   1  29
TORSDOF 10
ENDMDL