MODEL 2
REMARK VINA RESULT: -7.549698451      3.332      6.128
REMARK  10 active torsions:
REMARK  status: ('A' for Active; 'I' for Inactive)
REMARK    1  A    between atoms: C2_2  and  O1_3
REMARK    2  A    between atoms: O1_3  and  C3_4
REMARK    3  A    between atoms: C3_4  and  C4_6
REMARK    4  A    between atoms: C5_7  and  N1_8
REMARK    5  A    between atoms: N1_8  and  C6_10
REMARK    6  A    between atoms: C12_18  and  O5_19
REMARK    7  A    between atoms: C13_21  and  O6_22
REMARK    8  A    between atoms: C18_31  and  O7_32
REMARK    9  A    between atoms: C22_37  and  O8_38
REMARK   10  A    between atoms: C24_40  and  O9_41
ROOT
HETATM    1  C6  UNL     1      38.123 -20.944  27.610  1.00  0.00     0.055 A
HETATM    2  C7  UNL     1      38.896 -20.774  28.748  1.00  0.00     0.069 A
HETATM    3  C8  UNL     1      39.699 -21.745  29.223  1.00  0.00     0.097 A
HETATM    4  O3  UNL     1      40.351 -21.393  30.307  1.00  0.00    -0.273 OA
HETATM    5  C9  UNL     1      41.492 -22.027  30.780  1.00  0.00     0.316 C
HETATM    6  O4  UNL     1      42.261 -21.515  31.475  1.00  0.00    -0.257 OA
HETATM    7  C10 UNL     1      41.943 -23.303  30.546  1.00  0.00     0.126 C
HETATM    8  C11 UNL     1      43.019 -22.731  29.930  1.00  0.00     0.076 C
HETATM    9  C12 UNL     1      43.328 -22.978  28.576  1.00  0.00     0.101 C
HETATM   10  C13 UNL     1      42.503 -23.448  27.513  1.00  0.00     0.103 C
HETATM   11  C15 UNL     1      41.118 -23.695  27.483  1.00  0.00     0.071 C
HETATM   12  C16 UNL     1      40.472 -24.081  28.614  1.00  0.00     0.066 C
HETATM   13  N2  UNL     1      40.511 -24.988  29.664  1.00  0.00    -0.299 N
ATOM     14  H2  UNL     1      40.006 -25.874  29.668  1.00  0.00     0.187 HD
HETATM   15  N3  UNL     1      41.358 -24.530  30.763  1.00  0.00    -0.295 N
ATOM     16  H3  UNL     1      41.503 -25.071  31.615  1.00  0.00     0.187 HD
HETATM   17  C17 UNL     1      39.706 -22.964  28.485  1.00  0.00     0.061 A
HETATM   18  C18 UNL     1      39.015 -23.241  27.406  1.00  0.00     0.103 A
HETATM   19  C20 UNL     1      38.198 -22.195  26.950  1.00  0.00     0.072 A
HETATM   20 BR1  UNL     1      37.117 -22.363  25.405  1.00  0.00    -0.046 Br
ENDROOT
BRANCH   1  21
HETATM   21  N1  UNL     1      37.227 -19.963  27.147  1.00  0.00    -0.354 N
ATOM     22  H1  UNL     1      36.344 -20.281  26.748  1.00  0.00     0.166 HD
BRANCH  21  23
HETATM   23  C5  UNL     1      37.452 -18.600  27.190  1.00  0.00     0.053 A
HETATM   24  C4  UNL     1      38.191 -17.963  26.230  1.00  0.00     0.086 A
HETATM   25  C26 UNL     1      38.530 -16.610  26.412  1.00  0.00     0.065 A
HETATM   26  C24 UNL     1      38.138 -15.901  27.528  1.00  0.00     0.120 A
HETATM   27 BR2  UNL     1      39.559 -15.696  25.103  1.00  0.00    -0.047 Br
HETATM   28  C22 UNL     1      37.392 -16.542  28.495  1.00  0.00     0.105 A
HETATM   29  C21 UNL     1      37.054 -17.865  28.333  1.00  0.00     0.070 A
BRANCH  24  30
HETATM   30  C3  UNL     1      38.565 -18.597  25.008  1.00  0.00     0.297 C
HETATM   31  O2  UNL     1      37.956 -18.391  23.895  1.00  0.00    -0.259 OA
BRANCH  30  32
HETATM   32  O1  UNL     1      39.600 -19.485  24.914  1.00  0.00    -0.318 OA
BRANCH  32  33
HETATM   33  C2  UNL     1      40.918 -19.155  25.218  1.00  0.00     0.174 C
HETATM   34  C1  UNL     1      41.495 -20.191  26.140  1.00  0.00     0.034 C
ENDBRANCH  32  33
ENDBRANCH  30  32
ENDBRANCH  24  30
BRANCH  26  35
HETATM   35  O9  UNL     1      38.460 -14.575  27.722  1.00  0.00    -0.352 OA
HETATM   36  C25 UNL     1      37.597 -13.500  27.485  1.00  0.00     0.210 C
ENDBRANCH  26  35
BRANCH  28  37
HETATM   37  O8  UNL     1      36.968 -15.883  29.633  1.00  0.00    -0.353 OA
HETATM   38  C23 UNL     1      35.630 -15.446  29.740  1.00  0.00     0.210 C
ENDBRANCH  28  37
ENDBRANCH  21  23
ENDBRANCH   1  21
BRANCH  18  39
HETATM   39  O7  UNL     1      38.992 -24.389  26.714  1.00  0.00    -0.353 OA
HETATM   40  C19 UNL     1      38.087 -25.438  26.714  1.00  0.00     0.210 C
ENDBRANCH  18  39
BRANCH  10  41
HETATM   41  O6  UNL     1      43.113 -23.701  26.345  1.00  0.00    -0.353 OA
HETATM   42  C14 UNL     1      42.390 -23.847  25.150  1.00  0.00     0.210 C
ENDBRANCH  10  41
BRANCH   9  43
HETATM   43  O5  UNL     1      44.592 -22.740  28.204  1.00  0.00    -0.358 OA
ATOM     44  H5  UNL     1      45.268 -23.189  28.697  1.00  0.00     0.217 HD
ENDBRANCH   9  43
TORSDOF 10
ENDMDL