MODEL 3
REMARK VINA RESULT: -8.608370257      3.041      4.259
REMARK  13 active torsions:
REMARK  status: ('A' for Active; 'I' for Inactive)
REMARK    1  A    between atoms: C3_3  and  C4_4
REMARK    2  A    between atoms: C5_5  and  C6_6
REMARK    3  A    between atoms: C6_6  and  C7_7
REMARK    4  A    between atoms: C7_7  and  O2_9
REMARK    5  A    between atoms: O2_9  and  C8_10
REMARK    6  A    between atoms: C8_10  and  O3_11
REMARK    7  A    between atoms: C12_16  and  O4_18
REMARK    8  A    between atoms: C17_23  and  C18_24
REMARK    9  A    between atoms: C19_27  and  C20_28
REMARK   10  A    between atoms: C20_28  and  O7_29
REMARK   11  A    between atoms: O7_29  and  C21_30
REMARK   12  A    between atoms: C21_30  and  C22_32
REMARK   13  A    between atoms: C26_37  and  O9_38
ROOT
HETATM    1  C8  UNL     1      39.164 -19.985  28.417  1.00  0.00     0.223 C
HETATM    2  C9  UNL     1      38.234 -19.905  27.276  1.00  0.00    -0.008 C
HETATM    3  C10 UNL     1      38.423 -19.085  26.299  1.00  0.00    -0.042 C
HETATM    4  C11 UNL     1      37.477 -18.985  25.177  1.00  0.00     0.047 C
HETATM    5  C12 UNL     1      39.828 -18.444  26.200  1.00  0.00     0.083 C
HETATM    6  C13 UNL     1      40.046 -18.268  24.679  1.00  0.00     0.051 C
HETATM    7  C15 UNL     1      40.805 -19.540  26.597  1.00  0.00     0.080 C
HETATM    8  C16 UNL     1      40.336 -20.600  27.524  1.00  0.00     0.192 C
HETATM    9  O5  UNL     1      39.808 -21.747  27.073  1.00  0.00    -0.372 OA
HETATM   10  C17 UNL     1      38.633 -22.000  26.527  1.00  0.00     0.149 C
HETATM   11  C30 UNL     1      37.417 -21.145  27.135  1.00  0.00     0.074 C
ENDROOT
BRANCH  10  12
HETATM   12  C18 UNL     1      38.172 -23.406  26.641  1.00  0.00     0.156 C
HETATM   13  N1  UNL     1      38.782 -24.229  27.621  1.00  0.00    -0.091 NA
HETATM   14  O6  UNL     1      38.871 -25.466  27.183  1.00  0.00    -0.277 OA
HETATM   15  C19 UNL     1      38.448 -25.608  25.895  1.00  0.00     0.192 C
HETATM   16  C29 UNL     1      38.389 -24.194  25.359  1.00  0.00     0.139 C
HETATM   17 CL1  UNL     1      39.924 -23.813  24.577  1.00  0.00    -0.120 Cl
BRANCH  15  18
HETATM   18  C20 UNL     1      37.116 -26.287  25.826  1.00  0.00     0.214 C
BRANCH  18  19
HETATM   19  O7  UNL     1      36.346 -26.097  24.702  1.00  0.00    -0.315 OA
BRANCH  19  20
HETATM   20  C21 UNL     1      35.298 -25.273  24.444  1.00  0.00     0.293 C
HETATM   21  O8  UNL     1      34.144 -25.589  24.787  1.00  0.00    -0.259 OA
BRANCH  20  22
HETATM   22  C22 UNL     1      35.547 -23.994  23.751  1.00  0.00     0.042 A
HETATM   23  C23 UNL     1      35.234 -22.799  24.396  1.00  0.00     0.019 A
HETATM   24  C24 UNL     1      35.461 -21.594  23.753  1.00  0.00     0.023 A
HETATM   25  C25 UNL     1      35.995 -21.534  22.473  1.00  0.00     0.044 A
HETATM   26 BR1  UNL     1      36.279 -19.845  21.651  1.00  0.00    -0.048 Br
HETATM   27  C26 UNL     1      36.304 -22.719  21.842  1.00  0.00     0.086 A
HETATM   28  C28 UNL     1      36.072 -23.912  22.494  1.00  0.00     0.055 A
BRANCH  27  29
HETATM   29  O9  UNL     1      36.837 -22.676  20.566  1.00  0.00    -0.355 OA
HETATM   30  C27 UNL     1      37.472 -23.821  20.056  1.00  0.00     0.210 C
ENDBRANCH  27  29
ENDBRANCH  20  22
ENDBRANCH  19  20
ENDBRANCH  18  19
ENDBRANCH  15  18
ENDBRANCH  10  12
BRANCH   1  31
HETATM   31  O2  UNL     1      39.569 -18.839  29.035  1.00  0.00    -0.276 OA
BRANCH  31  32
HETATM   32  C7  UNL     1      39.059 -18.363  30.257  1.00  0.00     0.265 C
HETATM   33  O1  UNL     1      39.675 -18.719  31.255  1.00  0.00    -0.265 OA
BRANCH  32  34
HETATM   34  C6  UNL     1      37.886 -17.514  30.266  1.00  0.00     0.138 C
BRANCH  34  35
HETATM   35  C5  UNL     1      37.886 -16.327  29.415  1.00  0.00    -0.017 C
HETATM   36  C4  UNL     1      37.107 -15.976  28.440  1.00  0.00    -0.004 C
BRANCH  36  37
HETATM   37  C3  UNL     1      37.379 -14.684  27.766  1.00  0.00    -0.005 C
HETATM   38  C2  UNL     1      36.611 -13.661  28.029  1.00  0.00    -0.031 C
HETATM   39  C1  UNL     1      35.481 -13.730  28.970  1.00  0.00     0.036 C
ENDBRANCH  36  37
ENDBRANCH  34  35
ENDBRANCH  32  34
ENDBRANCH  31  32
ENDBRANCH   1  31
BRANCH   1  40
HETATM   40  O3  UNL     1      38.936 -20.978  29.330  1.00  0.00    -0.359 OA
ATOM     41  H3  UNL     1      38.432 -21.686  28.944  1.00  0.00     0.213 HD
ENDBRANCH   1  40
BRANCH   5  42
HETATM   42  O4  UNL     1      39.933 -17.242  26.747  1.00  0.00    -0.381 OA
HETATM   43  C14 UNL     1      40.306 -16.176  25.988  1.00  0.00     0.203 C
ENDBRANCH   5  42
TORSDOF 13
ENDMDL