MODEL 4
REMARK VINA RESULT: -7.871039899      4.510      9.891
REMARK  12 active torsions:
REMARK  status: ('A' for Active; 'I' for Inactive)
REMARK    1  A    between atoms: C2_2  and  C5_5
REMARK    2  A    between atoms: C10_12  and  O2_13
REMARK    3  A    between atoms: O2_13  and  C11_14
REMARK    4  A    between atoms: C11_14  and  O3_15
REMARK    5  A    between atoms: O3_15  and  C12_16
REMARK    6  A    between atoms: C12_16  and  C13_17
REMARK    7  A    between atoms: C13_17  and  C14_18
REMARK    8  A    between atoms: C14_18  and  C15_19
REMARK    9  A    between atoms: C15_19  and  O4_20
REMARK   10  A    between atoms: O4_20  and  N1_21
REMARK   11  A    between atoms: C31_40  and  O7_41
REMARK   12  A    between atoms: C32_44  and  O9_45
ROOT
HETATM    1  C5  UNL     1      39.133 -18.726  28.573  1.00  0.00     0.026 C
HETATM    2 CL1  UNL     1      39.459 -18.707  30.297  1.00  0.00    -0.088 Cl
HETATM    3  C6  UNL     1      39.329 -19.850  27.912  1.00  0.00    -0.032 C
HETATM    4  C7  UNL     1      39.042 -19.817  26.466  1.00  0.00     0.013 C
HETATM    5  C8  UNL     1      38.516 -20.915  25.883  1.00  0.00     0.054 C
HETATM    6  C9  UNL     1      38.304 -22.025  26.794  1.00  0.00     0.184 C
HETATM    7  O1  UNL     1      37.274 -22.698  26.712  1.00  0.00    -0.290 OA
HETATM    8  C10 UNL     1      39.347 -22.348  27.831  1.00  0.00     0.135 C
HETATM    9  C16 UNL     1      40.476 -22.941  26.986  1.00  0.00     0.049 C
HETATM   10  C17 UNL     1      41.742 -23.045  27.756  1.00  0.00     0.030 C
HETATM   11  C18 UNL     1      42.193 -21.674  28.149  1.00  0.00     0.049 C
HETATM   12 CL2  UNL     1      42.254 -20.670  26.672  1.00  0.00    -0.118 Cl
HETATM   13  C19 UNL     1      41.164 -21.091  29.070  1.00  0.00     0.022 C
HETATM   14  C20 UNL     1      41.229 -21.905  30.340  1.00  0.00     0.008 C
HETATM   15  C21 UNL     1      42.615 -21.965  30.947  1.00  0.00     0.007 C
HETATM   16  C22 UNL     1      43.607 -22.595  29.967  1.00  0.00     0.009 C
HETATM   17  C23 UNL     1      44.939 -22.609  30.654  1.00  0.00     0.014 C
HETATM   18  C24 UNL     1      45.915 -23.600  30.017  1.00  0.00     0.021 C
HETATM   19  C25 UNL     1      45.551 -21.240  30.804  1.00  0.00     0.003 C
HETATM   20  C26 UNL     1      45.473 -20.377  29.602  1.00  0.00     0.006 C
HETATM   21  C27 UNL     1      44.096 -20.399  29.026  1.00  0.00     0.012 C
HETATM   22  C28 UNL     1      43.566 -21.775  28.734  1.00  0.00    -0.018 C
HETATM   23  C29 UNL     1      44.447 -22.337  27.615  1.00  0.00     0.018 C
HETATM   24  C30 UNL     1      46.938 -21.418  31.359  1.00  0.00     0.066 C
HETATM   25  C31 UNL     1      46.803 -22.136  32.682  1.00  0.00     0.260 C
HETATM   26  O8  UNL     1      46.079 -23.299  32.599  1.00  0.00    -0.331 OA
HETATM   27  C32 UNL     1      44.782 -23.111  32.099  1.00  0.00     0.268 C
HETATM   28  C33 UNL     1      39.774 -21.099  28.572  1.00  0.00     0.069 C
ENDROOT
BRANCH   8  29
HETATM   29  O2  UNL     1      38.877 -23.362  28.606  1.00  0.00    -0.347 OA
BRANCH  29  30
HETATM   30  C11 UNL     1      39.291 -24.627  28.454  1.00  0.00     0.339 C
BRANCH  30  31
HETATM   31  O3  UNL     1      39.602 -25.175  29.732  1.00  0.00    -0.367 OA
BRANCH  31  32
HETATM   32  C12 UNL     1      40.489 -26.200  29.684  1.00  0.00     0.170 C
BRANCH  32  33
HETATM   33  C13 UNL     1      41.836 -25.863  30.221  1.00  0.00     0.028 C
BRANCH  33  34
HETATM   34  C14 UNL     1      42.970 -26.204  29.313  1.00  0.00     0.031 C
BRANCH  34  35
HETATM   35  C15 UNL     1      43.317 -27.652  29.220  1.00  0.00     0.208 C
BRANCH  35  36
HETATM   36  O4  UNL     1      44.445 -27.879  30.092  1.00  0.00    -0.221 OA
BRANCH  36  37
HETATM   37  N1  UNL     1      44.546 -29.023  30.812  1.00  0.00     0.004 N
HETATM   38  O5  UNL     1      43.688 -29.913  30.694  1.00  0.00    -0.511 OA
HETATM   39  O6  UNL     1      45.583 -29.216  31.668  1.00  0.00    -0.511 OA
ENDBRANCH  36  37
ENDBRANCH  35  36
ENDBRANCH  34  35
ENDBRANCH  33  34
ENDBRANCH  32  33
ENDBRANCH  31  32
ENDBRANCH  30  31
ENDBRANCH  29  30
ENDBRANCH   8  29
BRANCH   1  40
HETATM   40  C2  UNL     1      38.657 -17.455  27.990  1.00  0.00    -0.013 C
HETATM   41  C1  UNL     1      37.429 -17.590  27.124  1.00  0.00     0.020 C
HETATM   42  C3  UNL     1      39.776 -16.687  27.282  1.00  0.00     0.020 C
HETATM   43  C4  UNL     1      38.234 -16.535  29.144  1.00  0.00     0.020 C
ENDBRANCH   1  40
BRANCH  27  44
HETATM   44  O9  UNL     1      44.174 -24.362  32.131  1.00  0.00    -0.370 OA
ATOM     45  H9  UNL     1      43.407 -24.385  31.570  1.00  0.00     0.212 HD
ENDBRANCH  27  44
BRANCH  25  46
HETATM   46  O7  UNL     1      48.093 -22.473  33.092  1.00  0.00    -0.371 OA
ATOM     47  H7  UNL     1      48.655 -22.386  32.331  1.00  0.00     0.212 HD
ENDBRANCH  25  46
TORSDOF 12
ENDMDL