MODEL 4
REMARK VINA RESULT: -8.681859804      2.283      2.815
REMARK  12 active torsions:
REMARK  status: ('A' for Active; 'I' for Inactive)
REMARK    1  A    between atoms: N1_8  and  C5_9
REMARK    2  A    between atoms: C5_9  and  C6_10
REMARK       I    between atoms: N2_20  and  C15_21
REMARK       I    between atoms: C15_21  and  N3_23
REMARK    3  A    between atoms: N3_23  and  C16_25
REMARK    4  A    between atoms: C16_25  and  C17_26
REMARK    5  A    between atoms: C17_26  and  C18_27
REMARK    6  A    between atoms: C18_27  and  C19_28
REMARK    7  A    between atoms: C19_28  and  C20_29
REMARK    8  A    between atoms: C20_29  and  C21_30
REMARK    9  A    between atoms: C21_30  and  C22_31
REMARK   10  A    between atoms: C22_31  and  C23_32
REMARK   11  A    between atoms: C23_32  and  O5_33
REMARK   12  A    between atoms: N4_35  and  O6_37
ROOT
HETATM    1  O1  UNL     1     -19.952  15.691  17.866  1.00  0.00    -0.271 OA
HETATM    2  C1  UNL     1     -19.585  16.294  16.801  1.00  0.00     0.241 C
HETATM    3  C2  UNL     1     -20.417  16.081  15.605  1.00  0.00     0.270 C
HETATM    4  O2  UNL     1     -21.597  16.762  15.545  1.00  0.00    -0.380 OA
HETATM    5  C3  UNL     1     -22.501  16.534  16.564  1.00  0.00     0.197 C
HETATM    6  C4  UNL     1     -23.594  17.614  16.410  1.00  0.00     0.227 C
HETATM    7  O3  UNL     1     -23.104  18.748  16.962  1.00  0.00    -0.276 OA
HETATM    8  N1  UNL     1     -23.811  19.841  16.973  1.00  0.00    -0.269 N
HETATM    9  C12 UNL     1     -23.852  20.532  15.741  1.00  0.00     0.157 C
HETATM   10  C13 UNL     1     -22.499  20.685  15.078  1.00  0.00     0.042 C
HETATM   11  C14 UNL     1     -21.602  21.625  15.798  1.00  0.00     0.129 C
HETATM   12  N2  UNL     1     -20.217  21.368  15.515  1.00  0.00    -0.334 N
HETATM   13  C15 UNL     1     -19.599  21.854  14.342  1.00  0.00     0.318 C
HETATM   14  O4  UNL     1     -18.389  21.591  14.113  1.00  0.00    -0.247 OA
HETATM   15  N3  UNL     1     -20.300  22.641  13.405  1.00  0.00    -0.343 N
ATOM     16  H3  UNL     1     -21.281  22.851  13.589  1.00  0.00     0.164 HD
HETATM   17  C24 UNL     1     -19.412  20.621  16.456  1.00  0.00     0.129 C
HETATM   18  C25 UNL     1     -19.520  19.152  16.215  1.00  0.00     0.039 C
HETATM   19  C26 UNL     1     -18.213  18.414  16.400  1.00  0.00     0.124 C
HETATM   20  N5  UNL     1     -18.425  17.085  16.912  1.00  0.00    -0.359 N
ATOM     21  H5  UNL     1     -17.643  16.667  17.415  1.00  0.00     0.162 HD
ENDROOT
BRANCH  15  22
HETATM   22  C16 UNL     1     -19.705  23.166  12.197  1.00  0.00     0.124 C
BRANCH  22  23
HETATM   23  C17 UNL     1     -19.142  24.564  12.370  1.00  0.00     0.020 C
BRANCH  23  24
HETATM   24  C18 UNL     1     -17.650  24.576  12.340  1.00  0.00     0.002 C
BRANCH  24  25
HETATM   25  C19 UNL     1     -17.076  25.222  11.120  1.00  0.00     0.000 C
BRANCH  25  26
HETATM   26  C20 UNL     1     -16.408  24.184  10.260  1.00  0.00     0.000 C
BRANCH  26  27
HETATM   27  C21 UNL     1     -16.378  22.845  10.933  1.00  0.00     0.008 C
BRANCH  27  28
HETATM   28  C22 UNL     1     -16.710  21.767   9.952  1.00  0.00     0.086 C
BRANCH  28  29
HETATM   29  C23 UNL     1     -16.769  20.435  10.652  1.00  0.00     0.135 C
HETATM   30  N4  UNL     1     -16.396  19.405  10.001  1.00  0.00    -0.251 N
ATOM     31  H4  UNL     1     -16.082  19.559   9.042  1.00  0.00     0.196 HD
BRANCH  29  32
HETATM   32  O5  UNL     1     -17.225  20.391  11.978  1.00  0.00    -0.348 OA
ATOM     33  H5  UNL     1     -17.001  21.107  12.562  1.00  0.00     0.219 HD
ENDBRANCH  29  32
BRANCH  30  34
HETATM   34  O6  UNL     1     -16.373  18.118  10.451  1.00  0.00    -0.288 OA
ATOM     35  H6  UNL     1     -15.958  17.801  11.245  1.00  0.00     0.244 HD
ENDBRANCH  30  34
ENDBRANCH  28  29
ENDBRANCH  27  28
ENDBRANCH  26  27
ENDBRANCH  25  26
ENDBRANCH  24  25
ENDBRANCH  23  24
ENDBRANCH  22  23
ENDBRANCH  15  22
BRANCH   8  36
HETATM   36  C5  UNL     1     -24.847  20.017  17.902  1.00  0.00     0.128 C
BRANCH  36  37
HETATM   37  C6  UNL     1     -24.493  21.080  18.871  1.00  0.00    -0.019 A
HETATM   38  C7  UNL     1     -23.836  20.774  20.056  1.00  0.00     0.014 A
HETATM   39  C8  UNL     1     -23.510  21.769  20.951  1.00  0.00     0.024 A
HETATM   40  C9  UNL     1     -23.828  23.100  20.700  1.00  0.00     0.034 A
HETATM   41 CL1  UNL     1     -23.397  24.322  21.864  1.00  0.00    -0.084 Cl
HETATM   42  C10 UNL     1     -24.485  23.423  19.523  1.00  0.00     0.024 A
HETATM   43  C11 UNL     1     -24.806  22.413  18.631  1.00  0.00     0.014 A
ENDBRANCH  36  37
ENDBRANCH   8  36
TORSDOF 12
ENDMDL