MODEL 1
REMARK VINA RESULT: -8.197529815      0.000      0.000
REMARK  12 active torsions:
REMARK  status: ('A' for Active; 'I' for Inactive)
REMARK    1  A    between atoms: C2_2  and  N1_4
REMARK    2  A    between atoms: C4_5  and  C5_6
REMARK    3  A    between atoms: C14_17  and  S1_18
REMARK    4  A    between atoms: S1_18  and  N3_21
REMARK    5  A    between atoms: N3_21  and  C15_23
REMARK    6  A    between atoms: C15_23  and  C16_24
REMARK    7  A    between atoms: C19_27  and  N4_28
REMARK    8  A    between atoms: N4_28  and  O3_29
REMARK    9  A    between atoms: N4_28  and  C20_31
REMARK   10  A    between atoms: C20_31  and  C21_32
REMARK   11  A    between atoms: C21_32  and  O4_33
REMARK   12  A    between atoms: C22_35  and  O5_36
ROOT
HETATM    1  S1  UNL     1     -21.058  20.489  15.626  1.00  0.00     0.259 S
HETATM    2  O1  UNL     1     -22.324  20.809  14.915  1.00  0.00    -0.201 OA
HETATM    3  O2  UNL     1     -20.712  21.657  16.512  1.00  0.00    -0.201 OA
ENDROOT
BRANCH   1   4
HETATM    4  C14 UNL     1     -21.167  18.999  16.469  1.00  0.00     0.092 A
HETATM    5  C9  UNL     1     -22.107  18.775  17.436  1.00  0.00     0.017 A
HETATM    6  C8  UNL     1     -23.082  19.786  17.771  1.00  0.00     0.080 A
HETATM    7  C10 UNL     1     -22.123  17.540  18.095  1.00  0.00     0.015 A
HETATM    8  N2  UNL     1     -22.900  21.038  18.194  1.00  0.00    -0.342 N
HETATM    9  C24 UNL     1     -24.470  19.624  17.691  1.00  0.00     0.111 A
HETATM   10  C4  UNL     1     -24.069  21.669  18.383  1.00  0.00     0.089 A
ATOM     11  H2  UNL     1     -21.986  21.462  18.353  1.00  0.00     0.167 HD
HETATM   12  N1  UNL     1     -25.027  20.786  18.069  1.00  0.00    -0.324 N
HETATM   13 BR1  UNL     1     -25.370  18.015  17.135  1.00  0.00    -0.029 Br
HETATM   14  C11 UNL     1     -21.230  16.533  17.811  1.00  0.00     0.001 A
HETATM   15  C12 UNL     1     -20.296  16.789  16.832  1.00  0.00     0.002 A
HETATM   16  C13 UNL     1     -20.252  17.983  16.169  1.00  0.00     0.026 A
BRANCH  10  17
HETATM   17  C5  UNL     1     -24.191  23.073  18.837  1.00  0.00     0.054 A
HETATM   18  C6  UNL     1     -23.576  24.125  17.921  1.00  0.00     0.013 A
HETATM   19  C7  UNL     1     -22.962  23.828  19.239  1.00  0.00     0.013 A
ENDBRANCH  10  17
BRANCH  12  20
HETATM   20  C2  UNL     1     -26.459  21.009  18.117  1.00  0.00     0.084 C
HETATM   21  C1  UNL     1     -26.892  22.026  17.075  1.00  0.00     0.032 C
HETATM   22  C3  UNL     1     -26.971  21.353  19.492  1.00  0.00     0.032 C
ENDBRANCH  12  20
ENDBRANCH   1   4
BRANCH   1  23
HETATM   23  N3  UNL     1     -19.732  20.390  14.488  1.00  0.00    -0.315 N
ATOM     24  H3  UNL     1     -18.903  19.810  14.616  1.00  0.00     0.172 HD
BRANCH  23  25
HETATM   25  C15 UNL     1     -19.964  21.230  13.355  1.00  0.00     0.137 C
BRANCH  25  26
HETATM   26  C16 UNL     1     -18.797  22.112  13.038  1.00  0.00     0.006 C
HETATM   27  C17 UNL     1     -18.316  21.863  11.648  1.00  0.00     0.008 C
HETATM   28  C18 UNL     1     -17.197  22.831  11.260  1.00  0.00     0.025 C
HETATM   29  C19 UNL     1     -17.831  24.210  11.348  1.00  0.00     0.114 C
HETATM   30  C22 UNL     1     -18.086  24.504  12.800  1.00  0.00     0.138 C
HETATM   31  C23 UNL     1     -19.179  23.557  13.275  1.00  0.00     0.039 C
BRANCH  29  32
HETATM   32  N4  UNL     1     -17.099  25.220  10.654  1.00  0.00    -0.191 NA
BRANCH  32  33
HETATM   33  O3  UNL     1     -17.875  26.229  10.224  1.00  0.00    -0.313 OA
ATOM     34  H3  UNL     1     -17.385  27.022  10.039  1.00  0.00     0.237 HD
ENDBRANCH  32  33
BRANCH  32  35
HETATM   35  C20 UNL     1     -16.245  24.766   9.605  1.00  0.00     0.147 C
BRANCH  35  36
HETATM   36  C21 UNL     1     -16.915  25.177   8.287  1.00  0.00     0.181 C
BRANCH  36  37
HETATM   37  O4  UNL     1     -16.195  26.196   7.703  1.00  0.00    -0.400 OA
ATOM     38  H4  UNL     1     -15.506  25.827   7.163  1.00  0.00     0.209 HD
ENDBRANCH  36  37
ENDBRANCH  35  36
ENDBRANCH  32  35
ENDBRANCH  29  32
BRANCH  30  39
HETATM   39  O5  UNL     1     -18.633  25.792  12.916  1.00  0.00    -0.394 OA
ATOM     40  H5  UNL     1     -17.939  26.405  13.127  1.00  0.00     0.210 HD
ENDBRANCH  30  39
ENDBRANCH  25  26
ENDBRANCH  23  25
ENDBRANCH   1  23
TORSDOF 12
ENDMDL