MODEL 5
REMARK VINA RESULT: -7.822472552      1.475      1.904
REMARK  12 active torsions:
REMARK  status: ('A' for Active; 'I' for Inactive)
REMARK    1  A    between atoms: C2_2  and  N1_4
REMARK    2  A    between atoms: C5_6  and  C6_7
REMARK    3  A    between atoms: C6_7  and  S1_8
REMARK    4  A    between atoms: C6_7  and  C13_18
REMARK    5  A    between atoms: S1_8  and  C7_9
REMARK    6  A    between atoms: C7_9  and  C8_10
REMARK       I    between atoms: C13_18  and  N3_20
REMARK    7  A    between atoms: N3_20  and  C14_22
REMARK    8  A    between atoms: C14_22  and  C15_23
REMARK    9  A    between atoms: C14_22  and  C19_31
REMARK   10  A    between atoms: C15_23  and  C16_24
REMARK       I    between atoms: C19_31  and  N6_33
REMARK   11  A    between atoms: N6_33  and  C20_35
REMARK   12  A    between atoms: C24_41  and  C25_42
ROOT
HETATM    1  C6  UNL     1     -22.749  18.175  15.729  1.00  0.00     0.190 C
ENDROOT
BRANCH   1   2
HETATM    2  C5  UNL     1     -22.534  16.709  15.554  1.00  0.00     0.049 A
HETATM    3  C4  UNL     1     -23.403  15.695  15.872  1.00  0.00     0.119 A
HETATM    4  N1  UNL     1     -22.767  14.539  15.537  1.00  0.00    -0.340 N
HETATM    5  C24 UNL     1     -21.555  14.792  15.032  1.00  0.00     0.091 A
HETATM    6  N7  UNL     1     -21.433  16.131  15.051  1.00  0.00    -0.346 N
ATOM      7  H7  UNL     1     -20.611  16.639  14.725  1.00  0.00     0.167 HD
BRANCH   4   8
HETATM    8  C2  UNL     1     -23.373  13.266  15.715  1.00  0.00     0.082 C
HETATM    9  C1  UNL     1     -23.612  13.087  17.209  1.00  0.00     0.032 C
HETATM   10  C3  UNL     1     -24.791  13.389  15.118  1.00  0.00     0.032 C
ENDBRANCH   4   8
BRANCH   5  11
HETATM   11  C25 UNL     1     -20.554  13.844  14.560  1.00  0.00     0.008 C
HETATM   12  C26 UNL     1     -20.284  12.656  15.380  1.00  0.00     0.022 C
HETATM   13  C27 UNL     1     -20.984  13.350  13.188  1.00  0.00     0.022 C
HETATM   14  C28 UNL     1     -19.196  14.519  14.304  1.00  0.00     0.022 C
ENDBRANCH   5  11
ENDBRANCH   1   2
BRANCH   1  15
HETATM   15  S1  UNL     1     -24.030  18.490  16.968  1.00  0.00    -0.148 SA
BRANCH  15  16
HETATM   16  C7  UNL     1     -24.448  20.237  17.116  1.00  0.00     0.079 C
BRANCH  16  17
HETATM   17  C8  UNL     1     -25.933  20.428  17.294  1.00  0.00    -0.002 C
HETATM   18  C9  UNL     1     -26.379  19.769  18.583  1.00  0.00     0.032 C
HETATM   19  C10 UNL     1     -27.838  20.121  18.861  1.00  0.00     0.232 C
HETATM   20  N2  UNL     1     -28.430  20.734  17.704  1.00  0.00    -0.075 N
HETATM   21  C11 UNL     1     -27.835  21.993  17.347  1.00  0.00     0.232 C
ATOM     22  H22 UNL     1     -28.416  20.093  16.911  1.00  0.00     0.277 HD
ATOM     23  H21 UNL     1     -29.438  20.834  17.826  1.00  0.00     0.277 HD
HETATM   24  C12 UNL     1     -26.306  21.882  17.342  1.00  0.00     0.032 C
ENDBRANCH  16  17
ENDBRANCH  15  16
ENDBRANCH   1  15
BRANCH   1  25
HETATM   25  C13 UNL     1     -21.480  18.851  16.127  1.00  0.00     0.238 C
HETATM   26  O1  UNL     1     -21.007  18.622  17.252  1.00  0.00    -0.272 OA
HETATM   27  N3  UNL     1     -20.794  19.738  15.263  1.00  0.00    -0.346 N
ATOM     28  H3  UNL     1     -21.202  19.904  14.343  1.00  0.00     0.163 HD
BRANCH  27  29
HETATM   29  C14 UNL     1     -19.567  20.424  15.577  1.00  0.00     0.182 C
BRANCH  29  30
HETATM   30  C15 UNL     1     -18.361  19.617  15.080  1.00  0.00     0.093 C
BRANCH  30  31
HETATM   31  C16 UNL     1     -17.794  18.775  16.154  1.00  0.00     0.028 A
HETATM   32  C17 UNL     1     -16.838  19.159  17.079  1.00  0.00     0.114 A
HETATM   33  N4  UNL     1     -16.622  18.072  17.878  1.00  0.00    -0.360 N
HETATM   34  C18 UNL     1     -17.407  17.074  17.460  1.00  0.00     0.180 A
ATOM     35  H4  UNL     1     -15.972  18.030  18.663  1.00  0.00     0.166 HD
HETATM   36  N5  UNL     1     -18.116  17.505  16.413  1.00  0.00    -0.354 N
ATOM     37  H5  UNL     1     -18.796  16.951  15.893  1.00  0.00     0.166 HD
ENDBRANCH  30  31
ENDBRANCH  29  30
BRANCH  29  38
HETATM   38  C19 UNL     1     -19.503  21.714  14.850  1.00  0.00     0.241 C
HETATM   39  O2  UNL     1     -20.067  22.756  15.310  1.00  0.00    -0.271 OA
HETATM   40  N6  UNL     1     -18.800  21.764  13.618  1.00  0.00    -0.351 N
ATOM     41  H6  UNL     1     -18.359  20.903  13.296  1.00  0.00     0.163 HD
BRANCH  40  42
HETATM   42  C20 UNL     1     -18.657  22.931  12.785  1.00  0.00     0.022 C
HETATM   43  C21 UNL     1     -18.272  24.172  13.515  1.00  0.00     0.037 C
HETATM   44  C22 UNL     1     -19.978  23.215  12.067  1.00  0.00     0.037 C
HETATM   45  C23 UNL     1     -17.623  22.695  11.697  1.00  0.00     0.037 C
ENDBRANCH  40  42
ENDBRANCH  29  38
ENDBRANCH  27  29
ENDBRANCH   1  25
TORSDOF 12
ENDMDL