MODEL 4
REMARK VINA RESULT: -8.231035256      2.589      4.678
REMARK  11 active torsions:
REMARK  status: ('A' for Active; 'I' for Inactive)
REMARK    1  A    between atoms: C2_2  and  C3_3
REMARK    2  A    between atoms: C3_3  and  S1_4
REMARK    3  A    between atoms: S1_4  and  C4_5
REMARK    4  A    between atoms: C6_8  and  C7_9
REMARK    5  A    between atoms: C7_9  and  C8_10
REMARK    6  A    between atoms: C8_10  and  O2_11
REMARK    7  A    between atoms: C8_10  and  C9_13
REMARK    8  A    between atoms: C9_13  and  N1_14
REMARK       I    between atoms: N1_14  and  C10_16
REMARK       I    between atoms: C10_16  and  N2_18
REMARK    9  A    between atoms: N2_18  and  C11_20
REMARK   10  A    between atoms: C17_26  and  N3_27
REMARK       I    between atoms: N3_27  and  C18_29
REMARK   11  A    between atoms: C18_29  and  C19_31
ROOT
HETATM    1  C4  UNL     1     -18.149  18.564  16.786  1.00  0.00     0.096 C
HETATM    2  C5  UNL     1     -17.706  18.833  15.364  1.00  0.00     0.185 C
HETATM    3  O1  UNL     1     -18.682  19.648  14.799  1.00  0.00    -0.382 OA
HETATM    4  C6  UNL     1     -19.555  20.037  15.780  1.00  0.00     0.147 C
HETATM    5  C17 UNL     1     -19.605  18.823  16.703  1.00  0.00     0.129 C
ENDROOT
BRANCH   4   6
HETATM    6  C7  UNL     1     -20.863  20.511  15.340  1.00  0.00     0.067 C
BRANCH   6   7
HETATM    7  C8  UNL     1     -20.670  21.616  14.286  1.00  0.00     0.138 C
BRANCH   7   8
HETATM    8  O2  UNL     1     -21.840  21.813  13.584  1.00  0.00    -0.394 OA
ATOM      9  H2  UNL     1     -21.698  22.433  12.878  1.00  0.00     0.210 HD
ENDBRANCH   7   8
BRANCH   7  10
HETATM   10  C9  UNL     1     -19.998  22.823  14.824  1.00  0.00     0.156 C
BRANCH  10  11
HETATM   11  N1  UNL     1     -18.855  23.318  14.152  1.00  0.00    -0.340 N
HETATM   12  C10 UNL     1     -18.771  23.870  12.835  1.00  0.00     0.320 C
HETATM   13  O3  UNL     1     -19.813  23.921  12.179  1.00  0.00    -0.247 OA
HETATM   14  N2  UNL     1     -17.553  24.331  12.318  1.00  0.00    -0.309 N
ATOM     15  H2  UNL     1     -16.735  24.267  12.925  1.00  0.00     0.170 HD
ATOM     16  H1  UNL     1     -17.979  23.276  14.673  1.00  0.00     0.164 HD
BRANCH  14  17
HETATM   17  C11 UNL     1     -17.362  24.867  11.048  1.00  0.00     0.036 A
HETATM   18  C12 UNL     1     -17.408  26.260  10.845  1.00  0.00     0.029 A
HETATM   19  C13 UNL     1     -17.204  26.845   9.625  1.00  0.00     0.002 A
HETATM   20  C14 UNL     1     -16.938  26.073   8.517  1.00  0.00     0.000 A
HETATM   21  C15 UNL     1     -16.886  24.710   8.677  1.00  0.00     0.002 A
HETATM   22  C16 UNL     1     -17.095  24.126   9.930  1.00  0.00     0.029 A
ENDBRANCH  14  17
ENDBRANCH  10  11
ENDBRANCH   7  10
ENDBRANCH   6   7
ENDBRANCH   4   6
BRANCH   5  23
HETATM   23  N3  UNL     1     -20.434  17.783  16.238  1.00  0.00    -0.351 N
HETATM   24  C18 UNL     1     -21.441  17.104  16.958  1.00  0.00     0.248 C
HETATM   25  O4  UNL     1     -21.619  17.467  18.146  1.00  0.00    -0.271 OA
ATOM     26  H3  UNL     1     -20.292  17.488  15.272  1.00  0.00     0.163 HD
BRANCH  24  27
HETATM   27  C19 UNL     1     -22.282  16.035  16.456  1.00  0.00     0.137 C
HETATM   28  C20 UNL     1     -23.720  16.385  16.819  1.00  0.00     0.051 C
HETATM   29  C21 UNL     1     -22.187  15.881  14.926  1.00  0.00     0.188 C
HETATM   30 CL1  UNL     1     -20.631  15.229  14.455  1.00  0.00    -0.110 Cl
HETATM   31  S2  UNL     1     -23.398  14.493  14.803  1.00  0.00    -0.077 SA
HETATM   32  C22 UNL     1     -22.995  13.814  16.437  1.00  0.00     0.139 C
HETATM   33  S3  UNL     1     -23.633  12.471  17.048  1.00  0.00    -0.053 SA
HETATM   34  N4  UNL     1     -22.040  14.724  16.974  1.00  0.00    -0.351 N
HETATM   35  C23 UNL     1     -21.004  14.290  17.924  1.00  0.00     0.152 C
ENDBRANCH  24  27
ENDBRANCH   5  23
BRANCH   1  36
HETATM   36  S1  UNL     1     -17.652  16.994  17.431  1.00  0.00    -0.156 SA
BRANCH  36  37
HETATM   37  C3  UNL     1     -17.729  15.731  16.155  1.00  0.00     0.100 C
BRANCH  37  38
HETATM   38  C2  UNL     1     -16.826  14.598  16.471  1.00  0.00    -0.027 C
HETATM   39  C1  UNL     1     -16.442  13.721  15.552  1.00  0.00     0.007 C
ENDBRANCH  37  38
ENDBRANCH  36  37
ENDBRANCH   1  36
TORSDOF 11
ENDMDL