MODEL 2
REMARK VINA RESULT: -9.203908844      1.243      1.566
REMARK  10 active torsions:
REMARK  status: ('A' for Active; 'I' for Inactive)
REMARK    1  A    between atoms: C2_2  and  C4_4
REMARK    2  A    between atoms: C4_4  and  N1_5
REMARK    3  A    between atoms: C4_4  and  C23_38
REMARK    4  A    between atoms: N1_5  and  S1_7
REMARK    5  A    between atoms: S1_7  and  C5_10
REMARK    6  A    between atoms: C8_14  and  N2_15
REMARK    7  A    between atoms: N2_15  and  C9_17
REMARK    8  A    between atoms: C9_17  and  C10_18
REMARK       I    between atoms: N3_21  and  C13_22
REMARK       I    between atoms: C13_22  and  N4_24
REMARK    9  A    between atoms: N4_24  and  C14_26
REMARK   10  A    between atoms: C21_33  and  N5_34
ROOT
HETATM    1  C5  UNL     1     -20.130  14.819  14.350  1.00  0.00     0.083 A
HETATM    2  C6  UNL     1     -19.279  15.514  15.176  1.00  0.00     0.051 A
HETATM    3  C7  UNL     1     -19.723  16.510  16.056  1.00  0.00     0.064 A
HETATM    4 CL1  UNL     1     -18.522  17.363  17.024  1.00  0.00    -0.082 Cl
HETATM    5  C8  UNL     1     -21.066  16.831  16.124  1.00  0.00     0.083 A
HETATM    6  C21 UNL     1     -21.962  16.140  15.295  1.00  0.00     0.132 A
HETATM    7  C22 UNL     1     -21.456  15.160  14.441  1.00  0.00     0.063 A
ENDROOT
BRANCH   5   8
HETATM    8  N2  UNL     1     -21.603  17.809  16.999  1.00  0.00    -0.386 N
ATOM      9  H2  UNL     1     -22.182  17.469  17.767  1.00  0.00     0.159 HD
BRANCH   8  10
HETATM   10  C9  UNL     1     -21.416  19.215  16.912  1.00  0.00     0.124 C
BRANCH  10  11
HETATM   11  C10 UNL     1     -22.597  19.974  16.329  1.00  0.00     0.006 C
HETATM   12  C11 UNL     1     -22.558  19.899  14.817  1.00  0.00     0.026 C
HETATM   13  C12 UNL     1     -22.357  21.281  14.208  1.00  0.00     0.128 C
HETATM   14  N3  UNL     1     -21.291  21.922  14.908  1.00  0.00    -0.334 N
HETATM   15  C13 UNL     1     -20.037  22.193  14.343  1.00  0.00     0.318 C
HETATM   16  C19 UNL     1     -21.572  22.282  16.296  1.00  0.00     0.128 C
HETATM   17  O3  UNL     1     -19.185  22.786  15.100  1.00  0.00    -0.247 OA
HETATM   18  N4  UNL     1     -19.681  21.854  13.017  1.00  0.00    -0.338 N
ATOM     19  H4  UNL     1     -20.363  21.384  12.422  1.00  0.00     0.164 HD
HETATM   20  C20 UNL     1     -22.609  21.357  16.883  1.00  0.00     0.026 C
BRANCH  18  21
HETATM   21  C14 UNL     1     -18.360  22.161  12.482  1.00  0.00     0.086 C
HETATM   22  C15 UNL     1     -18.364  23.282  11.492  1.00  0.00     0.025 C
HETATM   23  C16 UNL     1     -17.160  23.028  10.647  1.00  0.00     0.002 C
HETATM   24  C17 UNL     1     -16.890  21.559  10.691  1.00  0.00     0.002 C
HETATM   25  C18 UNL     1     -17.788  20.975  11.733  1.00  0.00     0.025 C
ENDBRANCH  18  21
ENDBRANCH  10  11
ENDBRANCH   8  10
ENDBRANCH   5   8
BRANCH   6  26
HETATM   26  N5  UNL     1     -23.342  16.398  15.275  1.00  0.00    -0.113 N
HETATM   27  O4  UNL     1     -24.124  16.328  16.206  1.00  0.00    -0.532 OA
HETATM   28  O5  UNL     1     -23.894  16.748  14.040  1.00  0.00    -0.532 OA
ENDBRANCH   6  26
BRANCH   1  29
HETATM   29  S1  UNL     1     -19.561  13.592  13.246  1.00  0.00     0.259 S
HETATM   30  O1  UNL     1     -18.113  13.849  12.866  1.00  0.00    -0.201 OA
HETATM   31  O2  UNL     1     -20.333  13.673  11.930  1.00  0.00    -0.201 OA
BRANCH  29  32
HETATM   32  N1  UNL     1     -19.666  12.002  13.800  1.00  0.00    -0.300 N
ATOM     33  H1  UNL     1     -20.213  11.266  13.353  1.00  0.00     0.173 HD
BRANCH  32  34
HETATM   34  C4  UNL     1     -18.870  11.828  14.999  1.00  0.00     0.197 C
BRANCH  34  35
HETATM   35  C2  UNL     1     -19.681  11.791  16.242  1.00  0.00     0.011 C
HETATM   36  C1  UNL     1     -19.789  10.358  16.749  1.00  0.00     0.012 C
HETATM   37  C3  UNL     1     -19.083  12.643  17.307  1.00  0.00     0.012 C
ENDBRANCH  34  35
BRANCH  34  38
HETATM   38  C23 UNL     1     -18.046  10.572  14.861  1.00  0.00     0.197 C
HETATM   39  O6  UNL     1     -18.335   9.775  13.936  1.00  0.00    -0.646 OA
HETATM   40  O7  UNL     1     -16.997  10.245  15.683  1.00  0.00    -0.646 OA
ENDBRANCH  34  38
ENDBRANCH  32  34
ENDBRANCH  29  32
ENDBRANCH   1  29
TORSDOF 10
ENDMDL