MODEL 5
REMARK VINA RESULT: -8.065730192      1.349      1.936
REMARK  16 active torsions:
REMARK  status: ('A' for Active; 'I' for Inactive)
REMARK    1  A    between atoms: O1_2  and  C2_3
REMARK    2  A    between atoms: C2_3  and  C5_6
REMARK    3  A    between atoms: C5_6  and  C6_7
REMARK    4  A    between atoms: C5_6  and  N2_14
REMARK    5  A    between atoms: C6_7  and  O2_8
REMARK    6  A    between atoms: N1_10  and  O3_12
REMARK    7  A    between atoms: N2_14  and  N3_15
REMARK    8  A    between atoms: N2_14  and  S2_28
REMARK    9  A    between atoms: N3_15  and  C7_17
REMARK   10  A    between atoms: C7_17  and  N4_19
REMARK   11  A    between atoms: N4_19  and  C8_21
REMARK   12  A    between atoms: S2_28  and  C15_31
REMARK   13  A    between atoms: C15_31  and  C16_32
REMARK   14  A    between atoms: C16_32  and  S3_33
REMARK   15  A    between atoms: S3_33  and  C17_35
REMARK   16  A    between atoms: S3_33  and  C19_38
ROOT
HETATM    1  N2  UNL     1     -20.613  20.399  15.305  1.00  0.00    -0.200 N
ENDROOT
BRANCH   1   2
HETATM    2  C5  UNL     1     -21.650  20.663  16.189  1.00  0.00     0.230 C
BRANCH   2   3
HETATM    3  C2  UNL     1     -22.655  19.626  16.498  1.00  0.00     0.084 C
HETATM    4  C3  UNL     1     -22.802  18.635  15.329  1.00  0.00     0.048 C
HETATM    5  C4  UNL     1     -22.386  18.793  17.732  1.00  0.00     0.048 C
BRANCH   3   6
HETATM    6  O1  UNL     1     -23.940  20.120  16.688  1.00  0.00    -0.383 OA
HETATM    7  C1  UNL     1     -24.929  19.214  16.501  1.00  0.00     0.202 C
ENDBRANCH   3   6
ENDBRANCH   2   3
BRANCH   2   8
HETATM    8  C6  UNL     1     -22.367  21.973  15.846  1.00  0.00     0.164 C
HETATM    9  N1  UNL     1     -22.282  23.023  16.588  1.00  0.00    -0.249 N
ATOM     10  H1  UNL     1     -22.797  23.843  16.271  1.00  0.00     0.196 HD
BRANCH   8  11
HETATM   11  O2  UNL     1     -23.152  22.116  14.723  1.00  0.00    -0.346 OA
ATOM     12  H2  UNL     1     -23.481  22.959  14.434  1.00  0.00     0.219 HD
ENDBRANCH   8  11
BRANCH   9  13
HETATM   13  O3  UNL     1     -21.587  23.159  17.737  1.00  0.00    -0.288 OA
ATOM     14  H3  UNL     1     -21.892  22.981  18.619  1.00  0.00     0.244 HD
ENDBRANCH   9  13
ENDBRANCH   2   8
ENDBRANCH   1   2
BRANCH   1  15
HETATM   15  N3  UNL     1     -20.677  20.951  14.040  1.00  0.00    -0.264 N
ATOM     16  H3  UNL     1     -21.475  20.726  13.446  1.00  0.00     0.190 HD
BRANCH  15  17
HETATM   17  C7  UNL     1     -19.679  21.813  13.538  1.00  0.00     0.191 C
HETATM   18  S1  UNL     1     -19.239  23.138  14.364  1.00  0.00    -0.039 SA
BRANCH  17  19
HETATM   19  N4  UNL     1     -19.038  21.499  12.328  1.00  0.00    -0.332 N
ATOM     20  H4  UNL     1     -19.273  20.594  11.920  1.00  0.00     0.168 HD
BRANCH  19  21
HETATM   21  C8  UNL     1     -18.108  22.284  11.606  1.00  0.00     0.034 A
HETATM   22  C9  UNL     1     -16.917  21.852  11.080  1.00  0.00     0.029 A
HETATM   23  C10 UNL     1     -16.069  22.676  10.351  1.00  0.00     0.003 A
HETATM   24  C11 UNL     1     -16.398  23.987  10.126  1.00  0.00     0.007 A
HETATM   25  C12 UNL     1     -17.586  24.463  10.639  1.00  0.00    -0.060 A
HETATM   26  C13 UNL     1     -17.937  25.890  10.391  1.00  0.00     0.048 C
HETATM   27  C14 UNL     1     -18.405  23.636  11.352  1.00  0.00     0.036 A
ENDBRANCH  19  21
ENDBRANCH  17  19
ENDBRANCH  15  17
ENDBRANCH   1  15
BRANCH   1  28
HETATM   28  S2  UNL     1     -19.159  19.788  15.764  1.00  0.00     0.247 S
HETATM   29  O4  UNL     1     -18.441  20.806  16.689  1.00  0.00    -0.204 OA
HETATM   30  O5  UNL     1     -18.147  19.756  14.583  1.00  0.00    -0.204 OA
BRANCH  28  31
HETATM   31  C15 UNL     1     -19.109  18.277  16.619  1.00  0.00     0.177 C
BRANCH  31  32
HETATM   32  C16 UNL     1     -18.549  17.118  15.886  1.00  0.00     0.117 C
BRANCH  32  33
HETATM   33  S3  UNL     1     -19.042  15.569  16.598  1.00  0.00    -0.029 S
HETATM   34  O6  UNL     1     -18.949  15.714  18.115  1.00  0.00    -0.266 OA
BRANCH  33  35
HETATM   35  C17 UNL     1     -18.052  14.248  16.046  1.00  0.00     0.078 C
HETATM   36  C18 UNL     1     -18.479  12.981  16.151  1.00  0.00     0.093 C
HETATM   37 CL1  UNL     1     -17.496  11.639  15.601  1.00  0.00    -0.096 Cl
ENDBRANCH  33  35
BRANCH  33  38
HETATM   38  C19 UNL     1     -20.581  15.335  16.442  1.00  0.00     0.063 C
HETATM   39  C20 UNL     1     -21.174  15.339  15.127  1.00  0.00     0.022 C
HETATM   40  C21 UNL     1     -21.345  15.184  17.665  1.00  0.00     0.022 C
ENDBRANCH  33  38
ENDBRANCH  32  33
ENDBRANCH  31  32
ENDBRANCH  28  31
ENDBRANCH   1  28
TORSDOF 16
ENDMDL