MODEL 3
REMARK VINA RESULT: -8.488473343      1.939      4.891
REMARK  13 active torsions:
REMARK  status: ('A' for Active; 'I' for Inactive)
REMARK       I    between atoms: C2_2  and  N1_4
REMARK    1  A    between atoms: N1_4  and  C4_6
REMARK    2  A    between atoms: C4_6  and  O2_7
REMARK    3  A    between atoms: C4_6  and  C5_9
REMARK    4  A    between atoms: C5_9  and  C6_10
REMARK    5  A    between atoms: C6_10  and  C7_11
REMARK    6  A    between atoms: C13_17  and  O3_18
REMARK    7  A    between atoms: C13_17  and  C14_20
REMARK    8  A    between atoms: C14_20  and  N2_21
REMARK    9  A    between atoms: C14_20  and  N3_29
REMARK   10  A    between atoms: N2_21  and  C15_23
REMARK   11  A    between atoms: N3_29  and  S1_31
REMARK   12  A    between atoms: S1_31  and  C21_34
REMARK   13  A    between atoms: C26_40  and  O6_41
ROOT
HETATM    1  C14 UNL     1     -19.652  20.859  15.377  1.00  0.00     0.246 C
ENDROOT
BRANCH   1   2
HETATM    2  C13 UNL     1     -21.039  21.264  15.455  1.00  0.00     0.092 C
HETATM    3  C6  UNL     1     -22.181  20.872  16.246  1.00  0.00    -0.017 C
BRANCH   3   4
HETATM    4  C5  UNL     1     -22.307  19.411  16.463  1.00  0.00     0.066 C
BRANCH   4   5
HETATM    5  C4  UNL     1     -23.028  18.530  15.556  1.00  0.00     0.144 C
BRANCH   5   6
HETATM    6  N1  UNL     1     -23.497  17.215  15.715  1.00  0.00    -0.303 N
HETATM    7  C2  UNL     1     -24.223  16.604  16.725  1.00  0.00     0.221 C
HETATM    8  C1  UNL     1     -24.690  17.238  17.953  1.00  0.00     0.117 C
HETATM    9  O1  UNL     1     -24.529  15.364  16.593  1.00  0.00    -0.273 OA
HETATM   10  C3  UNL     1     -23.174  16.284  14.574  1.00  0.00     0.161 C
ENDBRANCH   5   6
BRANCH   5  11
HETATM   11  O2  UNL     1     -23.307  19.028  14.381  1.00  0.00    -0.346 OA
ATOM     12  H2  UNL     1     -22.744  19.757  14.148  1.00  0.00     0.219 HD
ENDBRANCH   5  11
ENDBRANCH   4   5
ENDBRANCH   3   4
BRANCH   3  13
HETATM   13  C7  UNL     1     -22.680  21.736  17.358  1.00  0.00     0.021 C
HETATM   14  C8  UNL     1     -23.556  20.937  18.288  1.00  0.00     0.009 C
HETATM   15  C9  UNL     1     -24.937  21.645  18.453  1.00  0.00     0.001 C
HETATM   16  C10 UNL     1     -24.785  22.965  19.122  1.00  0.00     0.000 C
HETATM   17  C11 UNL     1     -23.619  23.655  18.473  1.00  0.00     0.001 C
HETATM   18  C12 UNL     1     -23.339  23.008  17.079  1.00  0.00     0.009 C
ENDBRANCH   3  13
BRANCH   2  19
HETATM   19  O3  UNL     1     -21.149  22.686  15.220  1.00  0.00    -0.360 OA
ATOM     20  H3  UNL     1     -20.403  22.943  14.690  1.00  0.00     0.217 HD
ENDBRANCH   2  19
ENDBRANCH   1   2
BRANCH   1  21
HETATM   21  N2  UNL     1     -19.128  19.684  14.861  1.00  0.00    -0.392 N
ATOM     22  H2  UNL     1     -19.430  19.374  13.937  1.00  0.00     0.156 HD
BRANCH  21  23
HETATM   23  C15 UNL     1     -18.204  18.909  15.561  1.00  0.00     0.079 C
HETATM   24  C16 UNL     1     -18.838  17.737  16.334  1.00  0.00     0.024 C
HETATM   25  C17 UNL     1     -17.698  16.820  16.717  1.00  0.00     0.002 C
HETATM   26  C18 UNL     1     -16.893  17.562  17.795  1.00  0.00     0.000 C
HETATM   27  C19 UNL     1     -16.312  18.785  17.104  1.00  0.00     0.002 C
HETATM   28  C20 UNL     1     -17.436  19.695  16.628  1.00  0.00     0.024 C
ENDBRANCH  21  23
ENDBRANCH   1  21
BRANCH   1  29
HETATM   29  N3  UNL     1     -18.962  21.915  14.560  1.00  0.00    -0.288 N
ATOM     30  H3  UNL     1     -18.555  22.735  15.011  1.00  0.00     0.175 HD
BRANCH  29  31
HETATM   31  S1  UNL     1     -18.872  21.729  12.925  1.00  0.00     0.263 S
HETATM   32  O4  UNL     1     -20.096  21.279  12.184  1.00  0.00    -0.200 OA
HETATM   33  O5  UNL     1     -17.798  20.736  12.491  1.00  0.00    -0.200 OA
BRANCH  31  34
HETATM   34  C21 UNL     1     -18.375  23.231  12.156  1.00  0.00     0.112 A
HETATM   35  C22 UNL     1     -17.649  23.260  10.993  1.00  0.00     0.030 A
HETATM   36  C23 UNL     1     -17.290  24.481  10.465  1.00  0.00     0.025 A
HETATM   37  C24 UNL     1     -17.644  25.656  11.080  1.00  0.00     0.036 A
HETATM   38 CL1  UNL     1     -17.163  27.200  10.373  1.00  0.00    -0.084 Cl
HETATM   39  C25 UNL     1     -18.369  25.647  12.242  1.00  0.00     0.061 A
HETATM   40  C26 UNL     1     -18.740  24.416  12.788  1.00  0.00     0.090 A
BRANCH  40  41
HETATM   41  O6  UNL     1     -19.472  24.460  13.964  1.00  0.00    -0.359 OA
ATOM     42  H6  UNL     1     -20.275  24.958  14.064  1.00  0.00     0.217 HD
ENDBRANCH  40  41
ENDBRANCH  31  34
ENDBRANCH  29  31
ENDBRANCH   1  29
TORSDOF 13
ENDMDL