MODEL 2
REMARK VINA RESULT: -9.421540215      1.273      1.823
REMARK  12 active torsions:
REMARK  status: ('A' for Active; 'I' for Inactive)
REMARK    1  A    between atoms: C3_3  and  S1_4
REMARK    2  A    between atoms: S1_4  and  N1_7
REMARK    3  A    between atoms: N1_7  and  C4_9
REMARK    4  A    between atoms: C4_9  and  C5_10
REMARK    5  A    between atoms: C4_9  and  C12_17
REMARK    6  A    between atoms: C5_10  and  C6_11
REMARK    7  A    between atoms: C12_17  and  O3_18
REMARK    8  A    between atoms: N2_20  and  O4_22
REMARK    9  A    between atoms: C15_26  and  N3_27
REMARK       I    between atoms: N3_27  and  C16_29
REMARK   10  A    between atoms: C16_29  and  C17_31
REMARK   11  A    between atoms: C17_31  and  C18_32
REMARK   12  A    between atoms: C18_32  and  C19_33
REMARK       I    between atoms: C19_33  and  N4_35
ROOT
HETATM    1  C1  UNL     1     -22.040  18.365  17.104  1.00  0.00     0.052 C
HETATM    2  C2  UNL     1     -20.639  18.562  16.570  1.00  0.00    -0.015 A
HETATM    3  C3  UNL     1     -19.725  17.528  16.668  1.00  0.00     0.087 A
HETATM    4  C13 UNL     1     -18.483  17.755  16.179  1.00  0.00     0.028 A
HETATM    5  C14 UNL     1     -18.144  18.990  15.598  1.00  0.00     0.033 A
HETATM    6  C15 UNL     1     -19.031  20.024  15.492  1.00  0.00     0.057 A
HETATM    7  C24 UNL     1     -20.307  19.764  16.004  1.00  0.00     0.068 A
HETATM    8 CL1  UNL     1     -21.520  21.043  15.910  1.00  0.00    -0.081 Cl
ENDROOT
BRANCH   3   9
HETATM    9  S1  UNL     1     -20.199  16.020  17.348  1.00  0.00     0.260 S
HETATM   10  O1  UNL     1     -20.908  16.337  18.681  1.00  0.00    -0.200 OA
HETATM   11  O2  UNL     1     -18.887  15.297  17.702  1.00  0.00    -0.200 OA
BRANCH   9  12
HETATM   12  N1  UNL     1     -21.229  15.021  16.494  1.00  0.00    -0.303 N
ATOM     13  H1  UNL     1     -22.155  14.800  16.861  1.00  0.00     0.173 HD
BRANCH  12  14
HETATM   14  C4  UNL     1     -20.802  14.482  15.253  1.00  0.00     0.169 C
BRANCH  14  15
HETATM   15  C5  UNL     1     -19.356  14.390  15.031  1.00  0.00     0.038 C
BRANCH  15  16
HETATM   16  C6  UNL     1     -18.766  13.104  14.584  1.00  0.00    -0.012 C
HETATM   17  C7  UNL     1     -17.606  12.785  15.569  1.00  0.00     0.005 C
HETATM   18  C8  UNL     1     -17.302  11.310  15.566  1.00  0.00     0.000 C
HETATM   19  C9  UNL     1     -18.385  10.510  16.261  1.00  0.00     0.000 C
HETATM   20  C10 UNL     1     -19.692  11.225  15.958  1.00  0.00     0.000 C
HETATM   21  C11 UNL     1     -19.621  11.894  14.598  1.00  0.00     0.005 C
ENDBRANCH  15  16
ENDBRANCH  14  15
BRANCH  14  22
HETATM   22  C12 UNL     1     -21.575  15.084  14.104  1.00  0.00     0.159 C
HETATM   23  N2  UNL     1     -22.452  16.006  14.291  1.00  0.00    -0.249 N
ATOM     24  H2  UNL     1     -22.619  16.329  15.244  1.00  0.00     0.196 HD
BRANCH  22  25
HETATM   25  O3  UNL     1     -21.353  14.648  12.812  1.00  0.00    -0.347 OA
ATOM     26  H3  UNL     1     -21.892  14.970  12.099  1.00  0.00     0.219 HD
ENDBRANCH  22  25
BRANCH  23  27
HETATM   27  O4  UNL     1     -23.165  16.572  13.289  1.00  0.00    -0.288 OA
ATOM     28  H4  UNL     1     -24.029  16.274  13.028  1.00  0.00     0.244 HD
ENDBRANCH  23  27
ENDBRANCH  14  22
ENDBRANCH  12  14
ENDBRANCH   9  12
ENDBRANCH   3   9
BRANCH   6  29
HETATM   29  N3  UNL     1     -18.765  21.297  14.921  1.00  0.00    -0.326 N
HETATM   30  C16 UNL     1     -19.101  21.760  13.650  1.00  0.00     0.222 C
HETATM   31  O5  UNL     1     -19.707  21.089  12.811  1.00  0.00    -0.273 OA
ATOM     32  H3  UNL     1     -18.264  21.956  15.517  1.00  0.00     0.169 HD
BRANCH  30  33
HETATM   33  C17 UNL     1     -18.720  23.145  13.253  1.00  0.00     0.112 C
BRANCH  33  34
HETATM   34  C18 UNL     1     -19.097  23.440  11.830  1.00  0.00     0.112 C
BRANCH  34  35
HETATM   35  C19 UNL     1     -17.948  23.380  10.913  1.00  0.00     0.220 C
HETATM   36  O6  UNL     1     -17.352  22.291  10.671  1.00  0.00    -0.273 OA
HETATM   37  N4  UNL     1     -17.489  24.551  10.281  1.00  0.00    -0.348 N
HETATM   38  C20 UNL     1     -16.348  24.530   9.361  1.00  0.00     0.152 C
HETATM   39  C23 UNL     1     -18.098  25.845  10.488  1.00  0.00     0.152 C
HETATM   40  C21 UNL     1     -16.695  25.552   8.279  1.00  0.00     0.187 C
HETATM   41  O7  UNL     1     -16.676  26.832   8.801  1.00  0.00    -0.388 OA
HETATM   42  C22 UNL     1     -17.081  26.916  10.116  1.00  0.00     0.187 C
ENDBRANCH  34  35
ENDBRANCH  33  34
ENDBRANCH  30  33
ENDBRANCH   6  29
TORSDOF 12
ENDMDL