MODEL 4
REMARK VINA RESULT: -8.235003809      5.143      7.488
REMARK  13 active torsions:
REMARK  status: ('A' for Active; 'I' for Inactive)
REMARK    1  A    between atoms: C2_2  and  C3_3
REMARK    2  A    between atoms: C2_2  and  C24_39
REMARK    3  A    between atoms: C3_3  and  C4_4
REMARK    4  A    between atoms: C4_4  and  O1_5
REMARK    5  A    between atoms: C4_4  and  C5_7
REMARK    6  A    between atoms: C5_7  and  N1_8
REMARK    7  A    between atoms: N1_8  and  C6_9
REMARK    8  A    between atoms: N1_8  and  S1_17
REMARK    9  A    between atoms: C6_9  and  C7_10
REMARK   10  A    between atoms: C7_10  and  O2_11
REMARK   11  A    between atoms: N2_13  and  O3_15
REMARK   12  A    between atoms: S1_17  and  C8_20
REMARK   13  A    between atoms: C12_24  and  C13_25
REMARK       I    between atoms: C13_25  and  N3_27
ROOT
HETATM    1  S1  UNL     1     -22.930  14.296  16.057  1.00  0.00     0.270 S
HETATM    2  O4  UNL     1     -23.652  13.989  14.801  1.00  0.00    -0.200 OA
HETATM    3  O5  UNL     1     -23.831  13.790  17.186  1.00  0.00    -0.200 OA
ENDROOT
BRANCH   1   4
HETATM    4  N1  UNL     1     -22.606  15.909  16.368  1.00  0.00    -0.255 N
BRANCH   4   5
HETATM    5  C5  UNL     1     -21.690  16.272  17.353  1.00  0.00     0.113 C
BRANCH   5   6
HETATM    6  C4  UNL     1     -20.275  16.536  16.941  1.00  0.00     0.158 C
BRANCH   6   7
HETATM    7  C3  UNL     1     -19.243  15.619  17.494  1.00  0.00     0.052 C
BRANCH   7   8
HETATM    8  C2  UNL     1     -17.853  15.929  16.962  1.00  0.00     0.085 C
HETATM    9  C1  UNL     1     -17.127  14.647  16.618  1.00  0.00     0.021 C
BRANCH   8  10
HETATM   10  C24 UNL     1     -17.023  16.636  17.974  1.00  0.00     0.176 C
HETATM   11  O7  UNL     1     -16.464  17.742  17.742  1.00  0.00    -0.648 OA
HETATM   12  O8  UNL     1     -16.813  16.107  19.259  1.00  0.00    -0.648 OA
ENDBRANCH   8  10
ENDBRANCH   7   8
ENDBRANCH   6   7
BRANCH   6  13
HETATM   13  O1  UNL     1     -20.106  16.641  15.552  1.00  0.00    -0.390 OA
ATOM     14  H1  UNL     1     -20.362  15.823  15.142  1.00  0.00     0.210 HD
ENDBRANCH   6  13
ENDBRANCH   5   6
ENDBRANCH   4   5
BRANCH   4  15
HETATM   15  C6  UNL     1     -23.600  16.805  15.943  1.00  0.00     0.166 C
BRANCH  15  16
HETATM   16  C7  UNL     1     -23.453  17.417  14.627  1.00  0.00     0.176 C
HETATM   17  N2  UNL     1     -23.575  18.693  14.499  1.00  0.00    -0.246 N
ATOM     18  H2  UNL     1     -23.464  19.086  13.563  1.00  0.00     0.196 HD
BRANCH  16  19
HETATM   19  O2  UNL     1     -23.182  16.674  13.494  1.00  0.00    -0.344 OA
ATOM     20  H2  UNL     1     -23.312  17.019  12.619  1.00  0.00     0.219 HD
ENDBRANCH  16  19
BRANCH  17  21
HETATM   21  O3  UNL     1     -23.839  19.555  15.514  1.00  0.00    -0.288 OA
ATOM     22  H3  UNL     1     -23.306  19.656  16.294  1.00  0.00     0.244 HD
ENDBRANCH  17  21
ENDBRANCH  15  16
ENDBRANCH   4  15
ENDBRANCH   1   4
BRANCH   1  23
HETATM   23  C8  UNL     1     -21.529  13.241  16.105  1.00  0.00     0.103 A
HETATM   24  C9  UNL     1     -20.646  13.064  15.087  1.00  0.00     0.034 A
HETATM   25  C10 UNL     1     -19.586  12.217  15.252  1.00  0.00    -0.049 A
HETATM   26  C11 UNL     1     -19.420  11.551  16.439  1.00  0.00    -0.034 A
HETATM   27  C23 UNL     1     -18.599  11.991  14.171  1.00  0.00     0.039 C
HETATM   28  C12 UNL     1     -20.289  11.700  17.497  1.00  0.00     0.062 A
HETATM   29  C20 UNL     1     -18.273  10.626  16.638  1.00  0.00     0.040 C
HETATM   30  C19 UNL     1     -21.347  12.556  17.312  1.00  0.00     0.073 A
HETATM   31 CL1  UNL     1     -22.460  12.756  18.646  1.00  0.00    -0.082 Cl
HETATM   32  C21 UNL     1     -17.670  10.105  15.382  1.00  0.00     0.005 C
HETATM   33  C22 UNL     1     -18.385  10.473  14.124  1.00  0.00     0.005 C
BRANCH  28  34
HETATM   34  C13 UNL     1     -20.102  10.990  18.751  1.00  0.00     0.256 C
HETATM   35  O6  UNL     1     -19.522  11.652  19.674  1.00  0.00    -0.267 OA
HETATM   36  N3  UNL     1     -20.527   9.651  18.957  1.00  0.00    -0.348 N
HETATM   37  C14 UNL     1     -21.185   8.906  17.905  1.00  0.00     0.126 C
HETATM   38  C18 UNL     1     -20.320   8.984  20.223  1.00  0.00     0.126 C
HETATM   39  C15 UNL     1     -22.546   8.420  18.329  1.00  0.00     0.020 C
HETATM   40  C16 UNL     1     -22.744   8.512  19.826  1.00  0.00     0.003 C
HETATM   41  C17 UNL     1     -21.481   8.059  20.525  1.00  0.00     0.020 C
ENDBRANCH  28  34
ENDBRANCH   1  23
TORSDOF 13
ENDMDL