MODEL 3
REMARK VINA RESULT: -8.527587481      2.597      4.325
REMARK  16 active torsions:
REMARK  status: ('A' for Active; 'I' for Inactive)
REMARK    1  A    between atoms: C3_3  and  C4_4
REMARK    2  A    between atoms: C3_3  and  C27_40
REMARK    3  A    between atoms: C4_4  and  C5_5
REMARK    4  A    between atoms: C5_5  and  O1_6
REMARK    5  A    between atoms: C5_5  and  C6_8
REMARK    6  A    between atoms: C6_8  and  C7_9
REMARK    7  A    between atoms: C7_9  and  O2_10
REMARK    8  A    between atoms: C7_9  and  C8_12
REMARK    9  A    between atoms: C8_12  and  C9_13
REMARK   10  A    between atoms: C10_14  and  C11_15
REMARK   11  A    between atoms: C17_22  and  C18_23
REMARK   12  A    between atoms: C21_27  and  O4_28
REMARK   13  A    between atoms: O4_28  and  C22_29
REMARK   14  A    between atoms: C22_29  and  O6_31
REMARK   15  A    between atoms: C25_34  and  O7_35
REMARK   16  A    between atoms: C26_37  and  O8_38
ROOT
HETATM    1  C1  UNL     1     -17.236  20.817  11.464  1.00  0.00     0.012 C
HETATM    2  C2  UNL     1     -17.941  21.793  11.580  1.00  0.00    -0.112 C
HETATM    3  C3  UNL     1     -18.743  22.967  11.729  1.00  0.00     0.071 C
ENDROOT
BRANCH   3   4
HETATM    4  C4  UNL     1     -20.034  22.836  12.463  1.00  0.00     0.049 C
BRANCH   4   5
HETATM    5  C5  UNL     1     -20.488  21.526  12.970  1.00  0.00     0.121 C
BRANCH   5   6
HETATM    6  O1  UNL     1     -21.364  20.967  12.018  1.00  0.00    -0.395 OA
ATOM      7  H1  UNL     1     -21.353  20.023  12.125  1.00  0.00     0.210 HD
ENDBRANCH   5   6
BRANCH   5   8
HETATM    8  C6  UNL     1     -20.933  21.485  14.366  1.00  0.00     0.063 C
BRANCH   8   9
HETATM    9  C7  UNL     1     -22.041  20.486  14.676  1.00  0.00     0.124 C
BRANCH   9  10
HETATM   10  O2  UNL     1     -23.222  20.761  14.036  1.00  0.00    -0.395 OA
ATOM     11  H2  UNL     1     -23.991  20.544  14.550  1.00  0.00     0.210 HD
ENDBRANCH   9  10
BRANCH   9  12
HETATM   12  C8  UNL     1     -22.147  20.189  16.121  1.00  0.00     0.058 C
BRANCH  12  13
HETATM   13  C9  UNL     1     -21.930  18.700  16.300  1.00  0.00    -0.027 C
HETATM   14  C10 UNL     1     -22.775  17.840  15.778  1.00  0.00    -0.016 C
BRANCH  14  15
HETATM   15  C11 UNL     1     -22.615  16.362  15.920  1.00  0.00     0.109 C
HETATM   16  C12 UNL     1     -23.614  15.807  16.854  1.00  0.00     0.144 C
HETATM   17  O3  UNL     1     -24.742  15.641  16.404  1.00  0.00    -0.296 OA
HETATM   18  C13 UNL     1     -23.344  15.451  18.254  1.00  0.00     0.074 C
HETATM   19  C14 UNL     1     -23.830  14.056  18.586  1.00  0.00     0.022 C
HETATM   20  C15 UNL     1     -22.034  15.802  18.780  1.00  0.00    -0.014 C
HETATM   21  C16 UNL     1     -20.970  15.057  18.995  1.00  0.00     0.005 C
HETATM   22  C17 UNL     1     -20.757  13.640  18.768  1.00  0.00    -0.048 C
HETATM   23  C19 UNL     1     -20.574  13.056  17.580  1.00  0.00    -0.011 C
HETATM   24  C20 UNL     1     -20.542  13.713  16.280  1.00  0.00     0.048 A
HETATM   25  C21 UNL     1     -20.470  12.705  15.083  1.00  0.00     0.149 A
HETATM   26  C24 UNL     1     -21.676  13.595  15.380  1.00  0.00     0.057 A
HETATM   27  C25 UNL     1     -21.784  14.691  14.342  1.00  0.00     0.155 C
HETATM   28  C26 UNL     1     -22.876  15.671  14.580  1.00  0.00     0.162 C
BRANCH  22  29
HETATM   29  C18 UNL     1     -20.620  12.740  19.967  1.00  0.00     0.152 C
HETATM   30 CL1  UNL     1     -21.676  13.283  21.286  1.00  0.00    -0.126 Cl
ENDBRANCH  22  29
BRANCH  25  31
HETATM   31  O4  UNL     1     -19.580  13.034  14.064  1.00  0.00    -0.291 OA
BRANCH  31  32
HETATM   32  C22 UNL     1     -18.243  12.767  14.180  1.00  0.00     0.406 C
HETATM   33  O5  UNL     1     -17.798  11.589  14.137  1.00  0.00    -0.230 OA
BRANCH  32  34
HETATM   34  O6  UNL     1     -17.300  13.797  14.353  1.00  0.00    -0.303 OA
HETATM   35  C23 UNL     1     -16.520  13.924  15.515  1.00  0.00     0.215 C
ENDBRANCH  32  34
ENDBRANCH  31  32
ENDBRANCH  25  31
BRANCH  27  36
HETATM   36  O7  UNL     1     -20.579  15.349  14.132  1.00  0.00    -0.392 OA
ATOM     37  H7  UNL     1     -20.436  16.057  14.751  1.00  0.00     0.210 HD
ENDBRANCH  27  36
BRANCH  28  38
HETATM   38  O8  UNL     1     -22.835  16.656  13.603  1.00  0.00    -0.392 OA
ATOM     39  H8  UNL     1     -21.972  16.619  13.209  1.00  0.00     0.210 HD
ENDBRANCH  28  38
ENDBRANCH  14  15
ENDBRANCH  12  13
ENDBRANCH   9  12
ENDBRANCH   8   9
ENDBRANCH   5   8
ENDBRANCH   4   5
ENDBRANCH   3   4
BRANCH   3  40
HETATM   40  C27 UNL     1     -18.000  24.113  12.314  1.00  0.00     0.005 A
HETATM   41  C28 UNL     1     -18.932  25.259  12.755  1.00  0.00     0.011 A
HETATM   42  C29 UNL     1     -17.692  25.417  11.844  1.00  0.00    -0.013 A
HETATM   43  C30 UNL     1     -17.991  26.072  10.553  1.00  0.00     0.010 C
ENDBRANCH   3  40
TORSDOF 16
ENDMDL