MODEL 1
REMARK VINA RESULT: -6.799522839      0.000      0.000
REMARK  6 active torsions:
REMARK  status: ('A' for Active; 'I' for Inactive)
REMARK    1  A    between atoms: C2_2  and  C4_4
REMARK    2  A    between atoms: C9_12  and  C10_13
REMARK    3  A    between atoms: C10_13  and  N2_14
REMARK    4  A    between atoms: C14_19  and  C15_20
REMARK    5  A    between atoms: C15_20  and  O4_22
REMARK    6  A    between atoms: O4_22  and  C16_23
ROOT
HETATM    1  C4  UNL     1      24.645  67.249  18.967  1.00  0.00    -0.005 C
HETATM    2  N1  UNL     1      25.947  67.430  19.034  1.00  0.00    -0.343 N
ATOM      3  H1  UNL     1      26.338  68.341  19.272  1.00  0.00     0.167 HD
HETATM    4  C5  UNL     1      26.815  66.292  18.758  1.00  0.00     0.157 A
HETATM    5  O1  UNL     1      28.047  65.923  18.646  1.00  0.00    -0.304 OA
HETATM    6  C6  UNL     1      28.163  64.616  18.300  1.00  0.00     0.155 A
HETATM    7  C7  UNL     1      26.876  64.093  18.178  1.00  0.00     0.016 A
HETATM    8  C8  UNL     1      26.138  65.172  18.488  1.00  0.00     0.041 A
HETATM    9  C9  UNL     1      24.751  64.801  18.668  1.00  0.00     0.125 C
HETATM   10  C13 UNL     1      23.918  66.017  18.523  1.00  0.00     0.098 C
HETATM   11  O2  UNL     1      24.598  63.703  17.845  1.00  0.00    -0.353 OA
HETATM   12  C14 UNL     1      25.865  63.061  17.803  1.00  0.00     0.258 C
ENDROOT
BRANCH  12  13
HETATM   13  C15 UNL     1      26.009  61.844  18.499  1.00  0.00     0.293 C
HETATM   14  O3  UNL     1      25.234  60.878  18.153  1.00  0.00    -0.262 OA
BRANCH  13  15
HETATM   15  O4  UNL     1      26.871  61.509  19.530  1.00  0.00    -0.314 OA
BRANCH  15  16
HETATM   16  C16 UNL     1      26.590  60.583  20.533  1.00  0.00     0.136 C
HETATM   17  C17 UNL     1      27.766  59.714  20.896  1.00  0.00     0.059 C
HETATM   18  C18 UNL     1      27.291  58.721  21.946  1.00  0.00     0.170 C
HETATM   19  O5  UNL     1      26.879  59.458  23.053  1.00  0.00    -0.391 OA
HETATM   20  C19 UNL     1      25.714  60.169  22.788  1.00  0.00     0.170 C
HETATM   21  C20 UNL     1      26.008  61.252  21.778  1.00  0.00     0.059 C
ENDBRANCH  15  16
ENDBRANCH  13  15
ENDBRANCH  12  13
BRANCH   9  22
HETATM   22  C10 UNL     1      24.518  64.233  20.073  1.00  0.00     0.315 C
BRANCH  22  23
HETATM   23  N2  UNL     1      23.180  64.326  20.602  1.00  0.00     0.083 N
HETATM   24  C11 UNL     1      22.951  62.946  21.221  1.00  0.00     0.309 C
HETATM   25  C12 UNL     1      23.138  65.202  21.803  1.00  0.00     0.309 C
ENDBRANCH  22  23
ENDBRANCH   9  22
BRANCH   1  26
HETATM   26  C2  UNL     1      23.771  68.419  19.262  1.00  0.00     0.023 C
HETATM   27  C1  UNL     1      22.345  67.861  19.348  1.00  0.00     0.016 C
HETATM   28  C3  UNL     1      23.794  69.421  18.152  1.00  0.00     0.016 C
ENDBRANCH   1  26
TORSDOF 6
ENDMDL