MODEL 3
REMARK VINA RESULT: -5.798114713      1.736      2.319
REMARK  5 active torsions:
REMARK  status: ('A' for Active; 'I' for Inactive)
REMARK    1  A    between atoms: N1_2  and  C2_3
REMARK    2  A    between atoms: N1_2  and  S2_24
REMARK    3  A    between atoms: C2_3  and  C3_4
REMARK    4  A    between atoms: C2_3  and  C10_13
REMARK    5  A    between atoms: N5_20  and  C11_21
ROOT
HETATM    1  C2  UNL     1      25.617  65.374  20.240  1.00  0.00     0.170 C
ENDROOT
BRANCH   1   2
HETATM    2  N1  UNL     1      24.354  66.057  20.323  1.00  0.00    -0.200 NA
HETATM    3  C1  UNL     1      23.410  65.450  21.209  1.00  0.00     0.130 C
BRANCH   2   4
HETATM    4  S2  UNL     1      23.594  66.183  18.771  1.00  0.00     0.208 S
HETATM    5  C14 UNL     1      24.090  67.646  17.930  1.00  0.00     0.180 C
HETATM    6  O2  UNL     1      23.914  64.932  17.991  1.00  0.00    -0.212 OA
HETATM    7  O3  UNL     1      22.109  66.277  19.022  1.00  0.00    -0.212 OA
ENDBRANCH   2   4
ENDBRANCH   1   2
BRANCH   1   8
HETATM    8  C3  UNL     1      25.741  64.242  21.182  1.00  0.00     0.045 C
HETATM    9  C4  UNL     1      25.752  62.968  20.875  1.00  0.00     0.104 C
HETATM   10  O1  UNL     1      25.647  62.451  19.588  1.00  0.00    -0.334 OA
HETATM   11  S1  UNL     1      25.913  61.743  22.165  1.00  0.00    -0.105 SA
HETATM   12  C5  UNL     1      25.714  61.038  19.376  1.00  0.00     0.062 C
HETATM   13  C6  UNL     1      27.101  60.502  19.626  1.00  0.00     0.046 C
HETATM   14  C7  UNL     1      25.394  60.809  17.915  1.00  0.00     0.046 C
HETATM   15  C8  UNL     1      24.664  60.365  20.207  1.00  0.00     0.048 C
HETATM   16  C9  UNL     1      25.015  60.271  21.661  1.00  0.00     0.084 C
ENDBRANCH   1   8
BRANCH   1  17
HETATM   17  C10 UNL     1      26.676  66.395  20.360  1.00  0.00     0.138 A
HETATM   18  N2  UNL     1      26.858  67.205  21.423  1.00  0.00    -0.270 N
HETATM   19  N3  UNL     1      27.880  67.996  21.196  1.00  0.00    -0.227 N
ATOM     20  H2  UNL     1      26.291  67.203  22.270  1.00  0.00     0.190 HD
HETATM   21  N4  UNL     1      28.386  67.735  20.010  1.00  0.00    -0.224 N
ATOM     22  H3  UNL     1      28.229  68.705  21.840  1.00  0.00     0.210 HD
HETATM   23  N5  UNL     1      27.647  66.751  19.494  1.00  0.00    -0.257 N
ATOM     24  H4  UNL     1      29.184  68.194  19.572  1.00  0.00     0.210 HD
BRANCH  23  25
HETATM   25  C11 UNL     1      27.856  66.153  18.193  1.00  0.00     0.111 A
HETATM   26  C12 UNL     1      28.288  64.714  18.138  1.00  0.00     0.029 A
HETATM   27  C13 UNL     1      29.224  65.821  17.724  1.00  0.00     0.029 A
ENDBRANCH  23  25
ENDBRANCH   1  17
TORSDOF 5
ENDMDL