MODEL 4
REMARK VINA RESULT: -7.627222291      2.386      7.394
REMARK  7 active torsions:
REMARK  status: ('A' for Active; 'I' for Inactive)
REMARK    1  A    between atoms: C2_2  and  C4_4
REMARK    2  A    between atoms: C4_4  and  O2_6
REMARK    3  A    between atoms: O2_6  and  C5_7
REMARK    4  A    between atoms: C6_9  and  C7_10
REMARK    5  A    between atoms: C8_11  and  C9_12
REMARK    6  A    between atoms: C9_12  and  O5_14
REMARK    7  A    between atoms: O5_14  and  C10_15
ROOT
HETATM    1  C5  UNL     1      20.658  61.877  22.972  1.00  0.00     0.302 C
HETATM    2  O3  UNL     1      21.967  62.091  22.668  1.00  0.00    -0.348 OA
HETATM    3  C6  UNL     1      22.139  62.846  21.506  1.00  0.00     0.154 C
HETATM    4  C15 UNL     1      21.323  64.079  21.469  1.00  0.00     0.047 C
HETATM    5  C16 UNL     1      21.711  65.128  22.470  1.00  0.00     0.015 C
HETATM    6  C17 UNL     1      19.857  63.716  21.559  1.00  0.00     0.175 C
HETATM    7  O6  UNL     1      19.224  64.249  22.720  1.00  0.00    -0.289 OA
HETATM    8  C18 UNL     1      18.133  63.379  22.919  1.00  0.00     0.407 C
HETATM    9  O7  UNL     1      17.070  63.578  23.560  1.00  0.00    -0.229 OA
HETATM   10  O8  UNL     1      18.391  62.160  22.261  1.00  0.00    -0.285 OA
HETATM   11  C19 UNL     1      19.749  62.248  21.818  1.00  0.00     0.219 C
ENDROOT
BRANCH   3  12
HETATM   12  C7  UNL     1      23.550  63.123  21.238  1.00  0.00     0.011 C
HETATM   13  C8  UNL     1      24.428  62.150  21.069  1.00  0.00     0.081 C
BRANCH  13  14
HETATM   14  C9  UNL     1      25.848  62.491  20.799  1.00  0.00     0.283 C
HETATM   15  O4  UNL     1      26.221  63.649  21.076  1.00  0.00    -0.260 OA
BRANCH  14  16
HETATM   16  O5  UNL     1      26.728  61.587  20.270  1.00  0.00    -0.313 OA
BRANCH  16  17
HETATM   17  C10 UNL     1      26.693  60.193  20.569  1.00  0.00     0.132 C
HETATM   18  C11 UNL     1      28.065  59.643  20.255  1.00  0.00     0.032 C
HETATM   19  C12 UNL     1      28.453  58.713  21.360  1.00  0.00     0.002 C
HETATM   20  C13 UNL     1      27.267  58.637  22.298  1.00  0.00     0.002 C
HETATM   21  C14 UNL     1      26.617  59.980  22.082  1.00  0.00     0.032 C
ENDBRANCH  16  17
ENDBRANCH  14  16
ENDBRANCH  13  14
ENDBRANCH   3  12
BRANCH   1  22
HETATM   22  O2  UNL     1      20.369  60.514  23.272  1.00  0.00    -0.283 OA
BRANCH  22  23
HETATM   23  C4  UNL     1      20.446  60.014  24.566  1.00  0.00     0.290 C
HETATM   24  O1  UNL     1      19.405  60.137  25.260  1.00  0.00    -0.260 OA
BRANCH  23  25
HETATM   25  C2  UNL     1      21.635  59.389  25.112  1.00  0.00     0.004 C
HETATM   26  C1  UNL     1      21.613  58.937  26.345  1.00  0.00     0.024 C
HETATM   27  C3  UNL     1      22.885  59.232  24.339  1.00  0.00     0.054 C
ENDBRANCH  23  25
ENDBRANCH  22  23
ENDBRANCH   1  22
TORSDOF 7
ENDMDL