MODEL 3
REMARK VINA RESULT: -7.078210330      3.623      6.046
REMARK  5 active torsions:
REMARK  status: ('A' for Active; 'I' for Inactive)
REMARK    1  A    between atoms: S1_2  and  C2_3
REMARK    2  A    between atoms: C2_3  and  C3_4
REMARK    3  A    between atoms: N1_9  and  C8_10
REMARK    4  A    between atoms: C9_13  and  N3_14
REMARK    5  A    between atoms: C14_21  and  N5_22
ROOT
HETATM    1  C8  UNL     1      25.098  62.002  20.845  1.00  0.00     0.709 A
HETATM    2  N2  UNL     1      24.078  61.644  21.640  1.00  0.00    -0.021 N
ATOM      3  H2  UNL     1      23.230  62.210  21.623  1.00  0.00     0.203 HD
HETATM    4  C9  UNL     1      24.118  60.578  22.457  1.00  0.00     0.709 A
HETATM    5  N4  UNL     1      25.254  59.861  22.446  1.00  0.00    -0.021 N
ATOM      6  H4  UNL     1      25.321  59.044  23.053  1.00  0.00     0.203 HD
HETATM    7  C14 UNL     1      26.315  60.176  21.664  1.00  0.00     0.709 A
HETATM    8  N6  UNL     1      26.206  61.246  20.880  1.00  0.00    -0.021 N
ATOM      9  H6  UNL     1      26.994  61.502  20.284  1.00  0.00     0.203 HD
ENDROOT
BRANCH   1  10
HETATM   10  N1  UNL     1      25.006  63.144  19.995  1.00  0.00    -0.211 N
HETATM   11  C3  UNL     1      24.299  64.296  20.478  1.00  0.00     0.111 C
HETATM   12  C4  UNL     1      23.508  65.006  19.428  1.00  0.00     0.027 C
HETATM   13  C5  UNL     1      24.064  64.915  18.054  1.00  0.00     0.004 C
HETATM   14  C6  UNL     1      24.626  63.585  17.683  1.00  0.00     0.020 C
HETATM   15  C7  UNL     1      25.631  63.082  18.686  1.00  0.00     0.141 C
BRANCH  11  16
HETATM   16  C2  UNL     1      25.236  65.277  21.181  1.00  0.00     0.099 C
BRANCH  16  17
HETATM   17  S1  UNL     1      24.777  66.989  20.836  1.00  0.00    -0.172 SA
HETATM   18  C1  UNL     1      23.464  67.468  21.969  1.00  0.00     0.089 C
ENDBRANCH  16  17
ENDBRANCH  11  16
ENDBRANCH   1  10
BRANCH   4  19
HETATM   19  N3  UNL     1      23.018  60.221  23.291  1.00  0.00    -0.217 N
HETATM   20  C10 UNL     1      23.000  59.050  24.146  1.00  0.00     0.141 C
HETATM   21  C11 UNL     1      22.108  59.482  25.274  1.00  0.00     0.022 C
HETATM   22  C12 UNL     1      21.031  60.271  24.517  1.00  0.00     0.022 C
HETATM   23  C13 UNL     1      21.787  60.944  23.414  1.00  0.00     0.141 C
ENDBRANCH   4  19
BRANCH   7  24
HETATM   24  N5  UNL     1      27.500  59.402  21.675  1.00  0.00    -0.213 N
HETATM   25  C15 UNL     1      28.398  59.428  20.550  1.00  0.00     0.167 C
HETATM   26  C16 UNL     1      29.241  58.167  20.563  1.00  0.00     0.188 C
HETATM   27  O1  UNL     1      28.552  57.080  21.044  1.00  0.00    -0.388 OA
HETATM   28  C17 UNL     1      28.104  57.181  22.339  1.00  0.00     0.188 C
HETATM   29  C18 UNL     1      27.823  58.577  22.809  1.00  0.00     0.167 C
ENDBRANCH   7  24
TORSDOF 5
ENDMDL