MODEL 3
REMARK VINA RESULT: -6.556835184      0.987      1.125
REMARK  9 active torsions:
REMARK  status: ('A' for Active; 'I' for Inactive)
REMARK    1  A    between atoms: C2_2  and  O1_3
REMARK    2  A    between atoms: O1_3  and  C3_4
REMARK    3  A    between atoms: C3_4  and  C4_5
REMARK    4  A    between atoms: C4_5  and  S1_6
REMARK    5  A    between atoms: S1_6  and  C5_7
REMARK    6  A    between atoms: N2_12  and  C8_13
REMARK    7  A    between atoms: C8_13  and  O2_15
REMARK    8  A    between atoms: O2_15  and  N3_16
REMARK       I    between atoms: C9_18  and  N4_19
REMARK       I    between atoms: C9_18  and  N5_23
REMARK    9  A    between atoms: N4_19  and  O3_21
ROOT
HETATM    1  C8  UNL     1      26.266  61.335  20.379  1.00  0.00     0.244 C
HETATM    2  S2  UNL     1      25.757  61.033  18.860  1.00  0.00    -0.030 SA
ENDROOT
BRANCH   1   3
HETATM    3  N2  UNL     1      26.605  60.260  21.225  1.00  0.00    -0.296 N
HETATM    4  C5  UNL     1      25.820  59.757  22.287  1.00  0.00     0.145 A
HETATM    5  N1  UNL     1      26.421  58.776  22.867  1.00  0.00    -0.369 N
HETATM    6  C6  UNL     1      27.691  58.499  22.261  1.00  0.00     0.142 A
ATOM      7  H1  UNL     1      26.040  58.260  23.660  1.00  0.00     0.161 HD
HETATM    8  C7  UNL     1      27.819  59.490  21.145  1.00  0.00     0.153 A
BRANCH   4   9
HETATM    9  S1  UNL     1      24.220  60.402  22.750  1.00  0.00    -0.092 SA
BRANCH   9  10
HETATM   10  C4  UNL     1      23.473  59.384  24.067  1.00  0.00     0.108 C
BRANCH  10  11
HETATM   11  C3  UNL     1      22.186  60.012  24.503  1.00  0.00     0.178 C
BRANCH  11  12
HETATM   12  O1  UNL     1      21.310  60.307  23.479  1.00  0.00    -0.391 OA
BRANCH  12  13
HETATM   13  C2  UNL     1      19.995  60.093  23.795  1.00  0.00     0.163 C
HETATM   14  C1  UNL     1      19.147  60.855  22.765  1.00  0.00     0.033 C
ENDBRANCH  12  13
ENDBRANCH  11  12
ENDBRANCH  10  11
ENDBRANCH   9  10
ENDBRANCH   4   9
ENDBRANCH   1   3
BRANCH   1  15
HETATM   15  O2  UNL     1      26.344  62.665  20.781  1.00  0.00    -0.192 OA
BRANCH  15  16
HETATM   16  N3  UNL     1      26.500  63.581  19.770  1.00  0.00    -0.087 N
HETATM   17  C9  UNL     1      25.837  64.697  19.692  1.00  0.00     0.720 C
HETATM   18  N4  UNL     1      26.156  65.509  18.555  1.00  0.00    -0.097 N
HETATM   19  N5  UNL     1      24.875  65.075  20.652  1.00  0.00    -0.214 N
ATOM     20  H4  UNL     1      25.429  66.069  18.110  1.00  0.00     0.213 HD
HETATM   21  C10 UNL     1      23.667  64.340  20.773  1.00  0.00     0.141 C
HETATM   22  C14 UNL     1      25.094  66.186  21.508  1.00  0.00     0.141 C
HETATM   23  C11 UNL     1      22.569  64.999  21.515  1.00  0.00     0.020 C
HETATM   24  C12 UNL     1      22.594  66.475  21.608  1.00  0.00     0.003 C
HETATM   25  C13 UNL     1      23.927  67.137  21.574  1.00  0.00     0.020 C
ATOM     26  H3  UNL     1      27.177  63.374  19.036  1.00  0.00     0.214 HD
BRANCH  18  27
HETATM   27  O3  UNL     1      27.314  65.533  18.111  1.00  0.00    -0.276 OA
ATOM     28  H3  UNL     1      27.846  66.315  18.203  1.00  0.00     0.245 HD
ENDBRANCH  18  27
ENDBRANCH  15  16
ENDBRANCH   1  15
TORSDOF 9
ENDMDL