MODEL 4
REMARK VINA RESULT: -7.117719370      0.983      1.153
REMARK  5 active torsions:
REMARK  status: ('A' for Active; 'I' for Inactive)
REMARK    1  A    between atoms: C2_2  and  N1_3
REMARK    2  A    between atoms: N1_3  and  C4_5
REMARK    3  A    between atoms: C6_10  and  C7_11
REMARK    4  A    between atoms: C7_11  and  N3_12
REMARK    5  A    between atoms: N4_15  and  C10_16
ROOT
HETATM    1  C4  UNL     1      28.191  66.649  18.724  1.00  0.00     0.697 A
HETATM    2  N2  UNL     1      27.944  66.910  20.033  1.00  0.00    -0.167 N
ATOM      3  H2  UNL     1      28.590  67.301  20.719  1.00  0.00     0.186 HD
HETATM    4  C5  UNL     1      26.641  66.537  20.235  1.00  0.00     0.186 A
HETATM    5  S1  UNL     1      25.387  66.424  21.379  1.00  0.00    -0.052 SA
HETATM    6  C6  UNL     1      24.180  65.767  20.379  1.00  0.00     0.028 A
HETATM    7  C18 UNL     1      24.834  65.665  19.168  1.00  0.00     0.048 A
HETATM    8  C19 UNL     1      24.084  65.101  17.960  1.00  0.00     0.071 C
HETATM    9  N5  UNL     1      26.092  66.068  19.128  1.00  0.00    -0.222 N
HETATM   10  N6  UNL     1      27.076  66.147  18.197  1.00  0.00    -0.123 N
ATOM     11  H6  UNL     1      26.975  65.860  17.224  1.00  0.00     0.206 HD
ENDROOT
BRANCH   6  12
HETATM   12  C7  UNL     1      22.745  65.392  20.641  1.00  0.00     0.165 C
BRANCH  12  13
HETATM   13  N3  UNL     1      22.709  64.244  21.469  1.00  0.00    -0.405 N
HETATM   14  C8  UNL     1      23.069  62.997  20.915  1.00  0.00     0.136 C
HETATM   15  C9  UNL     1      23.095  61.967  22.061  1.00  0.00     0.136 C
HETATM   16  N4  UNL     1      21.799  61.812  22.597  1.00  0.00    -0.405 N
HETATM   17  C16 UNL     1      20.951  62.957  22.560  1.00  0.00     0.136 C
HETATM   18  C17 UNL     1      21.696  64.249  22.471  1.00  0.00     0.136 C
BRANCH  16  19
HETATM   19  C10 UNL     1      21.615  60.981  23.713  1.00  0.00     0.079 C
HETATM   20  C11 UNL     1      20.244  60.371  23.882  1.00  0.00     0.025 C
HETATM   21  C12 UNL     1      20.164  59.959  25.357  1.00  0.00     0.002 C
HETATM   22  C13 UNL     1      21.203  58.933  25.674  1.00  0.00     0.000 C
HETATM   23  C14 UNL     1      22.577  59.251  25.173  1.00  0.00     0.002 C
HETATM   24  C15 UNL     1      22.608  59.829  23.782  1.00  0.00     0.025 C
ENDBRANCH  16  19
ENDBRANCH  12  13
ENDBRANCH   6  12
BRANCH   1  25
HETATM   25  N1  UNL     1      29.435  66.873  18.055  1.00  0.00    -0.221 N
HETATM   26  C3  UNL     1      30.076  68.162  18.186  1.00  0.00     0.168 C
BRANCH  25  27
HETATM   27  C2  UNL     1      30.093  65.864  17.259  1.00  0.00     0.136 C
HETATM   28  C1  UNL     1      31.063  65.093  18.150  1.00  0.00     0.027 C
ENDBRANCH  25  27
ENDBRANCH   1  25
TORSDOF 5
ENDMDL