MODEL 5
REMARK VINA RESULT: -6.475891648      2.793      4.213
REMARK  5 active torsions:
REMARK  status: ('A' for Active; 'I' for Inactive)
REMARK    1  A    between atoms: O1_2  and  C2_3
REMARK    2  A    between atoms: C9_11  and  C10_12
REMARK    3  A    between atoms: C10_12  and  C11_13
REMARK    4  A    between atoms: C11_13  and  C12_14
REMARK    5  A    between atoms: C12_14  and  C13_15
ROOT
HETATM    1  C2  UNL     1      27.649  65.421  18.699  1.00  0.00     0.324 C
HETATM    2  O2  UNL     1      26.507  64.856  18.071  1.00  0.00    -0.347 OA
HETATM    3  C3  UNL     1      25.819  64.223  19.082  1.00  0.00     0.170 C
HETATM    4  C4  UNL     1      25.051  63.030  18.486  1.00  0.00     0.014 C
HETATM    5  C5  UNL     1      26.133  62.088  17.919  1.00  0.00     0.012 C
HETATM    6  C6  UNL     1      24.344  62.239  19.543  1.00  0.00     0.007 C
HETATM    7  C7  UNL     1      23.705  63.129  20.619  1.00  0.00     0.011 C
HETATM    8  C8  UNL     1      23.627  64.494  20.036  1.00  0.00     0.059 C
HETATM    9  C9  UNL     1      22.543  65.371  20.539  1.00  0.00     0.139 C
HETATM   10  O3  UNL     1      22.445  66.468  19.630  1.00  0.00    -0.313 OA
HETATM   11  C16 UNL     1      23.614  66.725  18.869  1.00  0.00     0.291 C
HETATM   12  O4  UNL     1      23.573  67.091  17.670  1.00  0.00    -0.262 OA
HETATM   13  C17 UNL     1      24.853  66.523  19.620  1.00  0.00     0.265 C
HETATM   14  O5  UNL     1      26.021  66.986  19.109  1.00  0.00    -0.330 OA
HETATM   15  C18 UNL     1      27.048  66.328  19.783  1.00  0.00     0.244 C
HETATM   16  C19 UNL     1      28.128  67.402  20.012  1.00  0.00     0.087 C
HETATM   17  O6  UNL     1      26.794  65.760  20.951  1.00  0.00    -0.195 OA
HETATM   18  O7  UNL     1      25.678  65.135  21.199  1.00  0.00    -0.220 OA
HETATM   19  C20 UNL     1      25.000  65.078  19.973  1.00  0.00     0.164 C
ENDROOT
BRANCH   9  20
HETATM   20  C10 UNL     1      22.582  65.734  21.965  1.00  0.00     0.033 C
BRANCH  20  21
HETATM   21  C11 UNL     1      21.682  64.827  22.781  1.00  0.00     0.003 C
BRANCH  21  22
HETATM   22  C12 UNL     1      20.330  64.671  22.167  1.00  0.00     0.005 C
BRANCH  22  23
HETATM   23  C13 UNL     1      20.155  63.189  21.840  1.00  0.00    -0.014 A
HETATM   24  C14 UNL     1      19.234  62.379  22.714  1.00  0.00     0.005 A
HETATM   25  C15 UNL     1      20.697  62.166  22.800  1.00  0.00     0.005 A
ENDBRANCH  22  23
ENDBRANCH  21  22
ENDBRANCH  20  21
ENDBRANCH   9  20
BRANCH   1  26
HETATM   26  O1  UNL     1      28.237  66.240  17.767  1.00  0.00    -0.361 OA
HETATM   27  C1  UNL     1      29.414  65.749  17.246  1.00  0.00     0.205 C
ENDBRANCH   1  26
TORSDOF 5
ENDMDL