MODEL 1
REMARK VINA RESULT: -6.974767334      0.000      0.000
REMARK  5 active torsions:
REMARK  status: ('A' for Active; 'I' for Inactive)
REMARK    1  A    between atoms: C3_4  and  C4_5
REMARK    2  A    between atoms: C4_5  and  N1_6
REMARK    3  A    between atoms: N2_9  and  C7_10
REMARK    4  A    between atoms: C7_10  and  C8_11
REMARK    5  A    between atoms: C9_16  and  N5_17
ROOT
HETATM    1  C8  UNL     1      27.940  67.055  20.032  1.00  0.00     0.098 A
HETATM    2  N3  UNL     1      27.738  68.086  20.851  1.00  0.00    -0.294 N
ATOM      3  H3  UNL     1      26.787  68.384  21.071  1.00  0.00     0.187 HD
HETATM    4  N4  UNL     1      28.718  68.691  21.352  1.00  0.00    -0.279 N
ATOM      5  H4  UNL     1      28.558  69.481  21.979  1.00  0.00     0.189 HD
HETATM    6  C9  UNL     1      29.961  68.311  21.073  1.00  0.00     0.163 A
HETATM    7  S2  UNL     1      29.659  66.999  20.020  1.00  0.00    -0.036 SA
ENDROOT
BRANCH   1   8
HETATM    8  C7  UNL     1      26.914  66.212  19.335  1.00  0.00     0.338 C
BRANCH   8   9
HETATM    9  N2  UNL     1      25.816  65.912  20.199  1.00  0.00     0.097 N
HETATM   10  C6  UNL     1      26.315  64.922  21.152  1.00  0.00     0.292 C
HETATM   11  C5  UNL     1      26.106  63.561  20.469  1.00  0.00     0.147 C
HETATM   12  N1  UNL     1      24.730  63.248  20.638  1.00  0.00    -0.405 N
HETATM   13  C15 UNL     1      23.913  64.321  20.195  1.00  0.00     0.147 C
HETATM   14  C14 UNL     1      24.617  65.475  19.565  1.00  0.00     0.292 C
BRANCH  12  15
HETATM   15  C4  UNL     1      24.312  61.935  20.313  1.00  0.00     0.163 C
BRANCH  15  16
HETATM   16  C3  UNL     1      24.996  60.968  21.237  1.00  0.00    -0.000 A
HETATM   17  S1  UNL     1      26.457  60.110  21.066  1.00  0.00    -0.105 SA
HETATM   18  C2  UNL     1      26.466  59.269  22.547  1.00  0.00     0.050 A
HETATM   19  C1  UNL     1      25.305  59.693  23.142  1.00  0.00     0.008 A
HETATM   20  C16 UNL     1      24.548  60.566  22.469  1.00  0.00     0.017 A
ENDBRANCH  15  16
ENDBRANCH  12  15
ENDBRANCH   8   9
ENDBRANCH   1   8
BRANCH   6  21
HETATM   21  N5  UNL     1      31.200  68.855  21.531  1.00  0.00    -0.356 N
HETATM   22  C10 UNL     1      31.196  70.155  22.160  1.00  0.00     0.151 C
HETATM   23  C11 UNL     1      32.473  70.306  22.947  1.00  0.00     0.187 C
HETATM   24  O1  UNL     1      32.890  69.136  23.541  1.00  0.00    -0.388 OA
HETATM   25  C12 UNL     1      33.198  68.123  22.677  1.00  0.00     0.187 C
HETATM   26  C13 UNL     1      32.431  68.155  21.383  1.00  0.00     0.151 C
ENDBRANCH   6  21
TORSDOF 5
ENDMDL