MODEL 1
REMARK VINA RESULT: -6.381426522      0.000      0.000
REMARK  7 active torsions:
REMARK  status: ('A' for Active; 'I' for Inactive)
REMARK    1  A    between atoms: C9_10  and  O2_11
REMARK    2  A    between atoms: O2_11  and  C10_12
REMARK    3  A    between atoms: C12_16  and  O5_17
REMARK    4  A    between atoms: C14_19  and  O6_20
REMARK    5  A    between atoms: O6_20  and  C15_21
REMARK    6  A    between atoms: C15_21  and  C16_23
REMARK    7  A    between atoms: C16_23  and  C17_25
ROOT
HETATM    1  C1  UNL     1      21.448  65.348  21.082  1.00  0.00     0.017 C
HETATM    2  C2  UNL     1      22.727  65.325  21.318  1.00  0.00    -0.059 C
HETATM    3  C3  UNL     1      23.305  66.229  22.323  1.00  0.00     0.036 C
HETATM    4  C4  UNL     1      24.690  66.616  21.924  1.00  0.00     0.010 C
HETATM    5  C5  UNL     1      24.837  66.542  20.419  1.00  0.00     0.005 C
HETATM    6  C6  UNL     1      26.184  67.142  20.079  1.00  0.00     0.011 C
HETATM    7  C7  UNL     1      24.769  65.122  19.919  1.00  0.00     0.109 C
HETATM    8  C8  UNL     1      26.050  64.425  20.004  1.00  0.00     0.198 C
HETATM    9  O1  UNL     1      26.806  64.268  20.947  1.00  0.00    -0.291 OA
HETATM   10  C9  UNL     1      26.315  63.882  18.631  1.00  0.00     0.344 C
HETATM   11  O4  UNL     1      25.731  64.834  17.823  1.00  0.00    -0.323 OA
HETATM   12  C12 UNL     1      24.509  65.134  18.432  1.00  0.00     0.282 C
HETATM   13  C14 UNL     1      23.628  64.411  20.601  1.00  0.00     0.182 C
ENDROOT
BRANCH  12  14
HETATM   14  O5  UNL     1      24.042  66.374  18.012  1.00  0.00    -0.365 OA
HETATM   15  C13 UNL     1      22.805  66.178  17.395  1.00  0.00     0.204 C
ENDBRANCH  12  14
BRANCH  13  16
HETATM   16  O6  UNL     1      24.078  63.335  21.396  1.00  0.00    -0.304 OA
BRANCH  16  17
HETATM   17  C15 UNL     1      23.757  62.008  21.162  1.00  0.00     0.330 C
HETATM   18  O7  UNL     1      23.941  61.582  20.007  1.00  0.00    -0.256 OA
BRANCH  17  19
HETATM   19  C16 UNL     1      23.240  61.223  22.257  1.00  0.00     0.227 C
HETATM   20  O8  UNL     1      22.186  61.530  22.866  1.00  0.00    -0.286 OA
BRANCH  19  21
HETATM   21  C17 UNL     1      23.980  60.009  22.679  1.00  0.00     0.058 C
HETATM   22  C18 UNL     1      23.391  59.507  23.996  1.00  0.00     0.018 C
HETATM   23  C19 UNL     1      25.465  60.330  22.864  1.00  0.00     0.018 C
ENDBRANCH  19  21
ENDBRANCH  17  19
ENDBRANCH  16  17
ENDBRANCH  13  16
BRANCH  10  24
HETATM   24  O2  UNL     1      27.679  63.702  18.394  1.00  0.00    -0.282 OA
BRANCH  24  25
HETATM   25  C10 UNL     1      28.495  64.542  17.691  1.00  0.00     0.257 C
HETATM   26  C11 UNL     1      29.003  65.805  18.291  1.00  0.00     0.126 C
HETATM   27  O3  UNL     1      28.813  64.226  16.515  1.00  0.00    -0.266 OA
ENDBRANCH  24  25
ENDBRANCH  10  24
TORSDOF 7
ENDMDL