MODEL 4
REMARK VINA RESULT: -6.597895809      3.467      4.210
REMARK  6 active torsions:
REMARK  status: ('A' for Active; 'I' for Inactive)
REMARK    1  A    between atoms: C2_2  and  C3_3
REMARK    2  A    between atoms: C3_3  and  C4_4
REMARK    3  A    between atoms: C4_4  and  C5_5
REMARK    4  A    between atoms: C4_4  and  N5_17
REMARK    5  A    between atoms: N4_12  and  C6_13
REMARK    6  A    between atoms: N6_20  and  C12_21
ROOT
HETATM    1  C4  UNL     1      23.055  67.266  20.376  1.00  0.00     0.035 C
ENDROOT
BRANCH   1   2
HETATM    2  C3  UNL     1      22.892  68.090  19.159  1.00  0.00     0.055 C
BRANCH   2   3
HETATM    3  C2  UNL     1      21.884  67.598  18.177  1.00  0.00     0.001 C
HETATM    4  C1  UNL     1      22.388  66.806  17.044  1.00  0.00     0.005 C
ENDBRANCH   2   3
ENDBRANCH   1   2
BRANCH   1   5
HETATM    5  C5  UNL     1      24.349  67.093  20.990  1.00  0.00     0.157 A
HETATM    6  N1  UNL     1      24.592  67.220  22.328  1.00  0.00    -0.267 N
HETATM    7  N2  UNL     1      25.841  67.018  22.625  1.00  0.00    -0.226 N
ATOM      8  H1  UNL     1      23.874  67.448  23.016  1.00  0.00     0.190 HD
HETATM    9  N3  UNL     1      26.401  66.758  21.464  1.00  0.00    -0.224 N
ATOM     10  H2  UNL     1      26.283  67.052  23.544  1.00  0.00     0.210 HD
HETATM   11  N4  UNL     1      25.545  66.791  20.454  1.00  0.00    -0.250 N
ATOM     12  H3  UNL     1      27.394  66.552  21.352  1.00  0.00     0.210 HD
BRANCH  11  13
HETATM   13  C6  UNL     1      25.925  66.552  19.112  1.00  0.00     0.046 C
HETATM   14  C7  UNL     1      26.008  67.829  18.262  1.00  0.00     0.040 C
HETATM   15  C8  UNL     1      27.449  66.188  19.180  1.00  0.00     0.040 C
HETATM   16  C9  UNL     1      25.437  65.382  18.378  1.00  0.00     0.040 C
ENDBRANCH  11  13
ENDBRANCH   1   5
BRANCH   1  17
HETATM   17  N5  UNL     1      22.149  66.106  20.432  1.00  0.00    -0.280 NA
HETATM   18  C10 UNL     1      21.225  66.211  21.528  1.00  0.00     0.125 C
HETATM   19  C11 UNL     1      21.005  65.043  22.390  1.00  0.00     0.287 C
HETATM   20  N6  UNL     1      21.412  63.782  21.834  1.00  0.00     0.097 N
HETATM   21  C17 UNL     1      22.843  63.995  21.539  1.00  0.00     0.287 C
HETATM   22  C18 UNL     1      22.788  64.851  20.308  1.00  0.00     0.125 C
BRANCH  20  23
HETATM   23  C12 UNL     1      21.182  62.655  22.647  1.00  0.00     0.247 C
HETATM   24  C13 UNL     1      19.920  61.957  22.115  1.00  0.00     0.045 C
HETATM   25  C14 UNL     1      19.348  61.060  23.219  1.00  0.00     0.079 C
HETATM   26  C15 UNL     1      20.533  60.470  23.906  1.00  0.00     0.112 C
HETATM   27  S1  UNL     1      20.286  59.813  25.375  1.00  0.00    -0.058 SA
HETATM   28  O1  UNL     1      21.803  60.482  23.311  1.00  0.00    -0.342 OA
HETATM   29  C16 UNL     1      22.269  61.602  22.573  1.00  0.00     0.212 C
ENDBRANCH  20  23
ENDBRANCH   1  17
TORSDOF 6
ENDMDL