MODEL 3
REMARK VINA RESULT: -7.358051073      2.100      3.316
REMARK  4 active torsions:
REMARK  status: ('A' for Active; 'I' for Inactive)
REMARK    1  A    between atoms: C2_2  and  C3_3
REMARK    2  A    between atoms: C5_10  and  N4_11
REMARK       I    between atoms: N4_11  and  C6_12
REMARK       I    between atoms: C6_12  and  N5_13
REMARK       I    between atoms: C6_12  and  N8_20
REMARK    3  A    between atoms: N5_13  and  N6_15
REMARK    4  A    between atoms: N8_20  and  C7_22
ROOT
HETATM    1  N4  UNL     1      32.468  78.266  62.849  1.00  0.00    -0.365 NA
HETATM    2  C6  UNL     1      33.068  78.352  63.856  1.00  0.00     0.272 C
HETATM    3  N5  UNL     1      33.235  77.178  64.709  1.00  0.00    -0.245 N
ATOM      4  H5  UNL     1      32.935  77.187  65.684  1.00  0.00     0.192 HD
HETATM    5  N8  UNL     1      33.678  79.590  64.327  1.00  0.00    -0.345 N
ATOM      6  H8  UNL     1      33.198  80.470  64.137  1.00  0.00     0.164 HD
ENDROOT
BRANCH   1   7
HETATM    7  C5  UNL     1      31.761  77.987  61.750  1.00  0.00     0.177 A
HETATM    8  C3  UNL     1      30.433  77.537  61.654  1.00  0.00     0.069 A
HETATM    9  N1  UNL     1      30.178  77.411  60.354  1.00  0.00    -0.300 N
HETATM   10  N2  UNL     1      31.228  77.740  59.633  1.00  0.00    -0.285 N
ATOM     11  H1  UNL     1      29.287  77.099  59.968  1.00  0.00     0.186 HD
HETATM   12  C4  UNL     1      32.233  78.103  60.413  1.00  0.00     0.174 A
ATOM     13  H2  UNL     1      31.262  77.718  58.614  1.00  0.00     0.188 HD
HETATM   14  N3  UNL     1      33.550  78.535  60.076  1.00  0.00    -0.078 NA
BRANCH   8  15
HETATM   15  C2  UNL     1      29.505  77.252  62.803  1.00  0.00     0.058 C
HETATM   16  C1  UNL     1      28.542  76.149  62.519  1.00  0.00     0.011 C
ENDBRANCH   8  15
ENDBRANCH   1   7
BRANCH   3  17
HETATM   17  N6  UNL     1      33.760  76.160  64.200  1.00  0.00    -0.246 N
HETATM   18  N7  UNL     1      34.149  74.988  64.254  1.00  0.00    -0.331 N
ATOM     19  H72 UNL     1      33.914  74.738  65.215  1.00  0.00     0.178 HD
ATOM     20  H71 UNL     1      34.576  74.159  63.840  1.00  0.00     0.178 HD
ATOM     21  H6  UNL     1      33.980  76.447  63.246  1.00  0.00     0.208 HD
ENDBRANCH   3  17
BRANCH   5  22
HETATM   22  C7  UNL     1      34.906  79.631  65.037  1.00  0.00     0.088 C
HETATM   23  C8  UNL     1      34.947  80.532  66.232  1.00  0.00     0.028 C
HETATM   24  C9  UNL     1      36.448  80.791  66.422  1.00  0.00     0.039 C
HETATM   25  C10 UNL     1      37.103  80.537  65.094  1.00  0.00     0.172 C
HETATM   26  F1  UNL     1      37.838  81.596  64.629  1.00  0.00    -0.249 F
HETATM   27  C11 UNL     1      35.947  80.324  64.145  1.00  0.00     0.062 C
ENDBRANCH   5  22
TORSDOF 4
ENDMDL