MODEL 4
REMARK VINA RESULT: -7.625530537      2.930      8.529
REMARK  4 active torsions:
REMARK  status: ('A' for Active; 'I' for Inactive)
REMARK    1  A    between atoms: C4_4  and  N1_5
REMARK    2  A    between atoms: C5_10  and  S1_11
REMARK    3  A    between atoms: S1_11  and  C6_12
REMARK    4  A    between atoms: C6_12  and  C7_13
ROOT
HETATM    1  S1  UNL     1      32.780  78.663  63.633  1.00  0.00    -0.086 SA
ENDROOT
BRANCH   1   2
HETATM    2  C5  UNL     1      34.422  79.348  63.793  1.00  0.00     0.146 A
HETATM    3  N2  UNL     1      35.277  79.360  62.756  1.00  0.00    -0.323 N
HETATM    4  C4  UNL     1      36.523  79.873  62.850  1.00  0.00     0.102 A
ATOM      5  H2  UNL     1      34.974  78.968  61.865  1.00  0.00     0.169 HD
HETATM    6  C3  UNL     1      36.893  80.392  64.071  1.00  0.00     0.072 A
HETATM    7  C2  UNL     1      36.016  80.383  65.143  1.00  0.00     0.011 A
HETATM    8  C1  UNL     1      36.456  80.955  66.450  1.00  0.00     0.068 C
HETATM    9  N5  UNL     1      34.779  79.855  64.987  1.00  0.00    -0.341 N
ATOM     10  H5  UNL     1      34.123  79.841  65.769  1.00  0.00     0.167 HD
BRANCH   4  11
HETATM   11  N1  UNL     1      37.332  79.873  61.833  1.00  0.00    -0.385 N
ATOM     12  H12 UNL     1      38.041  79.148  61.720  1.00  0.00     0.157 HD
ATOM     13  H11 UNL     1      37.289  80.594  61.113  1.00  0.00     0.157 HD
ENDBRANCH   4  11
ENDBRANCH   1   2
BRANCH   1  14
HETATM   14  C6  UNL     1      32.843  77.024  62.854  1.00  0.00     0.158 C
BRANCH  14  15
HETATM   15  C7  UNL     1      31.503  76.691  62.251  1.00  0.00     0.091 A
HETATM   16  N3  UNL     1      31.172  76.791  60.952  1.00  0.00    -0.347 N
HETATM   17  C8  UNL     1      29.893  76.416  60.772  1.00  0.00     0.036 A
ATOM     18  H3  UNL     1      31.799  77.105  60.212  1.00  0.00     0.167 HD
HETATM   19  C9  UNL     1      29.422  76.072  62.019  1.00  0.00     0.067 A
HETATM   20  C13 UNL     1      29.036  76.341  59.543  1.00  0.00     0.059 C
HETATM   21  N4  UNL     1      30.412  76.248  62.887  1.00  0.00    -0.345 N
HETATM   22  C10 UNL     1      27.993  75.599  62.177  1.00  0.00     0.221 C
ATOM     23  H4  UNL     1      30.350  76.072  63.890  1.00  0.00     0.167 HD
HETATM   24  F1  UNL     1      27.908  74.914  63.358  1.00  0.00    -0.243 F
HETATM   25  C11 UNL     1      27.745  74.710  60.977  1.00  0.00     0.044 C
HETATM   26  C12 UNL     1      27.782  75.573  59.759  1.00  0.00     0.009 C
ENDBRANCH  14  15
ENDBRANCH   1  14
TORSDOF 4
ENDMDL