MODEL 4
REMARK VINA RESULT: -5.233854838      2.495      4.710
REMARK  5 active torsions:
REMARK  status: ('A' for Active; 'I' for Inactive)
REMARK    1  A    between atoms: C2_2  and  C3_3
REMARK    2  A    between atoms: C3_3  and  C4_4
REMARK    3  A    between atoms: C4_4  and  N1_5
REMARK    4  A    between atoms: C5_6  and  C6_7
REMARK    5  A    between atoms: C11_18  and  N4_19
ROOT
HETATM    1  N1  UNL     1      33.747  78.285  63.708  1.00  0.00    -0.319 N
HETATM    2  C5  UNL     1      34.401  79.373  63.302  1.00  0.00     0.109 A
HETATM    3  N2  UNL     1      33.949  79.652  62.061  1.00  0.00    -0.337 N
ATOM      4  H2  UNL     1      34.275  80.437  61.497  1.00  0.00     0.167 HD
HETATM    5  C9  UNL     1      33.021  78.773  61.660  1.00  0.00     0.148 A
HETATM    6  C10 UNL     1      32.245  78.557  60.548  1.00  0.00     0.290 A
HETATM    7  O1  UNL     1      32.338  79.331  59.582  1.00  0.00    -0.265 OA
HETATM    8  N3  UNL     1      31.393  77.514  60.516  1.00  0.00    -0.154 N
ATOM      9  H3  UNL     1      30.822  77.366  59.683  1.00  0.00     0.187 HD
HETATM   10  C11 UNL     1      31.273  76.661  61.546  1.00  0.00     0.680 A
HETATM   11  N5  UNL     1      32.034  76.886  62.615  1.00  0.00    -0.174 N
ATOM     12  H5  UNL     1      31.954  76.247  63.407  1.00  0.00     0.186 HD
HETATM   13  C12 UNL     1      32.909  77.918  62.708  1.00  0.00     0.157 A
ENDROOT
BRANCH   1  14
HETATM   14  C4  UNL     1      33.814  77.569  64.957  1.00  0.00     0.132 C
BRANCH  14  15
HETATM   15  C3  UNL     1      34.634  76.330  64.985  1.00  0.00     0.020 C
BRANCH  15  16
HETATM   16  C2  UNL     1      33.846  75.069  64.713  1.00  0.00    -0.003 C
HETATM   17  C1  UNL     1      32.408  75.096  65.111  1.00  0.00     0.005 C
ENDBRANCH  15  16
ENDBRANCH  14  15
ENDBRANCH   1  14
BRANCH   2  18
HETATM   18  C6  UNL     1      35.434  80.164  63.987  1.00  0.00     0.088 C
HETATM   19  C7  UNL     1      36.670  79.234  64.113  1.00  0.00     0.041 C
HETATM   20  C8  UNL     1      35.989  81.347  63.301  1.00  0.00     0.041 C
HETATM   21 CL1  UNL     1      35.070  80.473  65.716  1.00  0.00    -0.112 Cl
ENDBRANCH   2  18
BRANCH  10  22
HETATM   22  N4  UNL     1      30.441  75.656  61.468  1.00  0.00    -0.234 N
ATOM     23  H42 UNL     1      29.436  75.759  61.609  1.00  0.00     0.174 HD
ATOM     24  H41 UNL     1      30.791  74.720  61.267  1.00  0.00     0.174 HD
ENDBRANCH  10  22
TORSDOF 5
ENDMDL