MODEL 2
REMARK VINA RESULT: -8.052624658      0.361      1.289
REMARK  6 active torsions:
REMARK  status: ('A' for Active; 'I' for Inactive)
REMARK    1  A    between atoms: C2_2  and  C4_4
REMARK    2  A    between atoms: C4_4  and  C5_5
REMARK    3  A    between atoms: C4_4  and  N1_8
REMARK    4  A    between atoms: C5_5  and  O1_6
REMARK    5  A    between atoms: N1_8  and  C6_10
REMARK    6  A    between atoms: C9_19  and  C10_20
ROOT
HETATM    1  C6  UNL     1      33.771  78.332  63.991  1.00  0.00     0.146 A
HETATM    2  N2  UNL     1      34.226  77.149  64.422  1.00  0.00    -0.321 N
ATOM      3  H2  UNL     1      35.020  77.175  65.063  1.00  0.00     0.169 HD
HETATM    4  C7  UNL     1      33.761  75.949  64.111  1.00  0.00     0.141 A
HETATM    5  N3  UNL     1      34.336  74.912  64.632  1.00  0.00    -0.383 N
ATOM      6  H31 UNL     1      33.978  73.988  64.392  1.00  0.00     0.157 HD
ATOM      7  H32 UNL     1      35.119  75.110  65.255  1.00  0.00     0.157 HD
HETATM    8  C8  UNL     1      32.704  75.682  63.269  1.00  0.00     0.173 A
HETATM    9  F1  UNL     1      32.339  74.378  63.045  1.00  0.00    -0.201 F
HETATM   10  C9  UNL     1      31.963  76.626  62.619  1.00  0.00     0.036 A
HETATM   11  S1  UNL     1      32.438  78.231  62.918  1.00  0.00    -0.055 SA
ENDROOT
BRANCH   1  12
HETATM   12  N1  UNL     1      34.287  79.460  64.349  1.00  0.00    -0.363 N
ATOM     13  H1  UNL     1      33.690  80.139  64.821  1.00  0.00     0.162 HD
BRANCH  12  14
HETATM   14  C4  UNL     1      35.664  79.803  64.114  1.00  0.00     0.110 C
BRANCH  14  15
HETATM   15  C2  UNL     1      36.269  80.358  65.376  1.00  0.00     0.002 C
HETATM   16  C1  UNL     1      35.382  81.429  65.975  1.00  0.00     0.011 C
HETATM   17  C3  UNL     1      37.648  80.906  65.175  1.00  0.00     0.011 C
ENDBRANCH  14  15
BRANCH  14  18
HETATM   18  C5  UNL     1      35.738  80.751  62.960  1.00  0.00     0.189 C
BRANCH  18  19
HETATM   19  O1  UNL     1      35.900  80.138  61.738  1.00  0.00    -0.399 OA
ATOM     20  H1  UNL     1      35.109  79.739  61.396  1.00  0.00     0.209 HD
ENDBRANCH  18  19
ENDBRANCH  14  18
ENDBRANCH  12  14
ENDBRANCH   1  12
BRANCH  10  21
HETATM   21  C10 UNL     1      30.830  76.327  61.718  1.00  0.00    -0.014 C
HETATM   22  C11 UNL     1      30.564  77.566  60.896  1.00  0.00     0.020 C
HETATM   23  C12 UNL     1      31.071  75.112  60.861  1.00  0.00     0.020 C
HETATM   24  C13 UNL     1      29.605  76.078  62.564  1.00  0.00     0.020 C
ENDBRANCH  10  21
TORSDOF 6
ENDMDL