MODEL 5
REMARK VINA RESULT: -7.180364485      3.133      7.693
REMARK  4 active torsions:
REMARK  status: ('A' for Active; 'I' for Inactive)
REMARK    1  A    between atoms: C2_2  and  C4_4
REMARK    2  A    between atoms: C4_4  and  C5_5
REMARK    3  A    between atoms: N1_8  and  C8_9
REMARK    4  A    between atoms: C9_12  and  N3_13
ROOT
HETATM    1  C8  UNL     1      31.693  76.790  62.917  1.00  0.00     0.146 A
HETATM    2  N2  UNL     1      32.394  75.720  63.314  1.00  0.00    -0.175 N
ATOM      3  H2  UNL     1      32.068  74.780  63.084  1.00  0.00     0.186 HD
HETATM    4  C9  UNL     1      33.545  75.890  64.027  1.00  0.00     0.678 A
HETATM    5  N4  UNL     1      34.001  77.118  64.344  1.00  0.00    -0.179 N
ATOM      6  H4  UNL     1      34.864  77.224  64.878  1.00  0.00     0.185 HD
HETATM    7  C10 UNL     1      33.298  78.218  63.946  1.00  0.00     0.147 A
HETATM    8 CL1  UNL     1      33.884  79.815  64.353  1.00  0.00    -0.062 Cl
HETATM    9  C11 UNL     1      32.139  78.050  63.228  1.00  0.00     0.129 A
HETATM   10  N5  UNL     1      31.391  79.174  62.802  1.00  0.00    -0.095 NA
ENDROOT
BRANCH   1  11
HETATM   11  N1  UNL     1      30.494  76.664  62.175  1.00  0.00    -0.365 N
HETATM   12  C7  UNL     1      29.271  76.351  62.832  1.00  0.00     0.125 C
HETATM   13  C6  UNL     1      28.442  75.278  62.141  1.00  0.00     0.024 C
HETATM   14  C5  UNL     1      28.358  75.461  60.667  1.00  0.00    -0.011 C
HETATM   15  C13 UNL     1      29.808  75.613  60.158  1.00  0.00     0.024 C
HETATM   16  C12 UNL     1      30.456  76.847  60.727  1.00  0.00     0.125 C
BRANCH  14  17
HETATM   17  C4  UNL     1      27.799  74.312  59.929  1.00  0.00     0.008 C
BRANCH  17  18
HETATM   18  C2  UNL     1      26.342  74.186  59.762  1.00  0.00    -0.022 C
HETATM   19  C1  UNL     1      25.608  73.230  60.623  1.00  0.00     0.009 C
HETATM   20  C3  UNL     1      25.611  75.517  59.839  1.00  0.00     0.009 C
ENDBRANCH  17  18
ENDBRANCH  14  17
ENDBRANCH   1  11
BRANCH   4  21
HETATM   21  N3  UNL     1      34.250  74.885  64.431  1.00  0.00    -0.234 N
ATOM     22  H32 UNL     1      33.785  73.978  64.456  1.00  0.00     0.174 HD
ATOM     23  H31 UNL     1      35.225  74.992  64.713  1.00  0.00     0.174 HD
ENDBRANCH   4  21
TORSDOF 4
ENDMDL