MODEL 2
REMARK VINA RESULT: -5.877619138      3.201      6.836
REMARK  3 active torsions:
REMARK  status: ('A' for Active; 'I' for Inactive)
REMARK    1  A    between atoms: C7_7  and  N1_8
REMARK    2  A    between atoms: C9_13  and  N3_14
REMARK    3  A    between atoms: C11_21  and  N5_22
ROOT
HETATM    1  N1  UNL     1      30.636  75.371  61.754  1.00  0.00    -0.369 N
ATOM      2  H1  UNL     1      30.776  74.365  61.851  1.00  0.00     0.161 HD
HETATM    3  C8  UNL     1      31.519  75.933  62.393  1.00  0.00     0.153 A
HETATM    4  N2  UNL     1      32.408  75.101  63.033  1.00  0.00    -0.175 N
ATOM      5  H2  UNL     1      32.283  74.094  62.926  1.00  0.00     0.186 HD
HETATM    6  C9  UNL     1      33.420  75.527  63.782  1.00  0.00     0.678 A
HETATM    7  N4  UNL     1      33.574  76.852  63.914  1.00  0.00    -0.179 N
ATOM      8  H4  UNL     1      34.345  77.202  64.484  1.00  0.00     0.185 HD
HETATM    9  C10 UNL     1      32.762  77.730  63.329  1.00  0.00     0.156 A
HETATM   10 CL1  UNL     1      32.974  79.468  63.510  1.00  0.00    -0.061 Cl
HETATM   11  C11 UNL     1      31.693  77.286  62.540  1.00  0.00     0.185 A
ENDROOT
BRANCH   1  12
HETATM   12  C7  UNL     1      29.530  75.563  60.956  1.00  0.00     0.086 C
HETATM   13  C2  UNL     1      28.288  75.237  61.808  1.00  0.00     0.004 C
HETATM   14  C1  UNL     1      28.184  76.215  62.950  1.00  0.00     0.012 C
HETATM   15  C3  UNL     1      27.119  75.405  60.861  1.00  0.00     0.006 C
HETATM   16  C4  UNL     1      27.095  74.141  60.024  1.00  0.00     0.001 C
HETATM   17  C5  UNL     1      28.456  73.781  59.499  1.00  0.00     0.002 C
HETATM   18  C6  UNL     1      29.492  74.813  59.657  1.00  0.00     0.025 C
ENDBRANCH   1  12
BRANCH  11  19
HETATM   19  N5  UNL     1      30.852  78.260  61.940  1.00  0.00    -0.108 N
HETATM   20  O1  UNL     1      30.942  78.523  60.731  1.00  0.00    -0.532 OA
HETATM   21  O2  UNL     1      29.940  78.958  62.684  1.00  0.00    -0.532 OA
ENDBRANCH  11  19
BRANCH   6  22
HETATM   22  N3  UNL     1      34.231  74.683  64.366  1.00  0.00    -0.234 N
ATOM     23  H32 UNL     1      33.913  73.762  64.670  1.00  0.00     0.174 HD
ATOM     24  H31 UNL     1      35.208  74.921  64.534  1.00  0.00     0.174 HD
ENDBRANCH   6  22
TORSDOF 3
ENDMDL