MODEL 1
REMARK VINA RESULT: -7.805816001      0.000      0.000
REMARK  5 active torsions:
REMARK  status: ('A' for Active; 'I' for Inactive)
REMARK    1  A    between atoms: O1_2  and  C2_3
REMARK    2  A    between atoms: C5_9  and  N2_10
REMARK    3  A    between atoms: N2_10  and  C6_12
REMARK    4  A    between atoms: C7_15  and  C8_16
REMARK    5  A    between atoms: C12_22  and  N5_23
ROOT
HETATM    1  C6  UNL     1      29.576  75.817  60.664  1.00  0.00     0.151 A
HETATM    2  N3  UNL     1      29.144  74.847  59.852  1.00  0.00    -0.341 N
ATOM      3  H3  UNL     1      29.793  74.453  59.172  1.00  0.00     0.167 HD
HETATM    4  C7  UNL     1      27.893  74.372  59.897  1.00  0.00     0.030 A
HETATM    5  C11 UNL     1      27.049  74.942  60.843  1.00  0.00     0.115 A
HETATM    6  N4  UNL     1      27.461  75.915  61.666  1.00  0.00    -0.348 N
ATOM      7  H4  UNL     1      26.819  76.315  62.351  1.00  0.00     0.167 HD
HETATM    8  C12 UNL     1      28.719  76.357  61.583  1.00  0.00     0.143 A
ENDROOT
BRANCH   1   9
HETATM    9  N2  UNL     1      30.772  76.274  60.625  1.00  0.00    -0.325 N
ATOM     10  H2  UNL     1      31.083  76.655  59.731  1.00  0.00     0.169 HD
BRANCH   9  11
HETATM   11  C5  UNL     1      31.693  76.308  61.671  1.00  0.00     0.115 A
HETATM   12  N1  UNL     1      31.843  75.206  62.429  1.00  0.00    -0.349 N
HETATM   13  C4  UNL     1      32.703  75.137  63.459  1.00  0.00     0.135 A
ATOM     14  H1  UNL     1      31.277  74.385  62.211  1.00  0.00     0.167 HD
HETATM   15  C3  UNL     1      33.496  76.208  63.804  1.00  0.00     0.165 A
HETATM   16  C2  UNL     1      33.353  77.355  63.029  1.00  0.00     0.117 A
HETATM   17  F1  UNL     1      34.376  76.182  64.833  1.00  0.00    -0.202 F
HETATM   18  C13 UNL     1      32.464  77.418  61.969  1.00  0.00     0.019 A
HETATM   19  C14 UNL     1      32.336  78.650  61.167  1.00  0.00     0.055 C
BRANCH  16  20
HETATM   20  O1  UNL     1      34.109  78.462  63.314  1.00  0.00    -0.352 OA
HETATM   21  C1  UNL     1      33.925  79.344  64.376  1.00  0.00     0.210 C
ENDBRANCH  16  20
ENDBRANCH   9  11
ENDBRANCH   1   9
BRANCH   8  22
HETATM   22  N5  UNL     1      29.090  77.305  62.400  1.00  0.00    -0.382 N
ATOM     23  H52 UNL     1      29.541  77.035  63.274  1.00  0.00     0.157 HD
ATOM     24  H51 UNL     1      28.940  78.291  62.186  1.00  0.00     0.157 HD
ENDBRANCH   8  22
BRANCH   4  25
HETATM   25  C8  UNL     1      27.371  73.298  59.015  1.00  0.00     0.037 A
HETATM   26  C9  UNL     1      28.261  72.591  58.069  1.00  0.00     0.011 A
HETATM   27  C10 UNL     1      27.888  71.881  59.344  1.00  0.00     0.011 A
ENDBRANCH   4  25
TORSDOF 5
ENDMDL