MODEL 1
REMARK VINA RESULT: -6.646234876      0.000      0.000
REMARK  5 active torsions:
REMARK  status: ('A' for Active; 'I' for Inactive)
REMARK    1  A    between atoms: C2_2  and  C3_4
REMARK    2  A    between atoms: C3_4  and  N1_5
REMARK    3  A    between atoms: N1_5  and  N2_7
REMARK    4  A    between atoms: N2_7  and  C4_9
REMARK    5  A    between atoms: C5_12  and  C7_14
ROOT
HETATM    1  C4  UNL     1      33.257  78.336  61.879  1.00  0.00     0.191 C
HETATM    2  N3  UNL     1      33.161  77.137  62.428  1.00  0.00    -0.350 N
ATOM      3  H3  UNL     1      33.870  76.720  63.032  1.00  0.00     0.163 HD
HETATM    4  C5  UNL     1      31.921  76.497  62.062  1.00  0.00     0.053 C
HETATM    5  C6  UNL     1      32.190  75.419  61.068  1.00  0.00     0.041 C
HETATM    6  C9  UNL     1      31.058  77.629  61.574  1.00  0.00     0.050 C
HETATM    7  C10 UNL     1      30.166  77.302  60.423  1.00  0.00     0.041 C
HETATM    8  C11 UNL     1      30.321  78.363  62.641  1.00  0.00     0.041 C
HETATM    9  N4  UNL     1      32.101  78.563  61.102  1.00  0.00    -0.350 N
ATOM     10  H4  UNL     1      32.004  79.247  60.351  1.00  0.00     0.163 HD
ENDROOT
BRANCH   1  11
HETATM   11  N2  UNL     1      34.319  79.230  62.034  1.00  0.00    -0.276 N
ATOM     12  H2  UNL     1      34.497  79.732  61.164  1.00  0.00     0.189 HD
BRANCH  11  13
HETATM   13  N1  UNL     1      35.151  79.614  62.968  1.00  0.00    -0.329 N
ATOM     14  H1  UNL     1      36.123  79.772  62.701  1.00  0.00     0.180 HD
BRANCH  13  15
HETATM   15  C3  UNL     1      34.798  79.825  64.317  1.00  0.00     0.184 C
BRANCH  15  16
HETATM   16  C2  UNL     1      35.901  80.422  65.082  1.00  0.00    -0.002 C
HETATM   17  C1  UNL     1      37.156  80.334  64.766  1.00  0.00     0.029 C
HETATM   18 BR1  UNL     1      35.504  81.415  66.713  1.00  0.00    -0.055 Br
ENDBRANCH  15  16
ENDBRANCH  13  15
ENDBRANCH  11  13
ENDBRANCH   1  11
BRANCH   4  19
HETATM   19  C7  UNL     1      31.435  75.864  63.359  1.00  0.00     0.029 C
HETATM   20  C8  UNL     1      32.505  75.603  64.352  1.00  0.00     0.007 C
ENDBRANCH   4  19
TORSDOF 5
ENDMDL