MODEL 3
REMARK VINA RESULT: -7.346003512      4.579      7.956
REMARK  4 active torsions:
REMARK  status: ('A' for Active; 'I' for Inactive)
REMARK    1  A    between atoms: N1_6  and  C6_7
REMARK    2  A    between atoms: C6_7  and  C7_8
REMARK    3  A    between atoms: C7_8  and  C8_9
REMARK    4  A    between atoms: C8_9  and  N2_10
ROOT
HETATM    1  C7  UNL     1      35.932  78.672  64.336  1.00  0.00     0.087 C
ENDROOT
BRANCH   1   2
HETATM    2  C6  UNL     1      34.791  77.907  64.963  1.00  0.00     0.066 C
BRANCH   2   3
HETATM    3  N1  UNL     1      33.982  77.178  64.078  1.00  0.00    -0.369 N
HETATM    4  C5  UNL     1      33.541  77.771  62.889  1.00  0.00     0.100 C
HETATM    5  C4  UNL     1      32.348  77.120  62.267  1.00  0.00    -0.002 C
HETATM    6  C2  UNL     1      31.679  77.873  61.403  1.00  0.00    -0.077 C
HETATM    7  C14 UNL     1      31.920  75.745  62.570  1.00  0.00     0.130 C
HETATM    8  C1  UNL     1      30.473  77.415  60.685  1.00  0.00     0.044 C
HETATM    9  C3  UNL     1      32.142  79.265  61.120  1.00  0.00     0.044 C
HETATM   10  C13 UNL     1      32.993  75.114  63.432  1.00  0.00     0.068 C
HETATM   11  C15 UNL     1      31.703  74.872  61.357  1.00  0.00     0.057 C
HETATM   12  F1  UNL     1      30.732  75.762  63.274  1.00  0.00    -0.238 F
HETATM   13  C12 UNL     1      33.207  76.106  64.585  1.00  0.00     0.131 C
ENDBRANCH   2   3
ENDBRANCH   1   2
BRANCH   1  14
HETATM   14  C8  UNL     1      35.815  80.161  64.611  1.00  0.00     0.172 C
HETATM   15  C9  UNL     1      34.626  80.473  65.492  1.00  0.00     0.275 C
HETATM   16  N3  UNL     1      34.832  81.766  66.133  1.00  0.00    -0.052 N
HETATM   17  C10 UNL     1      35.927  81.703  67.085  1.00  0.00     0.399 C
ATOM     18  H32 UNL     1      34.970  82.509  65.447  1.00  0.00     0.279 HD
ATOM     19  H31 UNL     1      33.975  82.112  66.565  1.00  0.00     0.279 HD
HETATM   20  O1  UNL     1      36.815  80.709  66.728  1.00  0.00    -0.362 OA
HETATM   21  C11 UNL     1      37.045  80.618  65.367  1.00  0.00     0.210 C
BRANCH  14  22
HETATM   22  N2  UNL     1      35.783  80.923  63.372  1.00  0.00    -0.066 N
ATOM     23  H23 UNL     1      35.722  81.925  63.549  1.00  0.00     0.275 HD
ATOM     24  H22 UNL     1      36.684  80.902  62.896  1.00  0.00     0.275 HD
ATOM     25  H21 UNL     1      35.029  80.604  62.763  1.00  0.00     0.275 HD
ENDBRANCH  14  22
ENDBRANCH   1  14
TORSDOF 4
ENDMDL