MODEL 1
REMARK VINA RESULT: -7.732854846      0.000      0.000
REMARK  4 active torsions:
REMARK  status: ('A' for Active; 'I' for Inactive)
REMARK    1  A    between atoms: N1_1  and  C1_4
REMARK    2  A    between atoms: N4_14  and  C5_15
REMARK    3  A    between atoms: C5_15  and  C6_16
REMARK    4  A    between atoms: C6_16  and  C7_17
ROOT
HETATM    1  C1  UNL     1      30.633  77.248  60.509  1.00  0.00     0.680 A
HETATM    2  N2  UNL     1      30.674  75.903  60.468  1.00  0.00    -0.154 N
ATOM      3  H2  UNL     1      30.162  75.412  59.736  1.00  0.00     0.187 HD
HETATM    4  C2  UNL     1      31.376  75.193  61.372  1.00  0.00     0.290 A
HETATM    5  O1  UNL     1      31.409  73.935  61.326  1.00  0.00    -0.265 OA
HETATM    6  C3  UNL     1      32.049  75.912  62.341  1.00  0.00     0.149 A
HETATM    7  N3  UNL     1      32.829  75.527  63.374  1.00  0.00    -0.325 N
ATOM      8  H3  UNL     1      33.061  74.564  63.620  1.00  0.00     0.168 HD
HETATM    9  C4  UNL     1      33.247  76.626  64.023  1.00  0.00     0.183 A
HETATM   10 CL1  UNL     1      34.277  76.596  65.423  1.00  0.00    -0.044 Cl
HETATM   11  N4  UNL     1      32.759  77.736  63.440  1.00  0.00    -0.307 N
HETATM   12  C12 UNL     1      32.016  77.289  62.396  1.00  0.00     0.158 A
HETATM   13  N5  UNL     1      31.295  77.929  61.460  1.00  0.00    -0.174 N
ATOM     14  H5  UNL     1      31.250  78.948  61.471  1.00  0.00     0.186 HD
ENDROOT
BRANCH  11  15
HETATM   15  C5  UNL     1      32.950  79.126  63.800  1.00  0.00     0.133 C
BRANCH  15  16
HETATM   16  C6  UNL     1      34.291  79.643  63.324  1.00  0.00     0.025 C
BRANCH  16  17
HETATM   17  C7  UNL     1      35.281  79.559  64.459  1.00  0.00    -0.013 C
HETATM   18  C8  UNL     1      34.892  80.435  65.613  1.00  0.00     0.005 C
HETATM   19  C9  UNL     1      36.147  81.068  66.135  1.00  0.00     0.000 C
HETATM   20  C10 UNL     1      37.243  80.814  65.142  1.00  0.00     0.000 C
HETATM   21  C11 UNL     1      36.661  79.979  64.049  1.00  0.00     0.005 C
ENDBRANCH  16  17
ENDBRANCH  15  16
ENDBRANCH  11  15
BRANCH   1  22
HETATM   22  N1  UNL     1      29.954  77.885  59.632  1.00  0.00    -0.234 N
ATOM     23  H12 UNL     1      29.440  77.367  58.918  1.00  0.00     0.174 HD
ATOM     24  H11 UNL     1      29.934  78.904  59.654  1.00  0.00     0.174 HD
ENDBRANCH   1  22
TORSDOF 4
ENDMDL