MODEL 5
REMARK VINA RESULT: -8.186945194      3.343      8.101
REMARK  5 active torsions:
REMARK  status: ('A' for Active; 'I' for Inactive)
REMARK    1  A    between atoms: C2_2  and  O2_4
REMARK    2  A    between atoms: O2_4  and  C3_5
REMARK    3  A    between atoms: C10_12  and  O3_13
REMARK    4  A    between atoms: C17_23  and  C18_24
REMARK    5  A    between atoms: C18_24  and  C19_25
ROOT
HETATM    1  C3  UNL     1      35.553 -30.745   2.309  1.00  0.00     0.144 C
HETATM    2  C4  UNL     1      34.649 -31.822   2.962  1.00  0.00     0.061 C
HETATM    3  C5  UNL     1      34.527 -31.577   4.422  1.00  0.00    -0.018 C
HETATM    4  C6  UNL     1      35.282 -30.761   5.146  1.00  0.00    -0.069 C
HETATM    5  C7  UNL     1      34.879 -30.754   6.614  1.00  0.00     0.047 C
HETATM    6  C8  UNL     1      36.376 -29.911   4.738  1.00  0.00    -0.012 C
HETATM    7  C9  UNL     1      37.381 -30.308   3.773  1.00  0.00     0.048 C
HETATM    8  C10 UNL     1      37.916 -28.950   3.249  1.00  0.00     0.129 C
HETATM    9  C11 UNL     1      39.319 -29.261   2.895  1.00  0.00     0.073 C
HETATM   10  C12 UNL     1      39.309 -30.261   1.785  1.00  0.00     0.099 C
HETATM   11  C13 UNL     1      40.330 -31.344   2.193  1.00  0.00     0.050 C
HETATM   12  O4  UNL     1      39.971 -29.627   0.735  1.00  0.00    -0.229 OA
HETATM   13  O5  UNL     1      39.351 -28.568   0.263  1.00  0.00    -0.229 OA
HETATM   14  C14 UNL     1      39.177 -28.922  -1.104  1.00  0.00     0.096 C
HETATM   15  C15 UNL     1      38.272 -28.013  -1.825  1.00  0.00     0.042 C
HETATM   16  C16 UNL     1      38.908 -27.047  -2.756  1.00  0.00     0.007 C
HETATM   17  C17 UNL     1      40.070 -27.572  -3.523  1.00  0.00    -0.013 C
HETATM   18  C20 UNL     1      40.417 -29.008  -3.202  1.00  0.00     0.007 C
HETATM   19  C21 UNL     1      40.546 -29.075  -1.679  1.00  0.00     0.042 C
HETATM   20  C22 UNL     1      38.598 -30.347  -0.970  1.00  0.00     0.042 C
HETATM   21  C23 UNL     1      37.463 -30.297   0.071  1.00  0.00     0.011 C
HETATM   22  C24 UNL     1      37.977 -30.844   1.407  1.00  0.00     0.034 C
HETATM   23  C25 UNL     1      36.972 -31.022   2.478  1.00  0.00    -0.001 C
HETATM   24  C26 UNL     1      37.086 -32.520   2.858  1.00  0.00     0.019 C
ENDROOT
BRANCH  17  25
HETATM   25  C18 UNL     1      39.958 -27.350  -5.020  1.00  0.00     0.019 C
BRANCH  25  26
HETATM   26  C19 UNL     1      41.187 -26.597  -5.535  1.00  0.00     0.115 C
HETATM   27 CL1  UNL     1      42.059 -25.855  -4.181  1.00  0.00    -0.130 Cl
ENDBRANCH  25  26
ENDBRANCH  17  25
BRANCH   8  28
HETATM   28  O3  UNL     1      37.933 -28.031   4.307  1.00  0.00    -0.395 OA
ATOM     29  H3  UNL     1      38.133 -27.169   3.962  1.00  0.00     0.210 HD
ENDBRANCH   8  28
BRANCH   1  30
HETATM   30  O2  UNL     1      34.957 -30.560   1.084  1.00  0.00    -0.315 OA
BRANCH  30  31
HETATM   31  C2  UNL     1      33.631 -30.745   0.791  1.00  0.00     0.255 C
HETATM   32  C1  UNL     1      32.537 -29.943   1.340  1.00  0.00     0.126 C
HETATM   33  O1  UNL     1      33.337 -31.679  -0.017  1.00  0.00    -0.266 OA
ENDBRANCH  30  31
ENDBRANCH   1  30
TORSDOF 5
ENDMDL