MODEL 1
REMARK VINA RESULT: -9.372106088      0.000      0.000
REMARK  4 active torsions:
REMARK  status: ('A' for Active; 'I' for Inactive)
REMARK    1  A    between atoms: C15_15  and  C16_16
REMARK    2  A    between atoms: C16_16  and  O1_17
REMARK    3  A    between atoms: O1_17  and  C17_18
REMARK    4  A    between atoms: C20_22  and  O3_23
ROOT
HETATM    1  C1  UNL     1      38.365 -33.979  -2.443  1.00  0.00     0.043 C
HETATM    2  C2  UNL     1      37.696 -32.688  -2.021  1.00  0.00    -0.080 C
HETATM    3  C3  UNL     1      38.411 -31.653  -1.629  1.00  0.00     0.017 C
HETATM    4  C4  UNL     1      37.738 -30.407  -1.222  1.00  0.00     0.096 C
HETATM    5  C5  UNL     1      37.646 -29.543  -2.490  1.00  0.00     0.055 C
HETATM    6  C6  UNL     1      38.507 -29.681  -0.202  1.00  0.00     0.015 C
HETATM    7  C7  UNL     1      39.304 -30.114   0.717  1.00  0.00    -0.001 C
HETATM    8  C8  UNL     1      39.743 -31.439   1.100  1.00  0.00    -0.000 C
HETATM    9  C9  UNL     1      39.093 -32.446   1.597  1.00  0.00    -0.000 C
HETATM   10  C10 UNL     1      37.722 -32.685   1.969  1.00  0.00    -0.004 C
HETATM   11  C11 UNL     1      36.947 -32.123   2.840  1.00  0.00    -0.026 C
HETATM   12  C12 UNL     1      37.200 -31.013   3.781  1.00  0.00     0.036 C
HETATM   13  C13 UNL     1      36.018 -30.069   3.880  1.00  0.00     0.016 C
HETATM   14  C14 UNL     1      36.534 -28.809   4.535  1.00  0.00     0.015 C
HETATM   15  C15 UNL     1      34.864 -30.639   4.627  1.00  0.00    -0.052 C
HETATM   16  C22 UNL     1      33.594 -30.423   4.358  1.00  0.00     0.005 C
HETATM   17  C23 UNL     1      32.975 -29.632   3.333  1.00  0.00    -0.004 C
HETATM   18  C24 UNL     1      32.835 -29.885   2.049  1.00  0.00    -0.025 C
HETATM   19  C25 UNL     1      33.299 -31.103   1.330  1.00  0.00     0.053 C
HETATM   20  C26 UNL     1      34.196 -30.691   0.206  1.00  0.00     0.174 C
HETATM   21  O4  UNL     1      34.581 -31.765  -0.591  1.00  0.00    -0.361 OA
HETATM   22  C27 UNL     1      35.631 -31.375  -1.460  1.00  0.00     0.265 C
HETATM   23  C28 UNL     1      36.219 -32.600  -2.059  1.00  0.00     0.094 C
HETATM   24  O5  UNL     1      36.475 -30.613  -0.701  1.00  0.00    -0.342 OA
ENDROOT
BRANCH  15  25
HETATM   25  C16 UNL     1      35.281 -31.527   5.788  1.00  0.00     0.205 C
BRANCH  25  26
HETATM   26  O1  UNL     1      34.796 -30.905   6.905  1.00  0.00    -0.354 OA
BRANCH  26  27
HETATM   27  C17 UNL     1      35.704 -30.275   7.716  1.00  0.00     0.297 C
HETATM   28  O2  UNL     1      36.980 -30.814   7.661  1.00  0.00    -0.351 OA
HETATM   29  C18 UNL     1      37.635 -30.046   8.651  1.00  0.00     0.152 C
HETATM   30  C19 UNL     1      37.758 -28.599   8.271  1.00  0.00     0.042 C
HETATM   31  C20 UNL     1      36.678 -30.094   9.849  1.00  0.00     0.185 C
HETATM   32  C21 UNL     1      35.343 -30.273   9.161  1.00  0.00     0.256 C
HETATM   33  F1  UNL     1      34.825 -31.477   9.593  1.00  0.00    -0.241 F
BRANCH  31  34
HETATM   34  O3  UNL     1      36.988 -31.153  10.684  1.00  0.00    -0.390 OA
ATOM     35  H3  UNL     1      37.466 -30.853  11.447  1.00  0.00     0.210 HD
ENDBRANCH  31  34
ENDBRANCH  26  27
ENDBRANCH  25  26
ENDBRANCH  15  25
TORSDOF 4
ENDMDL