MODEL 5
REMARK VINA RESULT: -8.589652452      1.575      2.190
REMARK  6 active torsions:
REMARK  status: ('A' for Active; 'I' for Inactive)
REMARK    1  A    between atoms: N1_2  and  C2_4
REMARK    2  A    between atoms: C3_7  and  C4_8
REMARK    3  A    between atoms: C4_8  and  C6_10
REMARK    4  A    between atoms: C8_13  and  N3_14
REMARK    5  A    between atoms: N3_14  and  C9_15
REMARK    6  A    between atoms: C12_18  and  C13_19
ROOT
HETATM    1  C6  UNL     1      35.885 -31.098   0.636  1.00  0.00     0.120 C
HETATM    2  C7  UNL     1      34.455 -31.166   0.298  1.00  0.00     0.110 C
HETATM    3  S1  UNL     1      33.704 -30.426   1.803  1.00  0.00    -0.076 SA
HETATM    4  C8  UNL     1      35.095 -30.895   2.872  1.00  0.00     0.227 C
HETATM    5  N4  UNL     1      36.168 -31.168   1.993  1.00  0.00    -0.273 N
HETATM    6  S2  UNL     1      37.746 -31.567   2.605  1.00  0.00     0.048 SA
ENDROOT
BRANCH   1   7
HETATM    7  C4  UNL     1      36.473 -29.850  -0.042  1.00  0.00     0.057 C
HETATM    8  C5  UNL     1      37.283 -29.036   0.909  1.00  0.00     0.018 C
BRANCH   7   9
HETATM    9  C3  UNL     1      37.379 -30.303  -1.184  1.00  0.00     0.023 A
HETATM   10  N2  UNL     1      37.228 -31.454  -1.807  1.00  0.00    -0.340 N
HETATM   11  C2  UNL     1      38.072 -31.755  -2.789  1.00  0.00     0.144 A
ATOM     12  H2  UNL     1      36.483 -32.098  -1.541  1.00  0.00     0.168 HD
HETATM   13  S3  UNL     1      39.105 -30.409  -2.855  1.00  0.00    -0.064 SA
HETATM   14  C18 UNL     1      38.413 -29.492  -1.605  1.00  0.00     0.078 A
BRANCH  11  15
HETATM   15  N1  UNL     1      38.074 -32.848  -3.517  1.00  0.00    -0.375 N
HETATM   16  C1  UNL     1      38.026 -34.152  -2.889  1.00  0.00     0.148 C
ATOM     17  H1  UNL     1      38.110 -32.779  -4.534  1.00  0.00     0.161 HD
ENDBRANCH  11  15
ENDBRANCH   7   9
ENDBRANCH   1   7
BRANCH   4  18
HETATM   18  N3  UNL     1      35.079 -30.952   4.044  1.00  0.00    -0.379 NA
BRANCH  18  19
HETATM   19  C9  UNL     1      35.109 -30.861   5.359  1.00  0.00     0.127 A
HETATM   20  C10 UNL     1      36.296 -30.396   5.966  1.00  0.00     0.047 A
HETATM   21  C11 UNL     1      36.445 -30.262   7.313  1.00  0.00     0.011 A
HETATM   22  C12 UNL     1      35.398 -30.592   8.140  1.00  0.00    -0.053 A
HETATM   23  C16 UNL     1      34.227 -31.049   7.586  1.00  0.00     0.030 A
HETATM   24  C17 UNL     1      34.075 -31.184   6.237  1.00  0.00     0.052 A
HETATM   25 BR1  UNL     1      32.466 -31.814   5.432  1.00  0.00    -0.048 Br
BRANCH  22  26
HETATM   26  C13 UNL     1      35.563 -30.445   9.589  1.00  0.00     0.010 C
HETATM   27  C14 UNL     1      35.079 -31.697  10.289  1.00  0.00     0.015 C
HETATM   28  C15 UNL     1      37.023 -30.186   9.956  1.00  0.00     0.015 C
ENDBRANCH  22  26
ENDBRANCH  18  19
ENDBRANCH   4  18
TORSDOF 6
ENDMDL