MODEL 5
REMARK VINA RESULT: -8.901715404      2.458      3.632
REMARK  6 active torsions:
REMARK  status: ('A' for Active; 'I' for Inactive)
REMARK    1  A    between atoms: C2_2  and  O2_4
REMARK    2  A    between atoms: O2_4  and  C3_5
REMARK    3  A    between atoms: C10_12  and  O3_13
REMARK    4  A    between atoms: O3_13  and  C11_14
REMARK    5  A    between atoms: C24_29  and  C26_31
REMARK    6  A    between atoms: C26_31  and  O5_32
ROOT
HETATM    1  C3  UNL     1      34.345 -31.592   1.761  1.00  0.00     0.060 C
HETATM    2  C4  UNL     1      35.250 -31.199   2.639  1.00  0.00    -0.038 C
HETATM    3  C5  UNL     1      34.694 -30.777   3.960  1.00  0.00     0.038 C
HETATM    4  C6  UNL     1      35.716 -29.980   4.681  1.00  0.00     0.010 C
HETATM    5  C7  UNL     1      36.424 -29.075   3.711  1.00  0.00    -0.004 C
HETATM    6  C8  UNL     1      37.096 -27.999   4.491  1.00  0.00     0.001 C
HETATM    7  C9  UNL     1      37.390 -28.343   5.934  1.00  0.00     0.038 C
HETATM    8  C10 UNL     1      38.625 -27.521   6.309  1.00  0.00     0.133 C
HETATM    9  C13 UNL     1      38.935 -26.695   5.109  1.00  0.00     0.042 C
HETATM   10  C14 UNL     1      38.459 -27.618   3.980  1.00  0.00    -0.038 C
HETATM   11  C15 UNL     1      38.458 -26.862   2.713  1.00  0.00     0.015 C
HETATM   12  C16 UNL     1      39.261 -28.877   3.921  1.00  0.00     0.010 C
HETATM   13  C17 UNL     1      38.719 -29.737   2.810  1.00  0.00     0.007 C
HETATM   14  C18 UNL     1      37.251 -29.748   2.673  1.00  0.00     0.006 C
HETATM   15  C19 UNL     1      36.726 -31.166   2.371  1.00  0.00     0.022 C
HETATM   16  C20 UNL     1      37.336 -32.211   3.271  1.00  0.00     0.024 C
HETATM   17  C21 UNL     1      36.923 -31.600   0.984  1.00  0.00     0.120 C
HETATM   18  F1  UNL     1      36.953 -33.004   0.931  1.00  0.00    -0.241 F
HETATM   19  C22 UNL     1      38.142 -31.145   0.254  1.00  0.00     0.046 C
HETATM   20  C23 UNL     1      37.917 -31.910  -1.068  1.00  0.00     0.015 C
HETATM   21  C24 UNL     1      36.457 -31.517  -1.324  1.00  0.00    -0.015 C
HETATM   22  C25 UNL     1      35.728 -32.586  -2.085  1.00  0.00     0.018 C
HETATM   23  C27 UNL     1      35.853 -31.181  -0.005  1.00  0.00     0.043 C
HETATM   24  C28 UNL     1      34.668 -32.055   0.377  1.00  0.00     0.074 C
ENDROOT
BRANCH   1  25
HETATM   25  O2  UNL     1      32.972 -31.601   2.074  1.00  0.00    -0.283 OA
BRANCH  25  26
HETATM   26  C2  UNL     1      32.475 -32.652   2.818  1.00  0.00     0.259 C
HETATM   27  C1  UNL     1      31.914 -32.473   4.190  1.00  0.00     0.126 C
HETATM   28  O1  UNL     1      32.497 -33.798   2.324  1.00  0.00    -0.265 OA
ENDBRANCH  25  26
ENDBRANCH   1  25
BRANCH  21  29
HETATM   29  C26 UNL     1      36.493 -30.277  -2.200  1.00  0.00     0.173 C
BRANCH  29  30
HETATM   30  O5  UNL     1      37.256 -30.476  -3.341  1.00  0.00    -0.400 OA
ATOM     31  H5  UNL     1      36.714 -30.655  -4.100  1.00  0.00     0.209 HD
ENDBRANCH  29  30
ENDBRANCH  21  29
BRANCH   8  32
HETATM   32  O3  UNL     1      38.456 -26.805   7.490  1.00  0.00    -0.316 OA
BRANCH  32  33
HETATM   33  C11 UNL     1      39.492 -26.271   8.235  1.00  0.00     0.255 C
HETATM   34  C12 UNL     1      39.721 -24.813   8.163  1.00  0.00     0.126 C
HETATM   35  O4  UNL     1      40.157 -27.065   8.914  1.00  0.00    -0.266 OA
ENDBRANCH  32  33
ENDBRANCH   8  32
TORSDOF 6
ENDMDL