MODEL 3
REMARK VINA RESULT: -9.093084168      1.594      2.538
REMARK  6 active torsions:
REMARK  status: ('A' for Active; 'I' for Inactive)
REMARK    1  A    between atoms: C4_4  and  C5_5
REMARK    2  A    between atoms: C5_5  and  O2_7
REMARK    3  A    between atoms: O2_7  and  C6_8
REMARK    4  A    between atoms: C6_8  and  C7_10
REMARK    5  A    between atoms: C10_13  and  O4_14
REMARK    6  A    between atoms: C20_26  and  C21_27
ROOT
HETATM    1  C7  UNL     1      33.520 -31.324   3.055  1.00  0.00     0.091 C
HETATM    2  C8  UNL     1      32.410 -30.544   2.423  1.00  0.00     0.017 C
HETATM    3  C9  UNL     1      32.592 -30.198   1.002  1.00  0.00     0.033 C
HETATM    4  C10 UNL     1      33.403 -31.069   0.135  1.00  0.00     0.126 C
HETATM    5  C11 UNL     1      34.186 -32.124   0.818  1.00  0.00    -0.013 C
HETATM    6  C12 UNL     1      33.211 -33.263   1.137  1.00  0.00     0.018 C
HETATM    7  C13 UNL     1      35.341 -32.699   0.101  1.00  0.00     0.012 C
HETATM    8  C14 UNL     1      35.461 -32.476  -1.355  1.00  0.00     0.002 C
HETATM    9  C15 UNL     1      36.930 -32.591  -1.743  1.00  0.00     0.016 C
HETATM   10  C16 UNL     1      37.611 -31.227  -1.776  1.00  0.00     0.014 C
HETATM   11  C17 UNL     1      36.719 -30.150  -2.302  1.00  0.00     0.023 C
HETATM   12  C18 UNL     1      38.745 -31.378  -2.805  1.00  0.00     0.023 C
HETATM   13  C19 UNL     1      38.267 -30.907  -0.502  1.00  0.00     0.144 C
HETATM   14  O5  UNL     1      39.084 -31.713  -0.073  1.00  0.00    -0.296 OA
HETATM   15  C20 UNL     1      38.040 -29.694   0.326  1.00  0.00     0.098 C
HETATM   16  C22 UNL     1      37.979 -30.034   1.775  1.00  0.00    -0.075 C
HETATM   17  C23 UNL     1      39.288 -30.081   2.525  1.00  0.00     0.044 C
HETATM   18  C24 UNL     1      36.869 -30.297   2.445  1.00  0.00    -0.023 C
HETATM   19  C25 UNL     1      35.498 -30.297   1.861  1.00  0.00     0.033 C
HETATM   20  C26 UNL     1      34.701 -31.522   2.137  1.00  0.00     0.013 C
ENDROOT
BRANCH   1  21
HETATM   21  C6  UNL     1      33.880 -30.794   4.386  1.00  0.00     0.271 C
HETATM   22  O3  UNL     1      33.763 -29.557   4.576  1.00  0.00    -0.264 OA
BRANCH  21  23
HETATM   23  O2  UNL     1      34.338 -31.567   5.434  1.00  0.00    -0.241 OA
BRANCH  23  24
HETATM   24  C5  UNL     1      34.522 -31.047   6.725  1.00  0.00     0.290 C
HETATM   25  O1  UNL     1      33.564 -31.218   7.514  1.00  0.00    -0.260 OA
BRANCH  24  26
HETATM   26  C4  UNL     1      35.764 -30.360   7.087  1.00  0.00     0.084 C
HETATM   27  C2  UNL     1      36.212 -30.224   8.294  1.00  0.00    -0.082 C
HETATM   28  C1  UNL     1      35.462 -30.779   9.441  1.00  0.00     0.043 C
HETATM   29  C3  UNL     1      37.496 -29.497   8.520  1.00  0.00     0.043 C
ENDBRANCH  24  26
ENDBRANCH  23  24
ENDBRANCH  21  23
ENDBRANCH   1  21
BRANCH   4  30
HETATM   30  O4  UNL     1      32.604 -31.683  -0.868  1.00  0.00    -0.395 OA
ATOM     31  H4  UNL     1      32.783 -31.311  -1.724  1.00  0.00     0.210 HD
ENDBRANCH   4  30
BRANCH  15  32
HETATM   32  C21 UNL     1      39.250 -28.774   0.101  1.00  0.00     0.131 C
HETATM   33 CL1  UNL     1      38.686 -27.277  -0.666  1.00  0.00    -0.129 Cl
ENDBRANCH  15  32
TORSDOF 6
ENDMDL