MODEL 2
REMARK VINA RESULT: -6.896648908      2.699      4.053
REMARK  4 active torsions:
REMARK  status: ('A' for Active; 'I' for Inactive)
REMARK    1  A    between atoms: C2_2  and  O2_4
REMARK    2  A    between atoms: O2_4  and  C3_5
REMARK    3  A    between atoms: C4_6  and  C6_8
REMARK    4  A    between atoms: C14_19  and  C15_20
ROOT
HETATM    1  C3  UNL     1      37.767 -30.167   1.372  1.00  0.00     0.164 C
HETATM    2  C4  UNL     1      37.372 -30.167   2.838  1.00  0.00     0.075 C
HETATM    3  C5  UNL     1      35.898 -29.674   3.009  1.00  0.00     0.030 C
HETATM    4  C7  UNL     1      38.131 -29.360   3.793  1.00  0.00     0.003 C
HETATM    5  C8  UNL     1      37.266 -28.539   4.777  1.00  0.00     0.011 C
HETATM    6  C9  UNL     1      39.256 -28.530   3.320  1.00  0.00     0.017 C
HETATM    7  C10 UNL     1      39.691 -28.574   1.916  1.00  0.00    -0.012 C
HETATM    8  C11 UNL     1      41.237 -28.671   1.817  1.00  0.00     0.090 C
HETATM    9  C12 UNL     1      41.640 -28.516   0.395  1.00  0.00     0.136 C
HETATM   10  O5  UNL     1      42.742 -28.417  -0.006  1.00  0.00    -0.297 OA
HETATM   11  C13 UNL     1      40.426 -28.503  -0.531  1.00  0.00     0.095 C
HETATM   12  C14 UNL     1      39.809 -29.876  -0.169  1.00  0.00    -0.041 C
HETATM   13  C19 UNL     1      39.197 -29.810   1.153  1.00  0.00     0.018 C
HETATM   14  C20 UNL     1      39.938 -30.932   1.946  1.00  0.00     0.024 C
HETATM   15  C21 UNL     1      39.704 -27.298  -0.192  1.00  0.00    -0.022 C
HETATM   16  C22 UNL     1      40.647 -26.143  -0.626  1.00  0.00     0.017 C
HETATM   17  C23 UNL     1      38.432 -26.905  -0.829  1.00  0.00     0.011 C
HETATM   18  C24 UNL     1      37.827 -25.935   0.187  1.00  0.00     0.002 C
HETATM   19  C25 UNL     1      38.140 -26.584   1.545  1.00  0.00     0.011 C
HETATM   20  C26 UNL     1      39.452 -27.232   1.298  1.00  0.00    -0.027 C
HETATM   21  C27 UNL     1      40.439 -26.218   1.903  1.00  0.00     0.017 C
ENDROOT
BRANCH  12  22
HETATM   22  C15 UNL     1      39.303 -30.549  -1.353  1.00  0.00     0.031 A
HETATM   23  C16 UNL     1      39.453 -30.058  -2.635  1.00  0.00     0.156 A
HETATM   24  O6  UNL     1      38.891 -30.897  -3.455  1.00  0.00    -0.331 OA
HETATM   25  C17 UNL     1      38.376 -31.912  -2.840  1.00  0.00     0.184 A
HETATM   26  C18 UNL     1      38.620 -31.730  -1.486  1.00  0.00     0.150 A
HETATM   27  F1  UNL     1      38.255 -32.628  -0.530  1.00  0.00    -0.203 F
ENDBRANCH  12  22
BRANCH   1  28
HETATM   28  O2  UNL     1      36.730 -29.711   0.756  1.00  0.00    -0.314 OA
BRANCH  28  29
HETATM   29  C2  UNL     1      35.756 -29.856  -0.105  1.00  0.00     0.255 C
HETATM   30  C1  UNL     1      34.440 -30.467  -0.116  1.00  0.00     0.126 C
HETATM   31  O1  UNL     1      36.189 -29.289  -1.110  1.00  0.00    -0.266 OA
ENDBRANCH  28  29
ENDBRANCH   1  28
BRANCH   2  32
HETATM   32  C6  UNL     1      37.087 -31.552   3.386  1.00  0.00     0.184 C
HETATM   33  O3  UNL     1      36.667 -31.738   4.537  1.00  0.00    -0.647 OA
HETATM   34  O4  UNL     1      37.316 -32.622   2.556  1.00  0.00    -0.647 OA
ENDBRANCH   2  32
TORSDOF 4
ENDMDL