MODEL 4
REMARK VINA RESULT: -8.329847497      2.013      2.237
REMARK  5 active torsions:
REMARK  status: ('A' for Active; 'I' for Inactive)
REMARK    1  A    between atoms: O1_2  and  C2_3
REMARK    2  A    between atoms: C16_17  and  O2_18
REMARK    3  A    between atoms: O2_18  and  C17_19
REMARK    4  A    between atoms: C17_19  and  C18_21
REMARK    5  A    between atoms: C24_28  and  O4_29
ROOT
HETATM    1  C2  UNL     1      33.673 -32.546   0.405  1.00  0.00     0.265 C
HETATM    2  C3  UNL     1      33.650 -31.085   0.201  1.00  0.00     0.062 C
HETATM    3  C4  UNL     1      34.871 -30.328  -0.197  1.00  0.00     0.021 C
HETATM    4  C5  UNL     1      36.125 -31.193  -0.185  1.00  0.00     0.013 C
HETATM    5  C6  UNL     1      35.891 -32.124  -1.386  1.00  0.00     0.023 C
HETATM    6  C7  UNL     1      35.922 -31.929   1.109  1.00  0.00     0.055 C
HETATM    7  C8  UNL     1      36.573 -31.600   2.178  1.00  0.00     0.007 C
HETATM    8  C9  UNL     1      37.536 -30.521   2.268  1.00  0.00     0.035 C
HETATM    9  C10 UNL     1      38.254 -30.379   0.939  1.00  0.00     0.004 C
HETATM   10  C11 UNL     1      39.312 -29.416   1.123  1.00  0.00     0.007 C
HETATM   11  C12 UNL     1      40.743 -29.918   1.056  1.00  0.00     0.033 C
HETATM   12  C13 UNL     1      41.468 -28.645   1.340  1.00  0.00    -0.023 C
HETATM   13  C14 UNL     1      40.717 -27.629   0.954  1.00  0.00    -0.072 C
HETATM   14  C15 UNL     1      41.035 -26.185   1.046  1.00  0.00     0.067 C
HETATM   15  C16 UNL     1      40.123 -25.587   2.099  1.00  0.00     0.136 C
HETATM   16  C19 UNL     1      38.901 -26.427   2.198  1.00  0.00     0.034 C
HETATM   17  C20 UNL     1      38.452 -27.052   0.881  1.00  0.00     0.017 C
HETATM   18  C21 UNL     1      39.413 -28.116   0.403  1.00  0.00    -0.007 C
HETATM   19  C22 UNL     1      39.507 -28.268  -1.050  1.00  0.00     0.023 C
HETATM   20  C23 UNL     1      40.156 -27.134  -1.817  1.00  0.00     0.014 C
HETATM   21  C24 UNL     1      38.219 -28.526  -1.762  1.00  0.00     0.123 C
HETATM   22  C25 UNL     1      37.145 -29.243  -1.079  1.00  0.00     0.042 C
HETATM   23  C26 UNL     1      37.435 -30.469  -0.281  1.00  0.00    -0.024 C
HETATM   24  C27 UNL     1      38.288 -31.344  -1.254  1.00  0.00     0.017 C
HETATM   25  O5  UNL     1      34.977 -32.937   0.974  1.00  0.00    -0.324 OA
ENDROOT
BRANCH  15  26
HETATM   26  O2  UNL     1      39.866 -24.248   1.778  1.00  0.00    -0.315 OA
BRANCH  26  27
HETATM   27  C17 UNL     1      39.503 -23.307   2.709  1.00  0.00     0.273 C
HETATM   28  O3  UNL     1      38.495 -22.593   2.480  1.00  0.00    -0.264 OA
BRANCH  27  29
HETATM   29  C18 UNL     1      40.277 -23.123   3.970  1.00  0.00     0.225 C
HETATM   30 CL1  UNL     1      39.513 -23.990   5.322  1.00  0.00    -0.120 Cl
ENDBRANCH  27  29
ENDBRANCH  26  27
ENDBRANCH  15  26
BRANCH  21  31
HETATM   31  O4  UNL     1      37.699 -27.249  -2.107  1.00  0.00    -0.395 OA
ATOM     32  H4  UNL     1      36.835 -27.407  -2.470  1.00  0.00     0.210 HD
ENDBRANCH  21  31
BRANCH   1  33
HETATM   33  O1  UNL     1      32.799 -32.903   1.464  1.00  0.00    -0.366 OA
HETATM   34  C1  UNL     1      32.754 -31.930   2.429  1.00  0.00     0.204 C
ENDBRANCH   1  33
TORSDOF 5
ENDMDL