MODEL 3
REMARK VINA RESULT: -9.216555867      0.990      1.118
REMARK  3 active torsions:
REMARK  status: ('A' for Active; 'I' for Inactive)
REMARK    1  A    between atoms: C20_25  and  C21_26
REMARK    2  A    between atoms: C21_26  and  C22_27
REMARK    3  A    between atoms: C25_30  and  C26_31
ROOT
HETATM    1  C1  UNL     1      37.882 -28.252   3.120  1.00  0.00     0.019 C
HETATM    2  C2  UNL     1      38.641 -28.849   2.235  1.00  0.00    -0.054 C
HETATM    3  C3  UNL     1      40.127 -28.717   2.394  1.00  0.00     0.120 C
HETATM    4  C4  UNL     1      40.687 -29.336   1.127  1.00  0.00     0.279 C
HETATM    5  F1  UNL     1      40.697 -30.680   1.163  1.00  0.00    -0.203 F
HETATM    6  F2  UNL     1      42.015 -28.918   1.061  1.00  0.00    -0.203 F
HETATM    7  C5  UNL     1      40.011 -28.725  -0.098  1.00  0.00     0.148 C
HETATM    8  C6  UNL     1      40.941 -28.872  -1.221  1.00  0.00     0.046 C
HETATM    9  C7  UNL     1      40.528 -28.850  -2.616  1.00  0.00     0.008 C
HETATM   10  C8  UNL     1      40.586 -27.560  -3.355  1.00  0.00    -0.012 C
HETATM   11  C9  UNL     1      39.926 -27.775  -4.704  1.00  0.00     0.010 C
HETATM   12  C10 UNL     1      40.043 -26.360  -2.703  1.00  0.00     0.022 C
HETATM   13  C11 UNL     1      41.143 -25.575  -1.971  1.00  0.00     0.011 C
HETATM   14  C12 UNL     1      40.813 -25.612  -0.519  1.00  0.00     0.041 C
HETATM   15  C13 UNL     1      39.530 -26.401  -0.373  1.00  0.00     0.086 C
HETATM   16  C14 UNL     1      38.595 -25.479   0.449  1.00  0.00     0.049 C
HETATM   17  O1  UNL     1      39.700 -27.480   0.342  1.00  0.00    -0.359 OA
HETATM   18  C15 UNL     1      38.936 -26.514  -1.739  1.00  0.00     0.170 C
HETATM   19  O2  UNL     1      38.099 -27.630  -1.897  1.00  0.00    -0.312 OA
HETATM   20  C16 UNL     1      37.752 -28.669  -1.049  1.00  0.00     0.275 C
HETATM   21  O3  UNL     1      36.548 -28.891  -0.997  1.00  0.00    -0.264 OA
HETATM   22  C17 UNL     1      38.677 -29.491  -0.241  1.00  0.00     0.108 C
HETATM   23  C18 UNL     1      38.928 -30.857  -0.801  1.00  0.00     0.035 C
HETATM   24  C19 UNL     1      38.070 -29.637   1.106  1.00  0.00    -0.035 C
HETATM   25  C20 UNL     1      37.027 -30.358   1.416  1.00  0.00    -0.017 C
ENDROOT
BRANCH  25  26
HETATM   26  C21 UNL     1      36.148 -31.271   0.706  1.00  0.00     0.036 C
BRANCH  26  27
HETATM   27  C22 UNL     1      35.230 -32.096   1.638  1.00  0.00     0.017 C
HETATM   28  C23 UNL     1      35.566 -31.714   3.042  1.00  0.00     0.010 C
HETATM   29  C24 UNL     1      34.710 -30.670   3.664  1.00  0.00     0.012 C
HETATM   30  C25 UNL     1      33.232 -30.928   3.483  1.00  0.00     0.051 C
HETATM   31  C27 UNL     1      32.965 -30.917   1.996  1.00  0.00     0.045 C
HETATM   32  C28 UNL     1      33.820 -31.926   1.321  1.00  0.00    -0.084 C
HETATM   33  C29 UNL     1      33.240 -32.690   0.414  1.00  0.00     0.015 C
BRANCH  30  34
HETATM   34  C26 UNL     1      32.771 -32.168   4.140  1.00  0.00     0.236 C
HETATM   35  O4  UNL     1      32.425 -32.114   5.305  1.00  0.00    -0.306 OA
ENDBRANCH  30  34
ENDBRANCH  26  27
ENDBRANCH  25  26
TORSDOF 3
ENDMDL