MODEL 5
REMARK VINA RESULT: -8.148742191      2.289      3.956
REMARK  4 active torsions:
REMARK  status: ('A' for Active; 'I' for Inactive)
REMARK    1  A    between atoms: C2_2  and  C3_4
REMARK    2  A    between atoms: C3_4  and  O2_5
REMARK    3  A    between atoms: C15_18  and  C17_20
REMARK    4  A    between atoms: C17_20  and  C18_21
ROOT
HETATM    1  C3  UNL     1      36.632 -31.078  -1.734  1.00  0.00     0.206 C
HETATM    2  C4  UNL     1      37.477 -30.352  -0.662  1.00  0.00     0.071 C
HETATM    3  C5  UNL     1      38.369 -29.410  -1.395  1.00  0.00     0.091 C
HETATM    4  C6  UNL     1      39.126 -30.217  -2.388  1.00  0.00     0.064 C
HETATM    5  C7  UNL     1      40.115 -29.621  -3.032  1.00  0.00     0.034 C
HETATM    6  C8  UNL     1      40.457 -28.251  -2.720  1.00  0.00     0.009 C
HETATM    7  C9  UNL     1      39.876 -27.542  -1.747  1.00  0.00    -0.035 C
HETATM    8  C10 UNL     1      40.343 -26.139  -1.675  1.00  0.00     0.027 C
HETATM    9  C11 UNL     1      39.185 -25.178  -1.807  1.00  0.00     0.010 C
HETATM   10  C12 UNL     1      39.347 -23.842  -1.221  1.00  0.00     0.005 C
HETATM   11  C13 UNL     1      40.765 -23.402  -1.012  1.00  0.00    -0.010 C
HETATM   12  C14 UNL     1      41.099 -22.565  -2.237  1.00  0.00     0.011 C
HETATM   13  C15 UNL     1      41.763 -24.387  -0.589  1.00  0.00    -0.032 C
HETATM   14  C16 UNL     1      42.828 -24.341  -1.719  1.00  0.00     0.016 C
HETATM   15  C22 UNL     1      41.323 -25.877  -0.626  1.00  0.00    -0.029 C
HETATM   16  C23 UNL     1      42.572 -26.661  -1.034  1.00  0.00     0.016 C
HETATM   17  C24 UNL     1      40.935 -26.472   0.663  1.00  0.00     0.011 C
HETATM   18  C25 UNL     1      39.541 -26.651   1.041  1.00  0.00     0.009 C
HETATM   19  C26 UNL     1      38.695 -27.717   0.471  1.00  0.00     0.026 C
HETATM   20  C27 UNL     1      38.468 -28.776   1.574  1.00  0.00     0.014 C
HETATM   21  C28 UNL     1      39.162 -28.424  -0.745  1.00  0.00     0.140 C
HETATM   22  F1  UNL     1      40.225 -29.270  -0.186  1.00  0.00    -0.237 F
HETATM   23  O3  UNL     1      38.835 -31.562  -2.661  1.00  0.00    -0.280 OA
HETATM   24  C29 UNL     1      37.556 -32.013  -2.413  1.00  0.00     0.306 C
HETATM   25  O4  UNL     1      37.219 -33.169  -2.760  1.00  0.00    -0.261 OA
ENDROOT
BRANCH  13  26
HETATM   26  C17 UNL     1      42.416 -24.148   0.713  1.00  0.00     0.018 C
BRANCH  26  27
HETATM   27  C18 UNL     1      42.011 -23.192   1.720  1.00  0.00    -0.051 C
HETATM   28  C19 UNL     1      40.615 -23.150   2.245  1.00  0.00     0.014 C
HETATM   29  C20 UNL     1      42.806 -23.635   2.992  1.00  0.00     0.014 C
HETATM   30  C21 UNL     1      42.461 -21.765   1.551  1.00  0.00     0.014 C
ENDBRANCH  26  27
ENDBRANCH  13  26
BRANCH   1  31
HETATM   31  C2  UNL     1      35.555 -31.814  -1.004  1.00  0.00     0.167 C
HETATM   32  C1  UNL     1      35.694 -32.326   0.362  1.00  0.00     0.095 C
HETATM   33  O1  UNL     1      34.506 -31.988  -1.598  1.00  0.00    -0.294 OA
ENDBRANCH   1  31
BRANCH   1  34
HETATM   34  O2  UNL     1      36.097 -30.142  -2.612  1.00  0.00    -0.373 OA
ATOM     35  H2  UNL     1      36.513 -29.295  -2.507  1.00  0.00     0.211 HD
ENDBRANCH   1  34
TORSDOF 4
ENDMDL