MODEL 3
REMARK VINA RESULT: -8.879884744      1.800      2.056
REMARK  5 active torsions:
REMARK  status: ('A' for Active; 'I' for Inactive)
REMARK    1  A    between atoms: C2_2  and  C3_3
REMARK    2  A    between atoms: C3_3  and  C4_4
REMARK    3  A    between atoms: C6_6  and  N1_7
REMARK    4  A    between atoms: C9_10  and  C10_11
REMARK    5  A    between atoms: N2_21  and  O1_23
ROOT
HETATM    1  C4  UNL     1      38.115 -27.548   5.849  1.00  0.00     0.005 C
HETATM    2  C5  UNL     1      37.173 -28.571   5.537  1.00  0.00     0.049 C
HETATM    3  C6  UNL     1      37.018 -29.213   4.381  1.00  0.00     0.044 C
HETATM    4  C13 UNL     1      37.696 -28.825   3.179  1.00  0.00     0.029 A
HETATM    5  C14 UNL     1      37.704 -29.422   1.966  1.00  0.00    -0.036 A
HETATM    6  C15 UNL     1      37.360 -30.417   0.986  1.00  0.00     0.036 C
HETATM    7  C16 UNL     1      38.816 -30.744   0.503  1.00  0.00     0.010 C
HETATM    8  C17 UNL     1      38.478 -31.452  -0.770  1.00  0.00     0.061 C
HETATM    9  C18 UNL     1      37.359 -32.293  -0.288  1.00  0.00     0.019 C
HETATM   10  N2  UNL     1      36.823 -33.261  -0.927  1.00  0.00    -0.277 N
ATOM     11  H2  UNL     1      36.056 -33.770  -0.489  1.00  0.00     0.193 HD
HETATM   12  C19 UNL     1      36.965 -31.791   1.136  1.00  0.00     0.001 C
HETATM   13  C20 UNL     1      35.497 -32.152   1.127  1.00  0.00     0.022 C
HETATM   14  C21 UNL     1      37.801 -32.698   2.004  1.00  0.00     0.022 C
HETATM   15  C22 UNL     1      39.520 -29.496   0.425  1.00  0.00    -0.019 C
HETATM   16  C23 UNL     1      40.867 -29.594   1.121  1.00  0.00     0.018 C
HETATM   17  C24 UNL     1      39.848 -29.033  -0.995  1.00  0.00     0.018 C
HETATM   18  C25 UNL     1      38.598 -28.539   1.087  1.00  0.00     0.121 A
HETATM   19  N3  UNL     1      39.087 -27.574   1.909  1.00  0.00    -0.374 N
ATOM     20  H3  UNL     1      39.754 -26.853   1.634  1.00  0.00     0.161 HD
HETATM   21  C26 UNL     1      38.593 -27.702   3.067  1.00  0.00     0.084 A
HETATM   22  S1  UNL     1      38.861 -26.656   4.518  1.00  0.00    -0.072 SA
ENDROOT
BRANCH   3  23
HETATM   23  N1  UNL     1      35.981 -30.185   4.404  1.00  0.00    -0.380 N
HETATM   24  C7  UNL     1      34.714 -29.713   3.832  1.00  0.00     0.123 C
HETATM   25  C8  UNL     1      33.564 -30.567   4.305  1.00  0.00     0.025 C
HETATM   26  C9  UNL     1      33.742 -30.792   5.794  1.00  0.00     0.002 C
HETATM   27  C11 UNL     1      34.982 -31.583   6.130  1.00  0.00     0.025 C
HETATM   28  C12 UNL     1      36.020 -31.470   5.010  1.00  0.00     0.123 C
BRANCH  26  29
HETATM   29  C10 UNL     1      32.483 -31.414   6.322  1.00  0.00     0.119 C
HETATM   30 CL1  UNL     1      32.921 -32.265   7.842  1.00  0.00    -0.130 Cl
ENDBRANCH  26  29
ENDBRANCH   3  23
BRANCH   1  31
HETATM   31  C3  UNL     1      38.448 -27.259   7.057  1.00  0.00    -0.008 C
BRANCH  31  32
HETATM   32  C2  UNL     1      38.942 -28.263   8.011  1.00  0.00     0.024 C
HETATM   33  C1  UNL     1      37.725 -28.848   8.725  1.00  0.00     0.009 C
ENDBRANCH  31  32
ENDBRANCH   1  31
BRANCH  10  34
HETATM   34  O1  UNL     1      37.233 -33.643  -2.170  1.00  0.00    -0.290 OA
ATOM     35  H1  UNL     1      36.908 -34.424  -2.603  1.00  0.00     0.244 HD
ENDBRANCH  10  34
TORSDOF 5
ENDMDL