MODEL 5
REMARK VINA RESULT: -6.826461669      1.973      2.558
REMARK  11 active torsions:
REMARK  status: ('A' for Active; 'I' for Inactive)
REMARK    1  A    between atoms: C2_2  and  C5_5
REMARK    2  A    between atoms: C5_5  and  O1_6
REMARK    3  A    between atoms: C5_5  and  N1_8
REMARK    4  A    between atoms: N1_8  and  C6_10
REMARK    5  A    between atoms: C6_10  and  O2_11
REMARK    6  A    between atoms: C6_10  and  N2_13
REMARK    7  A    between atoms: N2_13  and  C7_15
REMARK    8  A    between atoms: C10_18  and  C11_19
REMARK    9  A    between atoms: C13_22  and  N3_23
REMARK   10  A    between atoms: N3_23  and  C14_25
REMARK   11  A    between atoms: C17_28  and  N4_29
ROOT
HETATM    1  C7  UNL     1      22.615  -3.014   9.557  1.00  0.00     0.077 A
HETATM    2  C8  UNL     1      22.336  -3.701  10.702  1.00  0.00     0.039 A
HETATM    3  C9  UNL     1      21.196  -4.404  10.744  1.00  0.00     0.023 A
HETATM    4  C10 UNL     1      20.400  -4.377   9.633  1.00  0.00     0.024 A
HETATM    5  S3  UNL     1      21.265  -3.374   8.565  1.00  0.00    -0.071 SA
ENDROOT
BRANCH   4   6
HETATM    6  C11 UNL     1      19.115  -5.059   9.401  1.00  0.00     0.031 A
HETATM    7  C12 UNL     1      18.506  -5.826  10.385  1.00  0.00     0.072 A
HETATM    8  S1  UNL     1      17.027  -6.468   9.867  1.00  0.00    -0.075 SA
HETATM    9  C13 UNL     1      16.740  -5.956   8.247  1.00  0.00     0.117 A
HETATM   10  S2  UNL     1      18.127  -5.044   7.994  1.00  0.00    -0.063 SA
BRANCH   9  11
HETATM   11  N3  UNL     1      15.764  -6.228   7.574  1.00  0.00    -0.345 N
ATOM     12  H3  UNL     1      15.261  -7.011   7.993  1.00  0.00     0.167 HD
BRANCH  11  13
HETATM   13  C14 UNL     1      15.125  -5.821   6.434  1.00  0.00     0.033 A
HETATM   14  C15 UNL     1      14.893  -4.498   6.128  1.00  0.00     0.032 A
HETATM   15  C16 UNL     1      14.263  -4.085   4.952  1.00  0.00     0.038 A
HETATM   16  C17 UNL     1      13.838  -5.008   4.021  1.00  0.00     0.103 A
HETATM   17  C18 UNL     1      14.062  -6.341   4.310  1.00  0.00     0.038 A
HETATM   18  C19 UNL     1      14.679  -6.747   5.466  1.00  0.00     0.032 A
BRANCH  16  19
HETATM   19  N4  UNL     1      13.190  -4.629   2.810  1.00  0.00    -0.116 N
HETATM   20  O3  UNL     1      12.656  -5.463   2.048  1.00  0.00    -0.532 OA
HETATM   21  O4  UNL     1      13.138  -3.312   2.434  1.00  0.00    -0.532 OA
ENDBRANCH  16  19
ENDBRANCH  11  13
ENDBRANCH   9  11
ENDBRANCH   4   6
BRANCH   1  22
HETATM   22  N2  UNL     1      23.806  -2.201   9.246  1.00  0.00    -0.316 N
ATOM     23  H2  UNL     1      24.749  -2.587   9.291  1.00  0.00     0.170 HD
BRANCH  22  24
HETATM   24  C6  UNL     1      23.570  -0.885   8.892  1.00  0.00     0.223 C
BRANCH  24  25
HETATM   25  N1  UNL     1      23.407  -0.267   7.670  1.00  0.00    -0.306 N
ATOM     26  H1  UNL     1      24.200  -0.441   7.055  1.00  0.00     0.171 HD
BRANCH  25  27
HETATM   27  C5  UNL     1      22.464   0.520   7.062  1.00  0.00     0.126 C
BRANCH  27  28
HETATM   28  C2  UNL     1      21.665   0.321   5.868  1.00  0.00     0.014 C
HETATM   29  C1  UNL     1      22.426  -0.300   4.742  1.00  0.00     0.023 C
HETATM   30  C3  UNL     1      20.401  -0.488   6.144  1.00  0.00     0.023 C
HETATM   31  C4  UNL     1      21.201   1.706   5.338  1.00  0.00     0.023 C
ENDBRANCH  27  28
BRANCH  27  32
HETATM   32  O1  UNL     1      22.241   1.666   7.671  1.00  0.00    -0.349 OA
ATOM     33  H1  UNL     1      23.031   2.140   7.902  1.00  0.00     0.219 HD
ENDBRANCH  27  32
ENDBRANCH  25  27
ENDBRANCH  24  25
BRANCH  24  34
HETATM   34  O2  UNL     1      23.482  -0.041   9.911  1.00  0.00    -0.332 OA
ATOM     35  H2  UNL     1      22.622   0.354   9.989  1.00  0.00     0.221 HD
ENDBRANCH  24  34
ENDBRANCH  22  24
ENDBRANCH   1  22
TORSDOF 11
ENDMDL