MODEL 2
REMARK VINA RESULT: -7.695512810      3.058      8.395
REMARK  8 active torsions:
REMARK  status: ('A' for Active; 'I' for Inactive)
REMARK    1  A    between atoms: C8_8  and  C9_9
REMARK    2  A    between atoms: C8_8  and  C20_28
REMARK    3  A    between atoms: C9_9  and  O1_10
REMARK    4  A    between atoms: C9_9  and  N1_12
REMARK    5  A    between atoms: C10_13  and  O2_14
REMARK    6  A    between atoms: C12_17  and  N2_18
REMARK    7  A    between atoms: C19_25  and  O3_26
REMARK    8  A    between atoms: C23_31  and  N3_32
ROOT
HETATM    1  C9  UNL     1      18.483  -4.792   6.892  1.00  0.00     0.141 C
ENDROOT
BRANCH   1   2
HETATM    2  C8  UNL     1      17.464  -5.508   7.633  1.00  0.00     0.065 C
HETATM    3  C2  UNL     1      17.901  -7.014   7.540  1.00  0.00     0.003 C
HETATM    4  C1  UNL     1      18.965  -7.398   8.487  1.00  0.00     0.011 C
HETATM    5  C3  UNL     1      16.662  -7.814   7.863  1.00  0.00     0.006 C
HETATM    6  C4  UNL     1      16.207  -7.551   9.245  1.00  0.00     0.001 C
HETATM    7  C5  UNL     1      16.508  -6.243   9.848  1.00  0.00     0.006 C
HETATM    8  C6  UNL     1      17.385  -5.293   9.082  1.00  0.00     0.003 C
HETATM    9  C7  UNL     1      17.110  -3.932   9.616  1.00  0.00     0.011 C
BRANCH   2  10
HETATM   10  C20 UNL     1      16.195  -5.537   6.870  1.00  0.00     0.002 A
HETATM   11  C21 UNL     1      15.030  -4.864   6.865  1.00  0.00     0.019 A
HETATM   12  C22 UNL     1      14.086  -5.202   5.973  1.00  0.00     0.045 A
HETATM   13  C23 UNL     1      14.378  -6.230   5.112  1.00  0.00     0.144 A
HETATM   14  S1  UNL     1      15.958  -6.666   5.598  1.00  0.00    -0.070 SA
BRANCH  13  15
HETATM   15  N3  UNL     1      13.543  -6.780   4.071  1.00  0.00    -0.108 N
HETATM   16  O4  UNL     1      13.181  -7.949   4.098  1.00  0.00    -0.531 OA
HETATM   17  O5  UNL     1      13.152  -5.973   3.036  1.00  0.00    -0.531 OA
ENDBRANCH  13  15
ENDBRANCH   2  10
ENDBRANCH   1   2
BRANCH   1  18
HETATM   18  O1  UNL     1      18.405  -5.035   5.595  1.00  0.00    -0.348 OA
ATOM     19  H1  UNL     1      19.107  -4.610   5.116  1.00  0.00     0.219 HD
ENDBRANCH   1  18
BRANCH   1  20
HETATM   20  N1  UNL     1      19.517  -3.919   7.206  1.00  0.00    -0.252 N
HETATM   21  C10 UNL     1      20.335  -3.866   8.248  1.00  0.00     0.152 A
HETATM   22  C11 UNL     1      21.265  -2.808   8.130  1.00  0.00     0.090 A
HETATM   23  C12 UNL     1      20.971  -2.209   6.948  1.00  0.00     0.086 A
HETATM   24  C19 UNL     1      19.913  -2.893   6.405  1.00  0.00     0.177 A
BRANCH  21  25
HETATM   25  O2  UNL     1      20.422  -4.642   9.385  1.00  0.00    -0.346 OA
ATOM     26  H2  UNL     1      20.618  -5.564   9.507  1.00  0.00     0.219 HD
ENDBRANCH  21  25
BRANCH  23  27
HETATM   27  N2  UNL     1      21.642  -1.087   6.396  1.00  0.00    -0.377 N
HETATM   28  C13 UNL     1      22.819  -1.385   5.646  1.00  0.00     0.123 C
HETATM   29  C14 UNL     1      23.277  -0.242   4.771  1.00  0.00     0.020 C
HETATM   30  C15 UNL     1      23.259   1.075   5.489  1.00  0.00     0.002 C
HETATM   31  C16 UNL     1      22.020   1.878   5.249  1.00  0.00     0.002 C
HETATM   32  C17 UNL     1      20.810   1.005   5.428  1.00  0.00     0.020 C
HETATM   33  C18 UNL     1      21.007   0.179   6.693  1.00  0.00     0.123 C
ENDBRANCH  23  27
BRANCH  24  34
HETATM   34  O3  UNL     1      19.361  -2.545   5.201  1.00  0.00    -0.344 OA
ATOM     35  H3  UNL     1      18.434  -2.482   5.006  1.00  0.00     0.219 HD
ENDBRANCH  24  34
ENDBRANCH   1  20
TORSDOF 8
ENDMDL