MODEL 5
REMARK VINA RESULT: -7.120442802      1.409      2.233
REMARK  7 active torsions:
REMARK  status: ('A' for Active; 'I' for Inactive)
REMARK    1  A    between atoms: O1_2  and  N1_3
REMARK    2  A    between atoms: N1_3  and  C2_5
REMARK    3  A    between atoms: C3_9  and  N3_10
REMARK    4  A    between atoms: C4_12  and  C5_13
REMARK    5  A    between atoms: C5_13  and  C6_14
REMARK    6  A    between atoms: C9_17  and  O2_18
REMARK    7  A    between atoms: C10_20  and  C11_21
ROOT
HETATM    1  C2  UNL     1      20.368  -3.862   8.729  1.00  0.00     0.123 A
HETATM    2  S1  UNL     1      18.981  -4.772   9.066  1.00  0.00     0.008 SA
HETATM    3  N2  UNL     1      17.827  -4.665   7.842  1.00  0.00    -0.308 N
ATOM      4  H2  UNL     1      16.929  -5.148   7.875  1.00  0.00     0.176 HD
HETATM    5  C3  UNL     1      18.207  -3.877   6.813  1.00  0.00     0.145 A
HETATM    6  C9  UNL     1      19.374  -3.203   6.686  1.00  0.00     0.122 A
HETATM    7  C10 UNL     1      20.442  -3.135   7.531  1.00  0.00     0.044 A
ENDROOT
BRANCH   7   8
HETATM    8  C11 UNL     1      21.691  -2.390   7.325  1.00  0.00     0.066 C
HETATM    9  C12 UNL     1      21.773  -0.940   7.631  1.00  0.00     0.068 C
HETATM   10  C13 UNL     1      23.276  -1.213   7.883  1.00  0.00     0.130 C
HETATM   11  C14 UNL     1      22.784  -2.597   8.337  1.00  0.00     0.068 C
HETATM   12  O3  UNL     1      24.015  -1.260   6.754  1.00  0.00    -0.355 OA
HETATM   13  C15 UNL     1      23.471  -2.009   5.708  1.00  0.00     0.139 C
HETATM   14  C16 UNL     1      24.576  -3.038   5.388  1.00  0.00     0.094 C
HETATM   15  C23 UNL     1      23.443  -1.085   4.510  1.00  0.00     0.049 C
HETATM   16  N4  UNL     1      22.245  -2.629   6.020  1.00  0.00    -0.378 N
HETATM   17  C17 UNL     1      25.847  -2.286   5.434  1.00  0.00    -0.082 C
HETATM   18  C18 UNL     1      26.982  -2.688   6.276  1.00  0.00     0.043 C
HETATM   19  C19 UNL     1      25.936  -1.207   4.671  1.00  0.00    -0.015 C
HETATM   20  C20 UNL     1      24.750  -0.862   3.846  1.00  0.00    -0.022 C
HETATM   21  C21 UNL     1      24.914  -1.596   2.537  1.00  0.00     0.019 C
HETATM   22  C22 UNL     1      24.907   0.631   3.504  1.00  0.00     0.019 C
HETATM   23  C24 UNL     1      22.341  -1.440   3.529  1.00  0.00     0.016 C
ATOM     24  H4  UNL     1      21.768  -3.227   5.345  1.00  0.00     0.157 HD
ENDBRANCH   7   8
BRANCH   1  25
HETATM   25  N1  UNL     1      21.351  -3.840   9.574  1.00  0.00    -0.258 N
ATOM     26  H1  UNL     1      22.268  -3.499   9.284  1.00  0.00     0.195 HD
BRANCH  25  27
HETATM   27  O1  UNL     1      21.155  -4.275  10.853  1.00  0.00    -0.284 OA
HETATM   28  C1  UNL     1      22.141  -4.812  11.686  1.00  0.00     0.237 C
ENDBRANCH  25  27
ENDBRANCH   1  25
BRANCH   6  29
HETATM   29  O2  UNL     1      19.509  -2.455   5.499  1.00  0.00    -0.356 OA
ATOM     30  H2  UNL     1      18.751  -2.461   4.927  1.00  0.00     0.218 HD
ENDBRANCH   6  29
BRANCH   5  31
HETATM   31  N3  UNL     1      17.191  -3.807   5.775  1.00  0.00    -0.353 N
HETATM   32  C4  UNL     1      15.998  -4.158   6.099  1.00  0.00     0.063 C
ATOM     33  H3  UNL     1      17.416  -3.492   4.831  1.00  0.00     0.166 HD
BRANCH  32  34
HETATM   34  C5  UNL     1      14.894  -4.118   5.104  1.00  0.00     0.048 C
BRANCH  34  35
HETATM   35  C6  UNL     1      13.979  -5.303   5.312  1.00  0.00    -0.018 C
HETATM   36  C7  UNL     1      14.558  -6.122   6.450  1.00  0.00     0.010 C
HETATM   37  C8  UNL     1      13.947  -6.159   4.073  1.00  0.00     0.010 C
ENDBRANCH  34  35
ENDBRANCH  32  34
ENDBRANCH   5  31
TORSDOF 7
ENDMDL