MODEL 3
REMARK VINA RESULT: -5.683761029      7.628     10.966
REMARK  8 active torsions:
REMARK  status: ('A' for Active; 'I' for Inactive)
REMARK    1  A    between atoms: C2_2  and  C3_3
REMARK    2  A    between atoms: C3_3  and  O1_4
REMARK    3  A    between atoms: O1_4  and  C4_5
REMARK    4  A    between atoms: C4_5  and  O3_7
REMARK    5  A    between atoms: O3_7  and  C5_8
REMARK    6  A    between atoms: C7_11  and  O5_12
REMARK    7  A    between atoms: C16_24  and  C17_25
REMARK    8  A    between atoms: C24_32  and  O7_33
ROOT
HETATM    1  C5  UNL     1      18.480  -6.691   9.753  1.00  0.00     0.306 C
HETATM    2  O4  UNL     1      19.593  -7.417  10.215  1.00  0.00    -0.316 OA
HETATM    3  C6  UNL     1      19.686  -8.601  11.067  1.00  0.00     0.112 C
HETATM    4  C7  UNL     1      19.162  -8.567  12.263  1.00  0.00     0.216 C
HETATM    5  O6  UNL     1      18.628  -7.356  12.817  1.00  0.00    -0.260 OA
HETATM    6  C8  UNL     1      19.583  -6.320  13.289  1.00  0.00     0.203 C
HETATM    7  N1  UNL     1      20.785  -6.360  13.342  1.00  0.00    -0.396 NA
HETATM    8  C9  UNL     1      22.091  -6.701  13.279  1.00  0.00     0.191 C
HETATM    9  C10 UNL     1      22.762  -7.628  12.536  1.00  0.00    -0.037 C
HETATM   10  C11 UNL     1      24.212  -7.821  12.638  1.00  0.00     0.050 C
HETATM   11  C12 UNL     1      21.916  -8.398  11.685  1.00  0.00    -0.017 C
HETATM   12  C13 UNL     1      22.023  -9.231  10.519  1.00  0.00     0.038 C
HETATM   13  C14 UNL     1      20.467  -9.604  10.292  1.00  0.00     0.047 C
HETATM   14  C15 UNL     1      20.444 -11.038  10.614  1.00  0.00     0.017 C
HETATM   15  C16 UNL     1      18.654  -5.138  13.707  1.00  0.00     0.079 C
HETATM   16  C20 UNL     1      17.932  -4.918  12.462  1.00  0.00     0.018 C
HETATM   17  C21 UNL     1      17.602  -3.765  11.673  1.00  0.00    -0.015 C
HETATM   18  C22 UNL     1      16.222  -3.231  12.010  1.00  0.00     0.010 C
HETATM   19  C23 UNL     1      17.407  -4.410  10.251  1.00  0.00     0.041 C
HETATM   20  C24 UNL     1      18.559  -5.204   9.754  1.00  0.00     0.174 C
ENDROOT
BRANCH   1  21
HETATM   21  O3  UNL     1      17.304  -7.259  10.268  1.00  0.00    -0.263 OA
BRANCH  21  22
HETATM   22  C4  UNL     1      16.430  -8.091   9.587  1.00  0.00     0.408 C
HETATM   23  O2  UNL     1      15.872  -7.581   8.587  1.00  0.00    -0.229 OA
BRANCH  22  24
HETATM   24  O1  UNL     1      16.166  -9.386   9.952  1.00  0.00    -0.298 OA
BRANCH  24  25
HETATM   25  C3  UNL     1      16.875 -10.478   9.457  1.00  0.00     0.180 C
BRANCH  25  26
HETATM   26  C2  UNL     1      16.758 -11.742  10.240  1.00  0.00     0.022 C
HETATM   27  C1  UNL     1      16.863 -12.962   9.322  1.00  0.00     0.007 C
ENDBRANCH  25  26
ENDBRANCH  24  25
ENDBRANCH  22  24
ENDBRANCH  21  22
ENDBRANCH   1  21
BRANCH  20  28
HETATM   28  O7  UNL     1      18.631  -4.799   8.373  1.00  0.00    -0.391 OA
ATOM     29  H7  UNL     1      17.744  -4.840   8.035  1.00  0.00     0.210 HD
ENDBRANCH  20  28
BRANCH   4  30
HETATM   30  O5  UNL     1      18.992  -9.474  13.329  1.00  0.00    -0.339 OA
ATOM     31  H5  UNL     1      18.434  -9.539  14.094  1.00  0.00     0.220 HD
ENDBRANCH   4  30
BRANCH  15  32
HETATM   32  C17 UNL     1      17.863  -5.664  14.870  1.00  0.00    -0.010 C
HETATM   33  C18 UNL     1      18.768  -5.689  16.093  1.00  0.00     0.010 C
HETATM   34  C19 UNL     1      16.713  -4.739  15.204  1.00  0.00     0.010 C
ENDBRANCH  15  32
TORSDOF 8
ENDMDL