MODEL 4
REMARK VINA RESULT: -6.350799031      3.335      7.133
REMARK  8 active torsions:
REMARK  status: ('A' for Active; 'I' for Inactive)
REMARK    1  A    between atoms: C2_2  and  C3_4
REMARK    2  A    between atoms: C7_10  and  C8_11
REMARK    3  A    between atoms: C9_12  and  C10_13
REMARK    4  A    between atoms: C10_13  and  O2_14
REMARK    5  A    between atoms: C10_13  and  C11_16
REMARK    6  A    between atoms: C15_20  and  O3_21
REMARK    7  A    between atoms: C16_23  and  O4_24
REMARK    8  A    between atoms: N2_26  and  C17_27
ROOT
HETATM    1  C3  UNL     1      14.160  -4.632   3.796  1.00  0.00     0.056 A
HETATM    2  C4  UNL     1      14.354  -5.785   4.470  1.00  0.00     0.094 A
HETATM    3  C5  UNL     1      13.698  -7.059   4.384  1.00  0.00     0.103 C
HETATM    4  N1  UNL     1      13.161  -8.083   4.299  1.00  0.00    -0.191 NA
HETATM    5  C6  UNL     1      15.406  -5.509   5.358  1.00  0.00     0.103 A
HETATM    6  S1  UNL     1      16.398  -6.178   6.589  1.00  0.00    -0.067 SA
HETATM    7  C7  UNL     1      17.353  -4.818   6.924  1.00  0.00     0.051 A
HETATM    8  C22 UNL     1      16.840  -3.891   6.041  1.00  0.00     0.119 A
HETATM    9  N3  UNL     1      15.849  -4.279   5.259  1.00  0.00    -0.317 N
HETATM   10  C23 UNL     1      15.068  -3.713   4.274  1.00  0.00     0.028 A
HETATM   11  C24 UNL     1      15.131  -2.320   3.743  1.00  0.00     0.070 C
ENDROOT
BRANCH   1  12
HETATM   12  C2  UNL     1      13.150  -4.449   2.754  1.00  0.00     0.159 C
HETATM   13  C1  UNL     1      13.594  -4.635   1.339  1.00  0.00     0.097 C
HETATM   14  O1  UNL     1      11.963  -4.150   3.031  1.00  0.00    -0.293 OA
ENDBRANCH   1  12
BRANCH   7  15
HETATM   15  C8  UNL     1      18.440  -4.633   7.892  1.00  0.00     0.071 A
HETATM   16  C9  UNL     1      18.672  -5.149   9.129  1.00  0.00     0.059 A
HETATM   17  C15 UNL     1      19.912  -4.582   9.531  1.00  0.00     0.132 A
HETATM   18  C16 UNL     1      20.332  -3.784   8.532  1.00  0.00     0.178 A
HETATM   19  N2  UNL     1      19.455  -3.791   7.507  1.00  0.00    -0.319 N
BRANCH  16  20
HETATM   20  C10 UNL     1      17.906  -6.022   9.967  1.00  0.00     0.066 C
BRANCH  20  21
HETATM   21  O2  UNL     1      17.038  -5.325  10.721  1.00  0.00    -0.363 OA
ATOM     22  H2  UNL     1      16.142  -5.526  10.479  1.00  0.00     0.217 HD
ENDBRANCH  20  21
BRANCH  20  23
HETATM   23  C11 UNL     1      17.828  -7.447  10.217  1.00  0.00    -0.002 C
HETATM   24  C12 UNL     1      18.890  -8.169   9.299  1.00  0.00     0.021 C
HETATM   25  C13 UNL     1      18.254  -7.843  11.590  1.00  0.00     0.021 C
HETATM   26  C14 UNL     1      16.554  -8.128   9.841  1.00  0.00     0.021 C
ENDBRANCH  20  23
ENDBRANCH  16  20
BRANCH  17  27
HETATM   27  O3  UNL     1      20.568  -4.815  10.741  1.00  0.00    -0.356 OA
ATOM     28  H3  UNL     1      21.436  -5.186  10.844  1.00  0.00     0.218 HD
ENDBRANCH  17  27
BRANCH  18  29
HETATM   29  O4  UNL     1      21.547  -3.061   8.616  1.00  0.00    -0.344 OA
ATOM     30  H4  UNL     1      22.068  -2.869   7.845  1.00  0.00     0.219 HD
ENDBRANCH  18  29
BRANCH  19  31
HETATM   31  C17 UNL     1      19.690  -3.056   6.340  1.00  0.00     0.092 C
HETATM   32  C18 UNL     1      20.525  -3.650   5.261  1.00  0.00     0.026 C
HETATM   33  C19 UNL     1      20.689  -2.491   4.286  1.00  0.00     0.002 C
HETATM   34  C20 UNL     1      19.911  -1.310   4.888  1.00  0.00     0.002 C
HETATM   35  C21 UNL     1      20.147  -1.646   6.398  1.00  0.00     0.026 C
ENDBRANCH  19  31
ENDBRANCH   7  15
TORSDOF 8
ENDMDL