MODEL 5
REMARK VINA RESULT: -5.892831090      2.983      7.242
REMARK  4 active torsions:
REMARK  status: ('A' for Active; 'I' for Inactive)
REMARK    1  A    between atoms: S1_2  and  C2_3
REMARK    2  A    between atoms: C2_3  and  C3_4
REMARK    3  A    between atoms: C3_4  and  C4_5
REMARK    4  A    between atoms: N3_24  and  O2_26
ROOT
HETATM    1  C4  UNL     1      20.002  -3.489   8.353  1.00  0.00     0.143 C
HETATM    2  N1  UNL     1      21.359  -3.746   8.771  1.00  0.00    -0.346 N
ATOM      3  H1  UNL     1      21.600  -4.711   8.995  1.00  0.00     0.163 HD
HETATM    4  C5  UNL     1      22.416  -2.751   8.903  1.00  0.00     0.251 C
HETATM    5  O1  UNL     1      23.085  -2.780  10.013  1.00  0.00    -0.268 OA
HETATM    6  C6  UNL     1      22.791  -1.744   7.941  1.00  0.00     0.049 C
HETATM    7  C7  UNL     1      23.244  -1.631   6.713  1.00  0.00     0.093 C
HETATM    8  S2  UNL     1      23.750  -2.801   5.405  1.00  0.00    -0.032 SA
HETATM    9  N2  UNL     1      23.116  -0.327   6.112  1.00  0.00    -0.356 N
ATOM     10  H2  UNL     1      24.046   0.081   6.018  1.00  0.00     0.166 HD
HETATM   11  C8  UNL     1      22.295   0.466   5.676  1.00  0.00    -0.007 C
HETATM   12  C9  UNL     1      22.708   1.829   5.101  1.00  0.00     0.053 C
HETATM   13  C10 UNL     1      21.891   2.921   5.695  1.00  0.00     0.006 C
HETATM   14  C11 UNL     1      22.618   4.172   6.027  1.00  0.00     0.000 C
HETATM   15  C12 UNL     1      23.866   4.045   6.824  1.00  0.00     0.000 C
HETATM   16  C13 UNL     1      23.694   3.907   8.295  1.00  0.00     0.000 C
HETATM   17  C14 UNL     1      23.450   2.520   8.806  1.00  0.00     0.006 C
HETATM   18  C15 UNL     1      24.574   1.572   8.610  1.00  0.00     0.055 C
HETATM   19  C16 UNL     1      24.258   0.161   8.544  1.00  0.00     0.014 C
HETATM   20  N3  UNL     1      25.208  -0.718   8.357  1.00  0.00    -0.277 N
ATOM     21  H3  UNL     1      24.970  -1.709   8.312  1.00  0.00     0.193 HD
HETATM   22  C17 UNL     1      22.895  -0.354   8.692  1.00  0.00     0.101 C
HETATM   23  C18 UNL     1      20.849   0.300   5.595  1.00  0.00     0.110 C
HETATM   24  C19 UNL     1      20.335  -1.132   5.578  1.00  0.00     0.021 A
HETATM   25  C20 UNL     1      19.961  -1.963   4.516  1.00  0.00     0.077 A
HETATM   26  S3  UNL     1      19.602  -3.422   5.345  1.00  0.00    -0.085 SA
HETATM   27  C21 UNL     1      19.934  -2.930   6.943  1.00  0.00     0.074 A
HETATM   28  N4  UNL     1      20.287  -1.695   6.734  1.00  0.00    -0.355 N
ATOM     29  H4  UNL     1      20.545  -1.132   7.545  1.00  0.00     0.166 HD
ENDROOT
BRANCH   1  30
HETATM   30  C3  UNL     1      19.208  -4.768   8.357  1.00  0.00     0.042 C
BRANCH  30  31
HETATM   31  C2  UNL     1      17.756  -4.609   8.607  1.00  0.00     0.076 C
BRANCH  31  32
HETATM   32  S1  UNL     1      16.814  -5.463   7.316  1.00  0.00    -0.173 SA
HETATM   33  C1  UNL     1      15.934  -4.253   6.291  1.00  0.00     0.089 C
ENDBRANCH  31  32
ENDBRANCH  30  31
ENDBRANCH   1  30
BRANCH  20  34
HETATM   34  O2  UNL     1      26.515  -0.335   8.220  1.00  0.00    -0.290 OA
ATOM     35  H2  UNL     1      26.948   0.192   8.881  1.00  0.00     0.244 HD
ENDBRANCH  20  34
TORSDOF 4
ENDMDL