MODEL 2
REMARK VINA RESULT: -8.184991960      0.933      1.196
REMARK  9 active torsions:
REMARK  status: ('A' for Active; 'I' for Inactive)
REMARK    1  A    between atoms: C3_3  and  C4_4
REMARK    2  A    between atoms: C3_3  and  C6_6
REMARK    3  A    between atoms: C6_6  and  S1_10
REMARK    4  A    between atoms: S1_10  and  S2_11
REMARK    5  A    between atoms: S2_11  and  C7_12
REMARK    6  A    between atoms: C12_19  and  O1_20
REMARK    7  A    between atoms: C20_31  and  C21_32
REMARK    8  A    between atoms: C21_32  and  O3_34
REMARK    9  A    between atoms: O3_34  and  C22_35
ROOT
HETATM    1  C1  UNL     1      23.006  -2.454   8.832  1.00  0.00     0.013 C
HETATM    2  C2  UNL     1      22.765  -1.780   7.850  1.00  0.00    -0.106 C
HETATM    3  C3  UNL     1      22.472  -0.979   6.658  1.00  0.00     0.121 C
ENDROOT
BRANCH   3   4
HETATM    4  C4  UNL     1      23.160  -1.573   5.466  1.00  0.00     0.019 C
HETATM    5  C5  UNL     1      23.268  -0.542   4.389  1.00  0.00     0.007 C
ENDBRANCH   3   4
BRANCH   3   6
HETATM    6  C6  UNL     1      21.000  -0.948   6.445  1.00  0.00     0.067 C
HETATM    7  N1  UNL     1      20.316   0.125   6.464  1.00  0.00    -0.395 N
ATOM      8  H12 UNL     1      20.764   1.026   6.629  1.00  0.00     0.156 HD
ATOM      9  H11 UNL     1      19.307   0.147   6.318  1.00  0.00     0.156 HD
BRANCH   6  10
HETATM   10  S1  UNL     1      20.213  -2.531   6.155  1.00  0.00    -0.037 SA
BRANCH  10  11
HETATM   11  S2  UNL     1      19.220  -3.130   7.907  1.00  0.00    -0.037 SA
BRANCH  11  12
HETATM   12  C7  UNL     1      17.909  -4.340   7.531  1.00  0.00     0.068 C
HETATM   13  N2  UNL     1      17.231  -4.103   6.469  1.00  0.00    -0.351 N
HETATM   14  C8  UNL     1      16.140  -4.838   5.881  1.00  0.00     0.062 A
ATOM     15  H2  UNL     1      17.508  -3.263   5.961  1.00  0.00     0.166 HD
HETATM   16  C9  UNL     1      15.397  -4.064   5.015  1.00  0.00     0.032 A
HETATM   17  C13 UNL     1      15.807  -6.160   6.093  1.00  0.00     0.092 A
HETATM   18  C10 UNL     1      14.320  -4.630   4.367  1.00  0.00     0.005 A
HETATM   19  C11 UNL     1      14.010  -5.972   4.604  1.00  0.00     0.039 A
HETATM   20  C12 UNL     1      14.744  -6.758   5.466  1.00  0.00     0.094 A
HETATM   21  N3  UNL     1      16.517  -7.016   6.973  1.00  0.00    -0.357 N
HETATM   22  C14 UNL     1      17.313  -6.732   7.946  1.00  0.00     0.015 C
ATOM     23  H3  UNL     1      16.376  -8.012   6.810  1.00  0.00     0.166 HD
HETATM   24  C15 UNL     1      17.774  -5.450   8.498  1.00  0.00     0.090 C
HETATM   25  C20 UNL     1      17.742  -8.066   8.514  1.00  0.00     0.160 C
HETATM   26  C16 UNL     1      19.138  -5.579   9.154  1.00  0.00     0.021 C
HETATM   27  C17 UNL     1      19.240  -6.755  10.082  1.00  0.00     0.036 C
HETATM   28  C18 UNL     1      19.021  -7.965   9.236  1.00  0.00    -0.070 C
HETATM   29  C19 UNL     1      19.928  -8.919   9.126  1.00  0.00     0.015 C
BRANCH  20  30
HETATM   30  O1  UNL     1      14.413  -8.099   5.686  1.00  0.00    -0.358 OA
ATOM     31  H1  UNL     1      14.487  -8.491   6.549  1.00  0.00     0.217 HD
ENDBRANCH  20  30
BRANCH  25  32
HETATM   32  C21 UNL     1      16.701  -8.458   9.522  1.00  0.00     0.272 C
HETATM   33  O2  UNL     1      15.641  -7.804   9.671  1.00  0.00    -0.264 OA
BRANCH  32  34
HETATM   34  O3  UNL     1      16.905  -9.556  10.303  1.00  0.00    -0.321 OA
BRANCH  34  35
HETATM   35  C22 UNL     1      16.750 -10.887   9.913  1.00  0.00     0.174 C
HETATM   36  C23 UNL     1      17.880 -11.778  10.369  1.00  0.00     0.034 C
ENDBRANCH  34  35
ENDBRANCH  32  34
ENDBRANCH  25  32
ENDBRANCH  11  12
ENDBRANCH  10  11
ENDBRANCH   6  10
ENDBRANCH   3   6
TORSDOF 9
ENDMDL