MODEL 5
REMARK VINA RESULT: -7.443111186      2.475      3.526
REMARK  7 active torsions:
REMARK  status: ('A' for Active; 'I' for Inactive)
REMARK    1  A    between atoms: O1_2  and  C2_3
REMARK    2  A    between atoms: C3_7  and  N2_8
REMARK    3  A    between atoms: N2_8  and  C4_10
REMARK    4  A    between atoms: C4_10  and  C5_14
REMARK    5  A    between atoms: C10_20  and  C12_22
REMARK    6  A    between atoms: C12_22  and  O3_24
REMARK    7  A    between atoms: O3_24  and  C13_25
ROOT
HETATM    1  C5  UNL     1      18.132  -8.245  10.348  1.00  0.00     0.114 C
HETATM    2  C6  UNL     1      17.168  -9.351  10.192  1.00  0.00     0.078 C
HETATM    3  N4  UNL     1      16.387 -10.220  10.053  1.00  0.00    -0.196 NA
HETATM    4  C7  UNL     1      19.097  -8.430   9.154  1.00  0.00     0.034 C
HETATM    5  C8  UNL     1      18.590  -7.337   8.173  1.00  0.00     0.009 C
HETATM    6  C9  UNL     1      18.441  -6.248   9.182  1.00  0.00     0.014 C
HETATM    7  C10 UNL     1      18.172  -4.890   8.779  1.00  0.00     0.049 C
HETATM    8  C11 UNL     1      19.555  -4.188   8.627  1.00  0.00     0.026 C
HETATM    9  C19 UNL     1      17.426  -4.057   9.795  1.00  0.00     0.020 C
HETATM   10  C20 UNL     1      17.318  -4.603  11.144  1.00  0.00     0.002 C
HETATM   11  C21 UNL     1      17.516  -6.041  11.373  1.00  0.00     0.012 C
HETATM   12  C22 UNL     1      17.488  -6.905  10.169  1.00  0.00    -0.011 C
HETATM   13  C23 UNL     1      16.092  -7.052   9.617  1.00  0.00     0.018 C
ENDROOT
BRANCH   1  14
HETATM   14  C4  UNL     1      18.855  -8.449  11.616  1.00  0.00     0.100 C
HETATM   15  N3  UNL     1      20.046  -7.939  11.720  1.00  0.00    -0.387 N
ATOM     16  H32 UNL     1      20.545  -8.080  12.598  1.00  0.00     0.157 HD
ATOM     17  H31 UNL     1      20.404  -7.431  10.912  1.00  0.00     0.157 HD
BRANCH  14  18
HETATM   18  N2  UNL     1      18.360  -9.153  12.735  1.00  0.00    -0.324 N
ATOM     19  H2  UNL     1      17.954 -10.081  12.616  1.00  0.00     0.169 HD
BRANCH  18  20
HETATM   20  C3  UNL     1      18.428  -8.560  14.047  1.00  0.00     0.169 A
HETATM   21  S1  UNL     1      19.329  -9.009  15.421  1.00  0.00     0.026 SA
HETATM   22  N1  UNL     1      18.801  -7.798  16.465  1.00  0.00    -0.289 N
HETATM   23  C2  UNL     1      17.952  -7.102  15.703  1.00  0.00     0.231 A
ATOM     24  H1  UNL     1      19.063  -7.637  17.438  1.00  0.00     0.178 HD
HETATM   25  N5  UNL     1      17.769  -7.495  14.480  1.00  0.00    -0.301 N
ATOM     26  H5  UNL     1      17.130  -6.993  13.863  1.00  0.00     0.171 HD
BRANCH  23  27
HETATM   27  O1  UNL     1      17.280  -5.971  16.230  1.00  0.00    -0.327 OA
HETATM   28  C1  UNL     1      16.773  -4.954  15.403  1.00  0.00     0.213 C
ENDBRANCH  23  27
ENDBRANCH  18  20
ENDBRANCH  14  18
ENDBRANCH   1  14
BRANCH   7  29
HETATM   29  C12 UNL     1      17.575  -4.743   7.431  1.00  0.00     0.268 C
HETATM   30  O2  UNL     1      18.247  -4.439   6.452  1.00  0.00    -0.264 OA
BRANCH  29  31
HETATM   31  O3  UNL     1      16.217  -4.942   7.199  1.00  0.00    -0.315 OA
BRANCH  31  32
HETATM   32  C13 UNL     1      15.626  -5.281   5.998  1.00  0.00     0.132 C
HETATM   33  C14 UNL     1      14.332  -4.462   5.897  1.00  0.00     0.032 C
HETATM   34  C15 UNL     1      13.741  -4.493   4.531  1.00  0.00     0.002 C
HETATM   35  C16 UNL     1      14.036  -5.803   3.858  1.00  0.00     0.000 C
HETATM   36  C17 UNL     1      14.092  -6.868   4.926  1.00  0.00     0.002 C
HETATM   37  C18 UNL     1      15.311  -6.734   5.818  1.00  0.00     0.032 C
ENDBRANCH  31  32
ENDBRANCH  29  31
ENDBRANCH   7  29
TORSDOF 7
ENDMDL