MODEL 3
REMARK VINA RESULT: -7.739586229      1.148      1.412
REMARK  7 active torsions:
REMARK  status: ('A' for Active; 'I' for Inactive)
REMARK    1  A    between atoms: C2_2  and  C3_3
REMARK    2  A    between atoms: C3_3  and  C5_5
REMARK    3  A    between atoms: C5_5  and  O2_7
REMARK    4  A    between atoms: O2_7  and  C6_8
REMARK    5  A    between atoms: C6_8  and  C7_9
REMARK    6  A    between atoms: N1_23  and  O5_25
REMARK    7  A    between atoms: C24_32  and  O6_33
ROOT
HETATM    1  C7  UNL     1      16.709  -6.895   8.573  1.00  0.00     0.256 C
HETATM    2  O3  UNL     1      16.213  -6.812   9.867  1.00  0.00    -0.194 OA
HETATM    3  O4  UNL     1      15.807  -8.077   9.683  1.00  0.00    -0.221 OA
HETATM    4  C8  UNL     1      17.049  -8.300   9.098  1.00  0.00     0.157 C
HETATM    5  C9  UNL     1      17.158  -9.358   8.079  1.00  0.00     0.056 C
HETATM    6  C10 UNL     1      18.153  -8.218  10.137  1.00  0.00     0.074 C
HETATM    7  C11 UNL     1      19.477  -8.514   9.585  1.00  0.00    -0.023 C
HETATM    8  C12 UNL     1      20.686  -8.493  10.367  1.00  0.00    -0.002 C
HETATM    9  C13 UNL     1      21.160  -7.840  11.392  1.00  0.00    -0.084 C
HETATM   10  C14 UNL     1      22.571  -8.189  11.886  1.00  0.00     0.043 C
HETATM   11  C15 UNL     1      20.542  -6.764  12.206  1.00  0.00     0.034 C
HETATM   12  C16 UNL     1      21.074  -5.376  11.899  1.00  0.00     0.015 C
HETATM   13  C17 UNL     1      20.886  -4.963  10.505  1.00  0.00     0.038 C
HETATM   14  C18 UNL     1      19.504  -4.621  10.097  1.00  0.00     0.023 C
HETATM   15  N1  UNL     1      18.549  -4.311  10.814  1.00  0.00    -0.277 N
ATOM     16  H1  UNL     1      17.701  -4.125  10.278  1.00  0.00     0.193 HD
HETATM   17  C19 UNL     1      19.370  -4.660   8.606  1.00  0.00     0.089 C
HETATM   18  C20 UNL     1      20.002  -3.375   8.162  1.00  0.00     0.016 C
HETATM   19  C21 UNL     1      21.382  -3.231   8.731  1.00  0.00     0.006 C
HETATM   20  C22 UNL     1      21.667  -3.737  10.079  1.00  0.00    -0.009 C
HETATM   21  C23 UNL     1      23.143  -4.110  10.188  1.00  0.00     0.011 C
HETATM   22  C24 UNL     1      17.980  -4.936   8.234  1.00  0.00     0.270 C
HETATM   23  O7  UNL     1      17.840  -6.300   8.216  1.00  0.00    -0.317 OA
ENDROOT
BRANCH   1  24
HETATM   24  C6  UNL     1      15.553  -6.889   7.610  1.00  0.00     0.253 C
BRANCH  24  25
HETATM   25  O2  UNL     1      15.928  -6.466   6.316  1.00  0.00    -0.316 OA
BRANCH  25  26
HETATM   26  C5  UNL     1      15.236  -5.433   5.701  1.00  0.00     0.262 C
HETATM   27  O1  UNL     1      15.246  -4.316   6.278  1.00  0.00    -0.265 OA
BRANCH  26  28
HETATM   28  C3  UNL     1      14.508  -5.635   4.405  1.00  0.00     0.081 C
HETATM   29  C4  UNL     1      13.801  -6.951   4.477  1.00  0.00     0.020 C
BRANCH  28  30
HETATM   30  C2  UNL     1      13.567  -4.482   4.130  1.00  0.00     0.010 C
HETATM   31  C1  UNL     1      13.173  -4.589   2.662  1.00  0.00     0.006 C
ENDBRANCH  28  30
ENDBRANCH  26  28
ENDBRANCH  25  26
ENDBRANCH  24  25
ENDBRANCH   1  24
BRANCH  22  32
HETATM   32  O6  UNL     1      16.994  -4.276   8.933  1.00  0.00    -0.370 OA
ATOM     33  H6  UNL     1      16.439  -3.679   8.445  1.00  0.00     0.212 HD
ENDBRANCH  22  32
BRANCH  15  34
HETATM   34  O5  UNL     1      18.369  -4.164  12.129  1.00  0.00    -0.290 OA
ATOM     35  H5  UNL     1      18.029  -4.716  12.824  1.00  0.00     0.244 HD
ENDBRANCH  15  34
TORSDOF 7
ENDMDL