MODEL 4
REMARK VINA RESULT: -7.111441654      3.314      5.409
REMARK  9 active torsions:
REMARK  status: ('A' for Active; 'I' for Inactive)
REMARK    1  A    between atoms: O1_2  and  C2_3
REMARK    2  A    between atoms: C5_6  and  C6_7
REMARK    3  A    between atoms: N1_9  and  O2_11
REMARK    4  A    between atoms: C14_19  and  C16_21
REMARK    5  A    between atoms: C16_21  and  C17_22
REMARK    6  A    between atoms: C18_23  and  O3_24
REMARK    7  A    between atoms: C20_29  and  N3_30
REMARK    8  A    between atoms: C21_33  and  N4_34
REMARK    9  A    between atoms: N4_34  and  N5_35
ROOT
HETATM    1  C2  UNL     1      18.504  -6.026  11.439  1.00  0.00     0.130 C
HETATM    2  C3  UNL     1      19.891  -6.656  11.657  1.00  0.00     0.021 C
HETATM    3  C4  UNL     1      20.269  -6.560  13.115  1.00  0.00     0.013 C
HETATM    4  C5  UNL     1      19.591  -8.100  11.262  1.00  0.00     0.048 C
HETATM    5  C8  UNL     1      18.495  -8.105  10.256  1.00  0.00    -0.029 C
HETATM    6  C9  UNL     1      17.368  -8.918  10.821  1.00  0.00     0.016 C
HETATM    7  C10 UNL     1      18.809  -8.636   8.890  1.00  0.00     0.011 C
HETATM    8  C11 UNL     1      17.594  -8.317   8.003  1.00  0.00     0.006 C
HETATM    9  C12 UNL     1      17.761  -6.974   7.285  1.00  0.00    -0.007 C
HETATM   10  C13 UNL     1      17.157  -7.197   5.917  1.00  0.00     0.011 C
HETATM   11  C14 UNL     1      17.027  -5.903   7.991  1.00  0.00    -0.021 C
HETATM   12  C15 UNL     1      15.563  -6.033   7.521  1.00  0.00     0.020 C
HETATM   13  C22 UNL     1      16.915  -6.238   9.517  1.00  0.00     0.021 C
HETATM   14  C23 UNL     1      18.199  -6.653  10.081  1.00  0.00     0.025 C
ENDROOT
BRANCH  11  15
HETATM   15  C16 UNL     1      17.448  -4.510   7.924  1.00  0.00     0.002 C
BRANCH  15  16
HETATM   16  C17 UNL     1      18.316  -3.953   6.922  1.00  0.00     0.057 A
HETATM   17  C18 UNL     1      17.959  -3.688   5.627  1.00  0.00     0.153 A
HETATM   18  N2  UNL     1      18.847  -3.147   4.742  1.00  0.00    -0.344 N
HETATM   19  C19 UNL     1      20.105  -2.841   5.059  1.00  0.00     0.130 A
ATOM     20  H2  UNL     1      18.532  -2.968   3.789  1.00  0.00     0.167 HD
HETATM   21  C20 UNL     1      20.537  -3.089   6.369  1.00  0.00     0.161 A
HETATM   22  C21 UNL     1      19.646  -3.630   7.251  1.00  0.00     0.179 A
BRANCH  17  23
HETATM   23  O3  UNL     1      16.706  -3.936   5.093  1.00  0.00    -0.345 OA
ATOM     24  H3  UNL     1      16.536  -4.095   4.172  1.00  0.00     0.219 HD
ENDBRANCH  17  23
BRANCH  21  25
HETATM   25  N3  UNL     1      21.877  -2.760   6.707  1.00  0.00    -0.111 N
HETATM   26  O4  UNL     1      22.251  -2.053   7.630  1.00  0.00    -0.532 OA
HETATM   27  O5  UNL     1      22.879  -3.306   5.904  1.00  0.00    -0.532 OA
ENDBRANCH  21  25
BRANCH  22  28
HETATM   28  N4  UNL     1      20.154  -3.885   8.528  1.00  0.00    -0.329 NA
BRANCH  28  29
HETATM   29  N5  UNL     1      20.578  -4.070   9.570  1.00  0.00    -0.280 N
ATOM     30  H52 UNL     1      21.023  -3.829   8.685  1.00  0.00     0.191 HD
ATOM     31  H51 UNL     1      20.936  -4.240  10.509  1.00  0.00     0.191 HD
ENDBRANCH  28  29
ENDBRANCH  22  28
ENDBRANCH  15  16
ENDBRANCH  11  15
BRANCH   1  32
HETATM   32  O1  UNL     1      17.612  -6.453  12.408  1.00  0.00    -0.390 OA
HETATM   33  C1  UNL     1      16.985  -5.355  12.978  1.00  0.00     0.202 C
ENDBRANCH   1  32
BRANCH   4  34
HETATM   34  C6  UNL     1      20.792  -8.880  10.997  1.00  0.00     0.011 C
HETATM   35  C7  UNL     1      20.746 -10.383  11.186  1.00  0.00     0.066 C
HETATM   36  N1  UNL     1      21.933  -8.449  10.618  1.00  0.00    -0.277 N
ATOM     37  H1  UNL     1      22.057  -7.447  10.472  1.00  0.00     0.193 HD
BRANCH  36  38
HETATM   38  O2  UNL     1      22.987  -9.281  10.402  1.00  0.00    -0.290 OA
ATOM     39  H2  UNL     1      22.898 -10.227  10.420  1.00  0.00     0.244 HD
ENDBRANCH  36  38
ENDBRANCH   4  34
TORSDOF 9
ENDMDL