MODEL 1
REMARK VINA RESULT: -7.388808694      0.000      0.000
REMARK  5 active torsions:
REMARK  status: ('A' for Active; 'I' for Inactive)
REMARK    1  A    between atoms: N1_2  and  C3_4
REMARK    2  A    between atoms: C4_7  and  N3_8
REMARK    3  A    between atoms: N3_8  and  N4_10
REMARK    4  A    between atoms: C8_19  and  C9_20
REMARK    5  A    between atoms: C10_25  and  N6_26
ROOT
HETATM    1  C3  UNL     1      -1.190   4.293  11.829  1.00  0.00     0.708 A
HETATM    2  N2  UNL     1      -2.043   4.159  12.857  1.00  0.00    -0.020 N
ATOM      3  H2  UNL     1      -2.524   3.269  12.990  1.00  0.00     0.203 HD
HETATM    4  C4  UNL     1      -2.283   5.177  13.728  1.00  0.00     0.726 A
HETATM    5  N5  UNL     1      -1.645   6.345  13.546  1.00  0.00    -0.020 N
ATOM      6  H5  UNL     1      -1.814   7.118  14.190  1.00  0.00     0.203 HD
HETATM    7  C10 UNL     1      -0.800   6.503  12.543  1.00  0.00     0.705 A
HETATM    8  N7  UNL     1      -0.577   5.483  11.694  1.00  0.00    -0.022 N
ATOM      9  H7  UNL     1       0.078   5.616  10.923  1.00  0.00     0.203 HD
ENDROOT
BRANCH   4  10
HETATM   10  N3  UNL     1      -3.189   4.947  14.795  1.00  0.00    -0.131 N
ATOM     11  H3  UNL     1      -3.704   5.742  15.173  1.00  0.00     0.205 HD
BRANCH  10  12
HETATM   12  N4  UNL     1      -3.405   3.721  15.338  1.00  0.00    -0.285 N
HETATM   13  C5  UNL     1      -4.484   3.153  15.736  1.00  0.00     0.102 C
HETATM   14  C6  UNL     1      -5.795   3.712  15.698  1.00  0.00     0.189 C
HETATM   15  C8  UNL     1      -4.419   1.795  16.336  1.00  0.00     0.264 C
HETATM   16  O1  UNL     1      -6.057   4.904  15.319  1.00  0.00    -0.290 OA
HETATM   17  C7  UNL     1      -6.884   2.810  16.134  1.00  0.00     0.226 C
HETATM   18  S1  UNL     1      -5.961   1.748  17.262  1.00  0.00     0.171 S
HETATM   19  O2  UNL     1      -5.843   2.426  18.572  1.00  0.00    -0.226 OA
HETATM   20  O3  UNL     1      -6.523   0.378  17.340  1.00  0.00    -0.226 OA
ATOM     21  H4  UNL     1      -2.564   3.154  15.448  1.00  0.00     0.187 HD
BRANCH  15  22
HETATM   22  C9  UNL     1      -4.491   0.793  15.250  1.00  0.00     0.198 C
HETATM   23  O4  UNL     1      -4.574  -0.447  15.394  1.00  0.00    -0.647 OA
HETATM   24  O5  UNL     1      -4.468   1.259  13.921  1.00  0.00    -0.647 OA
ENDBRANCH  15  22
ENDBRANCH  10  12
ENDBRANCH   4  10
BRANCH   1  25
HETATM   25  N1  UNL     1      -0.965   3.222  10.919  1.00  0.00    -0.225 N
HETATM   26  C1  UNL     1      -1.592   1.929  11.094  1.00  0.00     0.168 C
HETATM   27  C2  UNL     1      -0.083   3.431   9.794  1.00  0.00     0.168 C
ENDBRANCH   1  25
BRANCH   7  28
HETATM   28  N6  UNL     1      -0.202   7.642  12.398  1.00  0.00    -0.234 N
ATOM     29  H62 UNL     1       0.526   7.945  13.046  1.00  0.00     0.174 HD
ATOM     30  H61 UNL     1      -0.467   8.245  11.619  1.00  0.00     0.174 HD
ENDBRANCH   7  28
TORSDOF 5
ENDMDL