MODEL 1
REMARK VINA RESULT: -7.010018135      0.000      0.000
REMARK  4 active torsions:
REMARK  status: ('A' for Active; 'I' for Inactive)
REMARK    1  A    between atoms: O1_2  and  C2_3
REMARK    2  A    between atoms: N3_13  and  C6_14
REMARK    3  A    between atoms: C7_17  and  N5_18
REMARK    4  A    between atoms: N9_30  and  N10_31
ROOT
HETATM    1  C2  UNL     1      -2.736   5.362   8.671  1.00  0.00     0.249 A
HETATM    2  N1  UNL     1      -1.509   5.758   8.286  1.00  0.00    -0.287 N
ATOM      3  H1  UNL     1      -1.409   6.352   7.463  1.00  0.00     0.172 HD
HETATM    4  C3  UNL     1      -0.410   5.382   8.973  1.00  0.00     0.268 A
HETATM    5  O2  UNL     1       0.749   5.731   8.644  1.00  0.00    -0.267 OA
HETATM    6  C4  UNL     1      -0.564   4.579  10.081  1.00  0.00     0.149 A
HETATM    7  C5  UNL     1       0.348   4.043  10.967  1.00  0.00     0.280 A
HETATM    8  O3  UNL     1       1.599   4.149  10.996  1.00  0.00    -0.266 OA
HETATM    9  N2  UNL     1      -0.362   3.337  11.863  1.00  0.00    -0.242 N
ATOM     10  H2  UNL     1       0.031   2.819  12.648  1.00  0.00     0.191 HD
HETATM   11  N3  UNL     1      -1.658   3.416  11.567  1.00  0.00    -0.062 N
HETATM   12  C12 UNL     1      -1.844   4.174  10.472  1.00  0.00     0.191 A
HETATM   13  N9  UNL     1      -2.910   4.579   9.749  1.00  0.00    -0.205 N
ENDROOT
BRANCH  11  14
HETATM   14  C6  UNL     1      -2.701   2.791  12.301  1.00  0.00     0.735 A
HETATM   15  N4  UNL     1      -3.248   3.159  13.484  1.00  0.00    -0.018 N
HETATM   16  C7  UNL     1      -4.210   2.316  13.854  1.00  0.00     0.710 A
ATOM     17  H4  UNL     1      -2.960   3.976  14.023  1.00  0.00     0.203 HD
HETATM   18  N7  UNL     1      -4.266   1.390  12.867  1.00  0.00    -0.117 N
HETATM   19  N8  UNL     1      -3.364   1.675  11.941  1.00  0.00    -0.115 N
ATOM     20  H7  UNL     1      -4.905   0.595  12.842  1.00  0.00     0.206 HD
ATOM     21  H8  UNL     1      -3.198   1.136  11.091  1.00  0.00     0.206 HD
BRANCH  16  22
HETATM   22  N5  UNL     1      -5.004   2.381  15.031  1.00  0.00    -0.213 N
HETATM   23  C8  UNL     1      -5.761   3.584  15.278  1.00  0.00     0.160 C
HETATM   24  C9  UNL     1      -6.706   3.505  16.410  1.00  0.00     0.134 C
HETATM   25  N6  UNL     1      -6.517   2.450  17.331  1.00  0.00    -0.418 N
HETATM   26  C10 UNL     1      -5.244   1.823  17.328  1.00  0.00     0.134 C
ATOM     27  H6  UNL     1      -7.258   2.154  17.966  1.00  0.00     0.153 HD
HETATM   28  C11 UNL     1      -5.021   1.241  15.927  1.00  0.00     0.160 C
ENDBRANCH  16  22
ENDBRANCH  11  14
BRANCH  13  29
HETATM   29  N10 UNL     1      -4.174   4.178  10.137  1.00  0.00    -0.334 N
ATOM     30 2H10 UNL     1      -4.795   4.857  10.576  1.00  0.00     0.177 HD
ATOM     31 1H10 UNL     1      -4.487   3.218   9.988  1.00  0.00     0.177 HD
ENDBRANCH  13  29
BRANCH   1  32
HETATM   32  O1  UNL     1      -3.844   5.783   7.921  1.00  0.00    -0.326 OA
HETATM   33  C1  UNL     1      -3.665   6.454   6.689  1.00  0.00     0.213 C
ENDBRANCH   1  32
TORSDOF 4
ENDMDL