MODEL 5
REMARK VINA RESULT: -7.498032454      2.536      3.232
REMARK  4 active torsions:
REMARK  status: ('A' for Active; 'I' for Inactive)
REMARK    1  A    between atoms: C4_7  and  N3_8
REMARK    2  A    between atoms: C5_11  and  C6_12
REMARK    3  A    between atoms: N6_14  and  N7_16
REMARK    4  A    between atoms: C8_23  and  N11_24
ROOT
HETATM    1  N1  UNL     1       5.339   5.595   9.644  1.00  0.00    -0.190 NA
HETATM    2  C1  UNL     1       4.231   5.300   9.870  1.00  0.00     0.120 C
HETATM    3  C2  UNL     1       2.859   4.927  10.170  1.00  0.00     0.144 A
HETATM    4  C3  UNL     1       2.234   5.309  11.335  1.00  0.00     0.148 A
HETATM    5  N2  UNL     1       0.948   4.946  11.577  1.00  0.00    -0.195 N
ATOM      6  H2  UNL     1       0.501   5.238  12.446  1.00  0.00     0.183 HD
HETATM    7  C4  UNL     1       0.253   4.209  10.694  1.00  0.00     0.733 A
HETATM    8  N13 UNL     1       0.878   3.846   9.564  1.00  0.00    -0.129 N
ATOM      9  H13 UNL     1       0.371   3.287   8.878  1.00  0.00     0.205 HD
HETATM   10  N14 UNL     1       2.138   4.191   9.309  1.00  0.00    -0.275 N
ATOM     11  H14 UNL     1       2.567   3.886   8.436  1.00  0.00     0.188 HD
ENDROOT
BRANCH   7  12
HETATM   12  N3  UNL     1      -1.104   3.809  10.868  1.00  0.00     0.093 N
HETATM   13  N4  UNL     1      -1.495   2.819  11.679  1.00  0.00    -0.246 N
HETATM   14  C5  UNL     1      -2.818   2.723  11.598  1.00  0.00     0.179 A
ATOM     15  H4  UNL     1      -0.886   2.242  12.258  1.00  0.00     0.190 HD
HETATM   16  N10 UNL     1      -3.235   3.659  10.734  1.00  0.00    -0.170 N
HETATM   17  C8  UNL     1      -2.178   4.351  10.264  1.00  0.00     0.720 A
ATOM     18  H10 UNL     1      -4.207   3.823  10.471  1.00  0.00     0.186 HD
BRANCH  14  19
HETATM   19  C6  UNL     1      -3.686   1.765  12.325  1.00  0.00     0.177 C
HETATM   20  N5  UNL     1      -4.273   0.671  11.661  1.00  0.00    -0.077 NA
HETATM   21  N6  UNL     1      -3.872   1.964  13.551  1.00  0.00    -0.283 N
ATOM     22  H6  UNL     1      -3.390   2.784  13.918  1.00  0.00     0.188 HD
BRANCH  21  23
HETATM   23  N7  UNL     1      -4.592   1.292  14.472  1.00  0.00    -0.275 N
HETATM   24  C7  UNL     1      -4.433   1.195  15.731  1.00  0.00     0.215 C
HETATM   25  N8  UNL     1      -5.394   0.385  16.428  1.00  0.00    -0.065 NA
HETATM   26  N9  UNL     1      -3.425   1.797  16.502  1.00  0.00    -0.065 NA
ATOM     27  H7  UNL     1      -5.392   0.779  14.100  1.00  0.00     0.189 HD
ENDBRANCH  21  23
ENDBRANCH  14  19
BRANCH  17  28
HETATM   28  N11 UNL     1      -2.143   5.401   9.334  1.00  0.00    -0.189 N
HETATM   29  C9  UNL     1      -2.280   6.805   9.672  1.00  0.00     0.170 C
HETATM   30  C10 UNL     1      -1.883   7.585   8.463  1.00  0.00     0.254 C
HETATM   31  N12 UNL     1      -1.249   6.614   7.597  1.00  0.00    -0.057 N
HETATM   32  C11 UNL     1      -1.977   5.393   7.895  1.00  0.00     0.374 C
ATOM     33 2H12 UNL     1      -1.231   6.871   6.610  1.00  0.00     0.279 HD
ATOM     34 1H12 UNL     1      -0.237   6.544   7.703  1.00  0.00     0.279 HD
ENDBRANCH  17  28
ENDBRANCH   7  12
TORSDOF 4
ENDMDL