MODEL 1
REMARK VINA RESULT: -7.227167335      0.000      0.000
REMARK  5 active torsions:
REMARK  status: ('A' for Active; 'I' for Inactive)
REMARK    1  A    between atoms: C2_3  and  N2_4
REMARK    2  A    between atoms: C4_8  and  N4_9
REMARK    3  A    between atoms: N10_30  and  C13_31
REMARK    4  A    between atoms: C13_31  and  C14_32
REMARK    5  A    between atoms: C14_32  and  O2_33
ROOT
HETATM    1  N1  UNL     1      -1.113   2.302  11.336  1.00  0.00    -0.196 NA
HETATM    2  C1  UNL     1      -2.253   2.501  11.221  1.00  0.00     0.080 C
HETATM    3  C2  UNL     1      -3.691   2.741  11.089  1.00  0.00     0.273 C
ENDROOT
BRANCH   3   4
HETATM    4  N2  UNL     1      -4.291   3.127  12.354  1.00  0.00    -0.150 N
HETATM    5  C3  UNL     1      -4.865   4.310  12.643  1.00  0.00     0.173 A
HETATM    6  N3  UNL     1      -5.049   5.416  11.916  1.00  0.00    -0.173 N
HETATM    7  C10 UNL     1      -5.324   4.298  13.956  1.00  0.00     0.164 A
HETATM    8  C4  UNL     1      -5.663   6.490  12.441  1.00  0.00     0.683 A
ATOM      9  H3  UNL     1      -4.720   5.446  10.951  1.00  0.00     0.186 HD
HETATM   10  N5  UNL     1      -6.106   6.482  13.707  1.00  0.00    -0.174 N
HETATM   11  C9  UNL     1      -5.953   5.386  14.512  1.00  0.00     0.148 A
ATOM     12  H5  UNL     1      -6.568   7.312  14.079  1.00  0.00     0.186 HD
HETATM   13  N6  UNL     1      -6.409   5.474  15.699  1.00  0.00    -0.383 N
ATOM     14  H62 UNL     1      -6.877   6.282  16.111  1.00  0.00     0.157 HD
ATOM     15  H61 UNL     1      -6.295   4.657  16.299  1.00  0.00     0.157 HD
HETATM   16  N7  UNL     1      -5.019   3.085  14.464  1.00  0.00    -0.061 N
HETATM   17  C11 UNL     1      -4.402   2.413  13.474  1.00  0.00     0.724 A
HETATM   18  N10 UNL     1      -5.103   2.337  15.548  1.00  0.00    -0.100 N
HETATM   19  N8  UNL     1      -4.078   1.204  13.925  1.00  0.00    -0.019 N
HETATM   20  C12 UNL     1      -4.500   1.153  15.181  1.00  0.00     0.708 A
ATOM     21  H8  UNL     1      -3.601   0.464  13.409  1.00  0.00     0.203 HD
HETATM   22  N9  UNL     1      -4.365   0.136  15.953  1.00  0.00    -0.233 N
ATOM     23  H92 UNL     1      -3.919  -0.740  15.682  1.00  0.00     0.174 HD
ATOM     24  H91 UNL     1      -4.691   0.097  16.919  1.00  0.00     0.174 HD
BRANCH   8  25
HETATM   25  N4  UNL     1      -5.825   7.643  11.599  1.00  0.00    -0.213 N
HETATM   26  C5  UNL     1      -4.626   8.393  11.284  1.00  0.00     0.167 C
HETATM   27  C6  UNL     1      -4.883   9.667  10.560  1.00  0.00     0.188 C
HETATM   28  O1  UNL     1      -6.193  10.077  10.541  1.00  0.00    -0.388 OA
HETATM   29  C7  UNL     1      -6.942   9.010   9.990  1.00  0.00     0.188 C
HETATM   30  C8  UNL     1      -7.134   8.017  11.103  1.00  0.00     0.167 C
ENDBRANCH   8  25
BRANCH  18  31
HETATM   31  C13 UNL     1      -5.648   2.553  16.860  1.00  0.00     0.195 C
BRANCH  31  32
HETATM   32  C14 UNL     1      -7.097   2.134  17.005  1.00  0.00     0.186 C
BRANCH  32  33
HETATM   33  O2  UNL     1      -7.143   0.754  17.050  1.00  0.00    -0.399 OA
ATOM     34  H2  UNL     1      -6.964   0.423  16.177  1.00  0.00     0.209 HD
ENDBRANCH  32  33
ENDBRANCH  31  32
ENDBRANCH  18  31
ENDBRANCH   3   4
TORSDOF 5
ENDMDL