MODEL 5
REMARK VINA RESULT: -7.324432122      2.108      7.771
REMARK  8 active torsions:
REMARK  status: ('A' for Active; 'I' for Inactive)
REMARK    1  A    between atoms: O1_2  and  C2_3
REMARK    2  A    between atoms: C2_3  and  C3_5
REMARK    3  A    between atoms: C3_5  and  C9_23
REMARK    4  A    between atoms: N1_6  and  N2_8
REMARK    5  A    between atoms: N2_8  and  C4_10
REMARK    6  A    between atoms: C6_15  and  O4_16
REMARK    7  A    between atoms: C7_18  and  O5_19
REMARK    8  A    between atoms: N5_25  and  N6_27
REMARK       I    between atoms: N6_27  and  C11_28
ROOT
HETATM    1  C3  UNL     1      -3.682   2.173  12.660  1.00  0.00     0.148 C
HETATM    2  N1  UNL     1      -2.641   2.888  12.518  1.00  0.00    -0.279 N
ATOM      3  H1  UNL     1      -2.442   3.531  13.285  1.00  0.00     0.188 HD
ENDROOT
BRANCH   2   4
HETATM    4  N2  UNL     1      -1.740   2.914  11.470  1.00  0.00    -0.131 N
ATOM      5  H2  UNL     1      -1.078   2.150  11.336  1.00  0.00     0.205 HD
BRANCH   4   6
HETATM    6  C4  UNL     1      -1.752   3.920  10.662  1.00  0.00     0.703 A
HETATM    7  N3  UNL     1      -2.890   4.285  10.058  1.00  0.00    -0.152 N
HETATM    8  C5  UNL     1      -2.932   5.316   9.226  1.00  0.00     0.297 A
ATOM      9  H3  UNL     1      -3.744   3.758  10.242  1.00  0.00     0.187 HD
HETATM   10  O3  UNL     1      -4.029   5.643   8.664  1.00  0.00    -0.264 OA
HETATM   11  C6  UNL     1      -1.758   6.020   8.990  1.00  0.00     0.187 A
HETATM   12  C7  UNL     1      -0.598   5.629   9.620  1.00  0.00     0.196 A
HETATM   13  N4  UNL     1      -0.579   4.587  10.452  1.00  0.00    -0.162 N
HETATM   14  C8  UNL     1       0.633   4.175  11.095  1.00  0.00     0.177 C
BRANCH  11  15
HETATM   15  O4  UNL     1      -1.779   7.093   8.132  1.00  0.00    -0.352 OA
ATOM     16  H4  UNL     1      -1.005   7.638   8.051  1.00  0.00     0.218 HD
ENDBRANCH  11  15
BRANCH  12  17
HETATM   17  O5  UNL     1       0.614   6.315   9.408  1.00  0.00    -0.343 OA
ATOM     18  H5  UNL     1       1.329   6.255  10.031  1.00  0.00     0.219 HD
ENDBRANCH  12  17
ENDBRANCH   4   6
ENDBRANCH   2   4
BRANCH   1  19
HETATM   19  C2  UNL     1      -4.088   1.220  11.667  1.00  0.00     0.313 C
HETATM   20  O2  UNL     1      -4.114   1.454  10.427  1.00  0.00    -0.257 OA
BRANCH  19  21
HETATM   21  O1  UNL     1      -4.479  -0.043  12.067  1.00  0.00    -0.321 OA
HETATM   22  C1  UNL     1      -3.837  -1.209  11.671  1.00  0.00     0.213 C
ENDBRANCH  19  21
ENDBRANCH   1  19
BRANCH   1  23
HETATM   23  C9  UNL     1      -4.476   2.344  13.863  1.00  0.00     0.069 C
HETATM   24  C10 UNL     1      -5.171   3.608  14.182  1.00  0.00     0.073 C
HETATM   25  N5  UNL     1      -4.583   1.373  14.723  1.00  0.00    -0.235 N
ATOM     26  H5  UNL     1      -4.062   0.545  14.434  1.00  0.00     0.201 HD
BRANCH  25  27
HETATM   27  N6  UNL     1      -5.152   1.208  15.786  1.00  0.00    -0.287 NA
HETATM   28  C11 UNL     1      -5.824   1.015  17.046  1.00  0.00     0.308 C
HETATM   29  C12 UNL     1      -7.213   1.590  17.144  1.00  0.00     0.137 C
HETATM   30  O6  UNL     1      -5.389   0.438  18.027  1.00  0.00    -0.256 OA
ENDBRANCH  25  27
ENDBRANCH   1  23
TORSDOF 8
ENDMDL