MODEL 4
REMARK VINA RESULT: -6.758392786      5.544      7.946
REMARK  8 active torsions:
REMARK  status: ('A' for Active; 'I' for Inactive)
REMARK    1  A    between atoms: C2_2  and  O1_3
REMARK    2  A    between atoms: C2_2  and  N2_7
REMARK    3  A    between atoms: N2_7  and  N3_8
REMARK    4  A    between atoms: N3_8  and  C4_10
REMARK    5  A    between atoms: C4_10  and  N4_12
REMARK    6  A    between atoms: N4_12  and  N5_14
REMARK    7  A    between atoms: C5_16  and  C6_17
REMARK    8  A    between atoms: C9_20  and  N6_21
ROOT
HETATM    1  C1  UNL     1       2.004   5.565   8.630  1.00  0.00     0.085 C
HETATM    2  C2  UNL     1       1.938   4.318   9.521  1.00  0.00     0.234 C
HETATM    3  C3  UNL     1       0.580   3.833   9.509  1.00  0.00     0.117 C
HETATM    4  N1  UNL     1      -0.497   3.444   9.490  1.00  0.00    -0.192 NA
ENDROOT
BRANCH   2   5
HETATM    5  O1  UNL     1       2.791   3.384   8.936  1.00  0.00    -0.361 OA
ATOM      6  H1  UNL     1       3.307   3.022   9.647  1.00  0.00     0.213 HD
ENDBRANCH   2   5
BRANCH   2   7
HETATM    7  N2  UNL     1       2.387   4.723  10.826  1.00  0.00    -0.085 NA
BRANCH   7   8
HETATM    8  N3  UNL     1       1.367   4.951  11.726  1.00  0.00    -0.275 N
ATOM      9  H3  UNL     1       0.920   4.167  12.201  1.00  0.00     0.185 HD
BRANCH   8  10
HETATM   10  C4  UNL     1       0.944   6.278  11.991  1.00  0.00     0.202 C
HETATM   11  S1  UNL     1       2.058   7.466  12.041  1.00  0.00    -0.038 SA
BRANCH  10  12
HETATM   12  N4  UNL     1      -0.423   6.609  12.214  1.00  0.00    -0.276 N
ATOM     13  H4  UNL     1      -0.833   7.458  11.826  1.00  0.00     0.189 HD
BRANCH  12  14
HETATM   14  N5  UNL     1      -1.181   5.726  12.985  1.00  0.00    -0.307 N
HETATM   15  C5  UNL     1      -2.450   5.922  13.087  1.00  0.00     0.138 C
ATOM     16  H5  UNL     1      -0.737   4.939  13.458  1.00  0.00     0.186 HD
BRANCH  15  17
HETATM   17  C6  UNL     1      -3.247   5.001  13.894  1.00  0.00     0.065 A
HETATM   18  C7  UNL     1      -4.621   5.012  13.805  1.00  0.00     0.036 A
HETATM   19  C8  UNL     1      -5.376   4.150  14.560  1.00  0.00     0.054 A
HETATM   20  C9  UNL     1      -4.719   3.282  15.401  1.00  0.00     0.148 A
HETATM   21  N10 UNL     1      -3.388   3.322  15.441  1.00  0.00    -0.283 N
HETATM   22  N11 UNL     1      -2.636   4.130  14.737  1.00  0.00    -0.298 N
ATOM     23  H10 UNL     1      -2.917   2.671  16.070  1.00  0.00     0.188 HD
ATOM     24  H11 UNL     1      -1.619   4.105  14.818  1.00  0.00     0.187 HD
BRANCH  20  25
HETATM   25  N6  UNL     1      -5.435   2.348  16.225  1.00  0.00    -0.171 N
HETATM   26  N7  UNL     1      -6.675   2.457  16.663  1.00  0.00    -0.216 N
HETATM   27  N8  UNL     1      -6.986   1.401  17.393  1.00  0.00    -0.224 N
ATOM     28  H7  UNL     1      -7.299   3.239  16.467  1.00  0.00     0.210 HD
HETATM   29  N9  UNL     1      -5.934   0.608  17.423  1.00  0.00    -0.234 N
ATOM     30  H8  UNL     1      -7.881   1.229  17.853  1.00  0.00     0.210 HD
HETATM   31  C10 UNL     1      -4.972   1.198  16.697  1.00  0.00     0.364 A
ATOM     32  H9  UNL     1      -5.863  -0.287  17.907  1.00  0.00     0.193 HD
HETATM   33  O2  UNL     1      -3.803   0.765  16.475  1.00  0.00    -0.243 OA
ENDBRANCH  20  25
ENDBRANCH  15  17
ENDBRANCH  12  14
ENDBRANCH  10  12
ENDBRANCH   8  10
ENDBRANCH   7   8
ENDBRANCH   2   7
TORSDOF 8
ENDMDL