MODEL 4
REMARK VINA RESULT: -8.008500973      1.972      2.513
REMARK  5 active torsions:
REMARK  status: ('A' for Active; 'I' for Inactive)
REMARK    1  A    between atoms: N1_2  and  C3_4
REMARK    2  A    between atoms: C4_7  and  N3_8
REMARK    3  A    between atoms: N3_8  and  N4_10
REMARK    4  A    between atoms: N4_10  and  C5_12
REMARK    5  A    between atoms: C8_15  and  N5_16
ROOT
HETATM    1  C3  UNL     1      -4.809   6.654  10.918  1.00  0.00     0.704 A
HETATM    2  N2  UNL     1      -5.197   6.990  12.086  1.00  0.00    -0.182 N
ATOM      3  H2  UNL     1      -5.745   7.821  12.308  1.00  0.00     0.182 HD
HETATM    4  C4  UNL     1      -4.737   6.001  13.056  1.00  0.00     0.347 A
HETATM    5  N7  UNL     1      -3.974   5.066  12.277  1.00  0.00    -0.183 N
HETATM    6  C9  UNL     1      -3.270   3.961  12.571  1.00  0.00     0.334 A
HETATM    7  O3  UNL     1      -3.143   3.516  13.741  1.00  0.00    -0.260 OA
HETATM    8  C10 UNL     1      -2.622   3.226  11.576  1.00  0.00     0.319 A
HETATM    9  O4  UNL     1      -1.969   2.195  11.877  1.00  0.00    -0.262 OA
HETATM   10  N8  UNL     1      -2.700   3.629  10.297  1.00  0.00    -0.269 N
ATOM     11  H8  UNL     1      -2.240   3.118   9.543  1.00  0.00     0.174 HD
HETATM   12  C11 UNL     1      -3.414   4.736  10.064  1.00  0.00     0.363 A
HETATM   13  O5  UNL     1      -3.490   5.118   8.866  1.00  0.00    -0.244 OA
HETATM   14  N9  UNL     1      -4.045   5.455  11.018  1.00  0.00    -0.023 N
ENDROOT
BRANCH   4  15
HETATM   15  N3  UNL     1      -5.929   5.405  13.576  1.00  0.00    -0.292 N
ATOM     16  H3  UNL     1      -6.620   4.992  12.949  1.00  0.00     0.184 HD
BRANCH  15  17
HETATM   17  N4  UNL     1      -6.124   5.401  14.921  1.00  0.00    -0.287 N
ATOM     18  H4  UNL     1      -6.287   6.289  15.395  1.00  0.00     0.188 HD
BRANCH  17  19
HETATM   19  C5  UNL     1      -6.110   4.192  15.703  1.00  0.00     0.121 A
HETATM   20  C6  UNL     1      -6.963   3.911  16.761  1.00  0.00     0.054 A
HETATM   21  C7  UNL     1      -6.661   2.664  17.273  1.00  0.00     0.059 A
HETATM   22  C8  UNL     1      -5.604   2.201  16.498  1.00  0.00     0.175 A
HETATM   23  N6  UNL     1      -5.317   3.136  15.588  1.00  0.00    -0.323 N
ATOM     24  H6  UNL     1      -4.578   3.048  14.890  1.00  0.00     0.169 HD
BRANCH  22  25
HETATM   25  N5  UNL     1      -4.959   0.968  16.649  1.00  0.00    -0.098 N
HETATM   26  O1  UNL     1      -3.746   0.799  16.385  1.00  0.00    -0.531 OA
HETATM   27  O2  UNL     1      -5.644  -0.121  17.098  1.00  0.00    -0.531 OA
ENDBRANCH  22  25
ENDBRANCH  17  19
ENDBRANCH  15  17
ENDBRANCH   4  15
BRANCH   1  28
HETATM   28  N1  UNL     1      -5.056   7.360   9.683  1.00  0.00    -0.225 N
HETATM   29  C1  UNL     1      -6.199   7.034   8.883  1.00  0.00     0.168 C
HETATM   30  C2  UNL     1      -4.137   8.379   9.294  1.00  0.00     0.168 C
ENDBRANCH   1  28
TORSDOF 5
ENDMDL