MODEL 1
REMARK VINA RESULT: -7.904925370      0.000      0.000
REMARK  6 active torsions:
REMARK  status: ('A' for Active; 'I' for Inactive)
REMARK    1  A    between atoms: C3_5  and  C4_6
REMARK       I    between atoms: C4_6  and  N2_8
REMARK    2  A    between atoms: N2_8  and  N3_10
REMARK    3  A    between atoms: C5_13  and  C6_14
REMARK    4  A    between atoms: C6_14  and  O3_16
REMARK    5  A    between atoms: O3_16  and  C7_17
REMARK    6  A    between atoms: C7_17  and  N4_18
ROOT
HETATM    1  C6  UNL     1      -4.045   4.004  11.156  1.00  0.00     0.304 C
HETATM    2  O2  UNL     1      -5.086   4.172  10.400  1.00  0.00    -0.259 OA
ENDROOT
BRANCH   1   3
HETATM    3  C5  UNL     1      -3.479   2.655  11.145  1.00  0.00     0.114 A
HETATM    4  C3  UNL     1      -2.213   2.161  11.051  1.00  0.00     0.126 A
HETATM    5  N1  UNL     1      -2.077   0.859  11.075  1.00  0.00    -0.348 N
HETATM    6  C2  UNL     1      -3.108   0.068  11.184  1.00  0.00     0.048 A
ATOM      7  H1  UNL     1      -1.143   0.454  11.007  1.00  0.00     0.166 HD
HETATM    8  C1  UNL     1      -3.144  -1.448  11.229  1.00  0.00     0.076 C
HETATM    9  S1  UNL     1      -4.397   1.172  11.263  1.00  0.00    -0.069 SA
BRANCH   4  10
HETATM   10  C4  UNL     1      -0.988   3.009  10.924  1.00  0.00     0.287 C
HETATM   11  O1  UNL     1      -0.343   3.093   9.878  1.00  0.00    -0.264 OA
HETATM   12  N2  UNL     1      -0.513   3.768  12.030  1.00  0.00    -0.271 N
ATOM     13  H2  UNL     1      -1.005   3.741  12.923  1.00  0.00     0.189 HD
BRANCH  12  14
HETATM   14  N3  UNL     1       0.627   4.546  11.879  1.00  0.00    -0.342 N
ATOM     15  H32 UNL     1       1.326   4.282  11.185  1.00  0.00     0.176 HD
ATOM     16  H31 UNL     1       0.748   5.372  12.466  1.00  0.00     0.176 HD
ENDBRANCH  12  14
ENDBRANCH   4  10
ENDBRANCH   1   3
BRANCH   1  17
HETATM   17  O3  UNL     1      -3.652   5.102  11.829  1.00  0.00    -0.296 OA
BRANCH  17  18
HETATM   18  C7  UNL     1      -4.243   5.485  13.030  1.00  0.00     0.319 C
BRANCH  18  19
HETATM   19  N4  UNL     1      -4.291   4.458  14.017  1.00  0.00    -0.228 N
HETATM   20  C8  UNL     1      -5.403   3.785  14.351  1.00  0.00     0.336 A
HETATM   21  O4  UNL     1      -6.464   4.102  13.733  1.00  0.00    -0.246 OA
HETATM   22  N5  UNL     1      -5.370   2.830  15.292  1.00  0.00    -0.260 N
HETATM   23  C9  UNL     1      -4.218   2.522  15.926  1.00  0.00     0.332 A
ATOM     24  H5  UNL     1      -6.226   2.330  15.532  1.00  0.00     0.175 HD
HETATM   25  O5  UNL     1      -4.196   1.627  16.805  1.00  0.00    -0.246 OA
HETATM   26  N6  UNL     1      -3.106   3.175  15.613  1.00  0.00    -0.260 N
HETATM   27  C10 UNL     1      -3.158   4.134  14.663  1.00  0.00     0.336 A
ATOM     28  H6  UNL     1      -2.227   2.957  16.082  1.00  0.00     0.175 HD
HETATM   29  O6  UNL     1      -2.084   4.740  14.383  1.00  0.00    -0.246 OA
ENDBRANCH  18  19
ENDBRANCH  17  18
ENDBRANCH   1  17
TORSDOF 6
ENDMDL