MODEL 5
REMARK VINA RESULT: -7.442241772      1.696      2.126
REMARK  8 active torsions:
REMARK  status: ('A' for Active; 'I' for Inactive)
REMARK    1  A    between atoms: C3_3  and  C4_4
REMARK    2  A    between atoms: C4_4  and  C5_6
REMARK    3  A    between atoms: C5_6  and  O2_7
REMARK    4  A    between atoms: O2_7  and  C6_8
REMARK    5  A    between atoms: C6_8  and  C7_10
REMARK    6  A    between atoms: C10_16  and  N2_17
REMARK    7  A    between atoms: N4_24  and  O6_25
REMARK    8  A    between atoms: N5_29  and  O8_30
ROOT
HETATM    1  C5  UNL     1      -6.220   4.674  13.517  1.00  0.00     0.263 C
ENDROOT
BRANCH   1   2
HETATM    2  C4  UNL     1      -5.128   4.368  14.475  1.00  0.00     0.191 C
HETATM    3  O1  UNL     1      -4.097   5.094  14.567  1.00  0.00    -0.290 OA
BRANCH   2   4
HETATM    4  C3  UNL     1      -5.299   3.183  15.312  1.00  0.00     0.107 A
HETATM    5  C2  UNL     1      -6.081   3.225  16.455  1.00  0.00     0.061 A
HETATM    6  C1  UNL     1      -6.770   4.477  16.863  1.00  0.00     0.072 C
HETATM    7  N5  UNL     1      -6.230   2.127  17.218  1.00  0.00    -0.174 N
HETATM    8  C12 UNL     1      -5.616   0.958  16.881  1.00  0.00     0.380 A
HETATM    9  N4  UNL     1      -4.848   0.873  15.779  1.00  0.00    -0.131 N
HETATM   10  O7  UNL     1      -5.755  -0.069  17.593  1.00  0.00    -0.242 OA
HETATM   11  C11 UNL     1      -4.702   1.975  15.020  1.00  0.00     0.291 A
HETATM   12  O5  UNL     1      -3.981   1.881  13.994  1.00  0.00    -0.265 OA
BRANCH   7  13
HETATM   13  O8  UNL     1      -7.006   2.170  18.351  1.00  0.00    -0.279 OA
ATOM     14  H8  UNL     1      -6.600   2.216  19.209  1.00  0.00     0.245 HD
ENDBRANCH   7  13
BRANCH   9  15
HETATM   15  O6  UNL     1      -4.222  -0.322  15.438  1.00  0.00    -0.276 OA
ATOM     16  H6  UNL     1      -4.501  -1.147  15.817  1.00  0.00     0.245 HD
ENDBRANCH   9  15
ENDBRANCH   2   4
ENDBRANCH   1   2
BRANCH   1  17
HETATM   17  O2  UNL     1      -5.676   4.921  12.213  1.00  0.00    -0.309 OA
BRANCH  17  18
HETATM   18  C6  UNL     1      -5.023   3.909  11.546  1.00  0.00     0.311 C
HETATM   19  O3  UNL     1      -5.644   2.838  11.337  1.00  0.00    -0.258 OA
BRANCH  18  20
HETATM   20  C7  UNL     1      -3.647   4.049  11.084  1.00  0.00     0.129 A
HETATM   21  C8  UNL     1      -3.337   4.439   9.800  1.00  0.00     0.111 A
HETATM   22  C9  UNL     1      -2.010   4.555   9.417  1.00  0.00     0.261 A
HETATM   23  O4  UNL     1      -1.720   4.910   8.251  1.00  0.00    -0.268 OA
HETATM   24  N1  UNL     1      -0.989   4.293  10.275  1.00  0.00    -0.156 N
HETATM   25  C10 UNL     1      -1.335   3.915  11.518  1.00  0.00     0.679 A
ATOM     26  H1  UNL     1      -0.013   4.380   9.991  1.00  0.00     0.187 HD
HETATM   27  N3  UNL     1      -2.618   3.797  11.908  1.00  0.00    -0.186 N
ATOM     28  H3  UNL     1      -2.814   3.506  12.866  1.00  0.00     0.184 HD
BRANCH  25  29
HETATM   29  N2  UNL     1      -0.398   3.659  12.354  1.00  0.00    -0.234 N
ATOM     30  H22 UNL     1       0.286   2.936  12.133  1.00  0.00     0.174 HD
ATOM     31  H21 UNL     1      -0.370   4.194  13.222  1.00  0.00     0.174 HD
ENDBRANCH  25  29
ENDBRANCH  18  20
ENDBRANCH  17  18
ENDBRANCH   1  17
TORSDOF 8
ENDMDL