MODEL 3
REMARK VINA RESULT: -7.260271737      2.028      4.103
REMARK  9 active torsions:
REMARK  status: ('A' for Active; 'I' for Inactive)
REMARK    1  A    between atoms: O1_2  and  C2_3
REMARK    2  A    between atoms: C2_3  and  C3_5
REMARK    3  A    between atoms: C3_5  and  O3_6
REMARK    4  A    between atoms: C6_12  and  N1_13
REMARK    5  A    between atoms: N1_13  and  O6_14
REMARK    6  A    between atoms: N1_13  and  O7_16
REMARK    7  A    between atoms: C7_18  and  C8_19
REMARK    8  A    between atoms: C11_24  and  O10_25
REMARK    9  A    between atoms: C11_24  and  C12_27
ROOT
HETATM    1  C3  UNL     1      -3.472   5.379  11.803  1.00  0.00     0.305 C
HETATM    2  O4  UNL     1      -4.497   4.833  12.594  1.00  0.00    -0.298 OA
HETATM    3  C4  UNL     1      -4.421   3.655  13.278  1.00  0.00     0.129 A
HETATM    4  C5  UNL     1      -3.621   2.657  12.711  1.00  0.00     0.161 A
HETATM    5  O5  UNL     1      -3.683   1.634  13.502  1.00  0.00    -0.287 OA
HETATM    6  C6  UNL     1      -4.465   1.875  14.555  1.00  0.00     0.194 A
HETATM    7  C7  UNL     1      -4.953   3.155  14.444  1.00  0.00     0.096 A
HETATM    8  C10 UNL     1      -2.957   2.960  11.472  1.00  0.00     0.234 C
HETATM    9  O9  UNL     1      -2.695   2.055  10.661  1.00  0.00    -0.286 OA
HETATM   10  C11 UNL     1      -2.582   4.346  11.151  1.00  0.00     0.252 C
ENDROOT
BRANCH   1  11
HETATM   11  C2  UNL     1      -2.648   6.330  12.599  1.00  0.00     0.326 C
HETATM   12  O2  UNL     1      -1.965   7.221  12.053  1.00  0.00    -0.259 OA
BRANCH  11  13
HETATM   13  O1  UNL     1      -2.593   6.282  13.988  1.00  0.00    -0.322 OA
HETATM   14  C1  UNL     1      -3.057   7.372  14.785  1.00  0.00     0.213 C
ENDBRANCH  11  13
ENDBRANCH   1  11
BRANCH   1  15
HETATM   15  O3  UNL     1      -4.089   6.118  10.794  1.00  0.00    -0.354 OA
ATOM     16  H3  UNL     1      -4.187   5.540  10.046  1.00  0.00     0.213 HD
ENDBRANCH   1  15
BRANCH  10  17
HETATM   17  O10 UNL     1      -1.253   4.484  11.613  1.00  0.00    -0.370 OA
ATOM     18  H10 UNL     1      -0.735   3.731  11.353  1.00  0.00     0.212 HD
ENDBRANCH  10  17
BRANCH  10  19
HETATM   19  C12 UNL     1      -2.564   4.522   9.674  1.00  0.00     0.171 C
HETATM   20  C13 UNL     1      -1.382   5.132   8.978  1.00  0.00     0.095 C
HETATM   21  O11 UNL     1      -3.525   4.163   9.032  1.00  0.00    -0.294 OA
ENDBRANCH  10  19
BRANCH   7  22
HETATM   22  C8  UNL     1      -5.844   3.844  15.363  1.00  0.00     0.162 C
HETATM   23  C9  UNL     1      -6.081   5.296  15.317  1.00  0.00     0.097 C
HETATM   24  O8  UNL     1      -6.467   3.197  16.264  1.00  0.00    -0.293 OA
ENDBRANCH   7  22
BRANCH   6  25
HETATM   25  N1  UNL     1      -4.771   0.998  15.630  1.00  0.00    -0.011 NA
BRANCH  25  26
HETATM   26  O6  UNL     1      -4.646  -0.297  15.314  1.00  0.00    -0.283 OA
ATOM     27  H6  UNL     1      -3.768  -0.635  15.447  1.00  0.00     0.240 HD
ENDBRANCH  25  26
BRANCH  25  28
HETATM   28  O7  UNL     1      -3.864   1.246  16.626  1.00  0.00    -0.283 OA
ATOM     29  H7  UNL     1      -3.113   0.687  16.467  1.00  0.00     0.240 HD
ENDBRANCH  25  28
ENDBRANCH   6  25
TORSDOF 9
ENDMDL