MODEL 5
REMARK VINA RESULT: -7.717632225      0.827      2.445
REMARK  6 active torsions:
REMARK  status: ('A' for Active; 'I' for Inactive)
REMARK       I    between atoms: C2_2  and  N1_4
REMARK    1  A    between atoms: C4_9  and  O3_10
REMARK    2  A    between atoms: C5_12  and  S1_13
REMARK    3  A    between atoms: S1_13  and  O4_14
REMARK    4  A    between atoms: O4_14  and  N3_15
REMARK    5  A    between atoms: C7_17  and  C8_18
REMARK    6  A    between atoms: C8_18  and  O5_19
ROOT
HETATM    1  C1  UNL     1       0.044   5.425  10.586  1.00  0.00     0.118 C
HETATM    2  C2  UNL     1      -0.574   4.084  10.477  1.00  0.00     0.231 C
HETATM    3  O1  UNL     1       0.079   3.122   9.938  1.00  0.00    -0.273 OA
HETATM    4  N1  UNL     1      -1.863   3.830  10.952  1.00  0.00    -0.197 N
HETATM    5  C3  UNL     1      -2.352   2.565  10.810  1.00  0.00     0.338 A
HETATM    6  O2  UNL     1      -1.670   1.645  10.270  1.00  0.00    -0.246 OA
HETATM    7  N2  UNL     1      -3.572   2.223  11.232  1.00  0.00    -0.287 N
ATOM      8  H2  UNL     1      -3.920   1.271  11.117  1.00  0.00     0.172 HD
HETATM    9  C4  UNL     1      -4.329   3.172  11.813  1.00  0.00     0.169 A
HETATM   10  C5  UNL     1      -3.889   4.461  11.981  1.00  0.00     0.150 A
HETATM   11  C11 UNL     1      -2.613   4.770  11.527  1.00  0.00     0.281 A
HETATM   12  O8  UNL     1      -2.247   5.965  11.701  1.00  0.00    -0.266 OA
ENDROOT
BRANCH  10  13
HETATM   13  S1  UNL     1      -4.937   5.664  12.755  1.00  0.00     0.071 SA
BRANCH  13  14
HETATM   14  O4  UNL     1      -4.826   5.597  14.478  1.00  0.00    -0.188 OA
BRANCH  14  15
HETATM   15  N3  UNL     1      -4.823   4.419  15.184  1.00  0.00    -0.167 N
HETATM   16  C6  UNL     1      -5.941   3.862  15.703  1.00  0.00     0.144 A
HETATM   17  C7  UNL     1      -5.916   2.676  16.410  1.00  0.00     0.051 A
HETATM   18  C9  UNL     1      -4.718   2.025  16.605  1.00  0.00     0.259 A
HETATM   19  O6  UNL     1      -4.657   0.952  17.239  1.00  0.00    -0.267 OA
HETATM   20  N4  UNL     1      -3.616   2.591  16.084  1.00  0.00    -0.273 N
HETATM   21  C10 UNL     1      -3.674   3.757  15.393  1.00  0.00     0.354 A
ATOM     22  H4  UNL     1      -2.713   2.134  16.212  1.00  0.00     0.173 HD
HETATM   23  O7  UNL     1      -2.600   4.223  14.938  1.00  0.00    -0.244 OA
BRANCH  17  24
HETATM   24  C8  UNL     1      -7.149   2.106  16.954  1.00  0.00     0.210 C
BRANCH  24  25
HETATM   25  O5  UNL     1      -7.261   0.767  16.582  1.00  0.00    -0.396 OA
ATOM     26  H5  UNL     1      -6.897   0.209  17.260  1.00  0.00     0.209 HD
ENDBRANCH  24  25
ENDBRANCH  17  24
ENDBRANCH  14  15
ENDBRANCH  13  14
ENDBRANCH  10  13
BRANCH   9  27
HETATM   27  O3  UNL     1      -5.610   2.813  12.255  1.00  0.00    -0.345 OA
ATOM     28  H3  UNL     1      -5.682   2.104  12.882  1.00  0.00     0.219 HD
ENDBRANCH   9  27
TORSDOF 6
ENDMDL