MODEL 3
REMARK VINA RESULT: -7.185668935      1.451      7.311
REMARK  6 active torsions:
REMARK  status: ('A' for Active; 'I' for Inactive)
REMARK    1  A    between atoms: N1_1  and  C1_4
REMARK    2  A    between atoms: N4_9  and  C2_10
REMARK    3  A    between atoms: C4_14  and  S1_15
REMARK    4  A    between atoms: S1_15  and  N6_16
REMARK    5  A    between atoms: N8_22  and  C5_23
REMARK    6  A    between atoms: C5_23  and  N9_24
ROOT
HETATM    1  C2  UNL     1      -1.126   4.697  12.066  1.00  0.00     0.187 A
HETATM    2  N5  UNL     1      -1.775   3.571  11.737  1.00  0.00    -0.333 N
ATOM      3  H5  UNL     1      -1.369   2.977  11.014  1.00  0.00     0.168 HD
HETATM    4  C3  UNL     1      -2.930   3.178  12.301  1.00  0.00     0.102 A
HETATM    5  C4  UNL     1      -3.736   2.077  12.109  1.00  0.00     0.165 A
HETATM    6  N7  UNL     1      -4.768   2.211  12.963  1.00  0.00    -0.281 N
ATOM      7  H7  UNL     1      -5.537   1.548  13.057  1.00  0.00     0.188 HD
HETATM    8  N8  UNL     1      -4.641   3.324  13.662  1.00  0.00    -0.254 N
HETATM    9  C10 UNL     1      -3.517   3.950  13.282  1.00  0.00     0.089 A
HETATM   10  C11 UNL     1      -2.860   5.115  13.634  1.00  0.00     0.080 A
HETATM   11  C12 UNL     1      -1.662   5.511  13.041  1.00  0.00     0.166 A
HETATM   12  F1  UNL     1      -1.043   6.650  13.402  1.00  0.00    -0.202 F
ENDROOT
BRANCH   1  13
HETATM   13  N4  UNL     1       0.091   5.102  11.466  1.00  0.00    -0.147 N
HETATM   14  N3  UNL     1       0.180   5.726  10.303  1.00  0.00    -0.205 N
HETATM   15  N2  UNL     1       1.427   5.979   9.993  1.00  0.00    -0.115 N
ATOM     16  H3  UNL     1      -0.620   5.976   9.722  1.00  0.00     0.211 HD
HETATM   17  C1  UNL     1       2.189   5.500  10.999  1.00  0.00     0.708 A
ATOM     18  H2  UNL     1       1.760   6.450   9.151  1.00  0.00     0.207 HD
HETATM   19  N11 UNL     1       1.329   4.969  11.885  1.00  0.00    -0.107 N
ATOM     20  H11 UNL     1       1.600   4.524  12.762  1.00  0.00     0.208 HD
BRANCH  17  21
HETATM   21  N1  UNL     1       3.493   5.559  11.065  1.00  0.00    -0.232 N
ATOM     22  H12 UNL     1       4.164   5.659  10.303  1.00  0.00     0.174 HD
ATOM     23  H11 UNL     1       4.050   5.511  11.919  1.00  0.00     0.174 HD
ENDBRANCH  17  21
ENDBRANCH   1  13
BRANCH   5  24
HETATM   24  S1  UNL     1      -3.473   0.776  10.992  1.00  0.00     0.165 S
HETATM   25  O1  UNL     1      -1.983   0.960  10.229  1.00  0.00    -0.229 OA
BRANCH  24  26
HETATM   26  N6  UNL     1      -4.690   0.681   9.782  1.00  0.00    -0.344 NA
ATOM     27  H62 UNL     1      -4.235   0.681   8.869  1.00  0.00     0.166 HD
ATOM     28  H61 UNL     1      -5.364   1.444   9.838  1.00  0.00     0.166 HD
ENDBRANCH  24  26
ENDBRANCH   5  24
BRANCH   8  29
HETATM   29  C5  UNL     1      -5.556   3.804  14.657  1.00  0.00     0.178 C
BRANCH  29  30
HETATM   30  N9  UNL     1      -5.505   3.149  15.916  1.00  0.00    -0.275 NA
HETATM   31  C6  UNL     1      -5.002   1.817  15.905  1.00  0.00     0.123 C
HETATM   32  C7  UNL     1      -5.083   1.221  17.310  1.00  0.00     0.247 C
HETATM   33  N10 UNL     1      -6.423   1.154  17.805  1.00  0.00    -0.073 N
HETATM   34  C8  UNL     1      -7.312   1.825  16.912  1.00  0.00     0.247 C
ATOM     35 2H10 UNL     1      -6.715   0.194  17.985  1.00  0.00     0.277 HD
ATOM     36 1H10 UNL     1      -6.496   1.513  18.757  1.00  0.00     0.277 HD
HETATM   37  C9  UNL     1      -6.816   3.208  16.521  1.00  0.00     0.123 C
ENDBRANCH  29  30
ENDBRANCH   8  29
TORSDOF 6
ENDMDL