MODEL 4
REMARK VINA RESULT: -8.141481619      2.575      5.640
REMARK  4 active torsions:
REMARK  status: ('A' for Active; 'I' for Inactive)
REMARK    1  A    between atoms: O1_2  and  C2_3
REMARK    2  A    between atoms: C2_3  and  C3_4
REMARK    3  A    between atoms: N5_12  and  C4_13
REMARK    4  A    between atoms: C9_24  and  C10_25
ROOT
HETATM    1  C3  UNL     1      -4.757   2.434  14.867  1.00  0.00     0.068 A
HETATM    2  N1  UNL     1      -5.482   3.413  15.452  1.00  0.00    -0.278 N
ATOM      3  H1  UNL     1      -5.965   3.305  16.343  1.00  0.00     0.189 HD
HETATM    4  N2  UNL     1      -5.493   4.506  14.754  1.00  0.00    -0.161 N
HETATM    5  N3  UNL     1      -5.947   5.753  14.684  1.00  0.00    -0.204 N
ATOM      6  H3  UNL     1      -6.536   6.209  15.380  1.00  0.00     0.212 HD
HETATM    7  N4  UNL     1      -5.517   6.297  13.582  1.00  0.00    -0.216 N
ATOM      8  H4  UNL     1      -5.716   7.249  13.274  1.00  0.00     0.210 HD
HETATM    9  N5  UNL     1      -4.755   5.384  12.902  1.00  0.00    -0.203 N
HETATM   10  C8  UNL     1      -4.744   4.281  13.634  1.00  0.00     0.186 A
HETATM   11  C9  UNL     1      -4.260   2.949  13.691  1.00  0.00     0.077 A
ENDROOT
BRANCH  11  12
HETATM   12  C10 UNL     1      -3.456   2.345  12.667  1.00  0.00     0.139 A
HETATM   13  O4  UNL     1      -2.309   2.972  12.341  1.00  0.00    -0.257 OA
HETATM   14  C11 UNL     1      -1.479   2.558  11.439  1.00  0.00     0.371 A
HETATM   15  O5  UNL     1      -0.435   3.216  11.209  1.00  0.00    -0.238 OA
HETATM   16  N8  UNL     1      -1.681   1.445  10.723  1.00  0.00    -0.286 N
HETATM   17  C12 UNL     1      -2.786   0.749  10.964  1.00  0.00     0.145 A
ATOM     18  H8  UNL     1      -1.009   1.142  10.018  1.00  0.00     0.172 HD
HETATM   19  N9  UNL     1      -3.097  -0.337  10.350  1.00  0.00    -0.383 N
HETATM   20  C13 UNL     1      -3.673   1.219  11.949  1.00  0.00     0.194 A
ATOM     21  H92 UNL     1      -2.454  -0.677   9.635  1.00  0.00     0.157 HD
ATOM     22  H91 UNL     1      -3.946  -0.871  10.534  1.00  0.00     0.157 HD
HETATM   23  F1  UNL     1      -4.792   0.488  12.075  1.00  0.00    -0.199 F
ENDBRANCH  11  12
BRANCH   1  24
HETATM   24  C2  UNL     1      -4.655   1.089  15.472  1.00  0.00     0.226 C
BRANCH  24  25
HETATM   25  O1  UNL     1      -4.670   1.202  16.878  1.00  0.00    -0.390 OA
HETATM   26  C1  UNL     1      -5.800   0.780  17.492  1.00  0.00     0.201 C
ENDBRANCH  24  25
ENDBRANCH   1  24
BRANCH   9  27
HETATM   27  C4  UNL     1      -4.175   5.686  11.649  1.00  0.00     0.140 A
HETATM   28  C5  UNL     1      -4.925   5.881  10.481  1.00  0.00     0.125 A
HETATM   29  C6  UNL     1      -4.324   6.216   9.293  1.00  0.00     0.252 A
HETATM   30  O2  UNL     1      -4.961   6.401   8.223  1.00  0.00    -0.268 OA
HETATM   31  N6  UNL     1      -2.982   6.365   9.228  1.00  0.00    -0.275 N
HETATM   32  C7  UNL     1      -2.258   6.178  10.345  1.00  0.00     0.328 A
ATOM     33  H6  UNL     1      -2.528   6.614   8.349  1.00  0.00     0.173 HD
HETATM   34  O3  UNL     1      -1.005   6.322  10.264  1.00  0.00    -0.247 OA
HETATM   35  N7  UNL     1      -2.845   5.850  11.512  1.00  0.00    -0.293 N
ATOM     36  H7  UNL     1      -2.254   5.721  12.333  1.00  0.00     0.172 HD
ENDBRANCH   9  27
TORSDOF 4
ENDMDL