MODEL 5
REMARK VINA RESULT: -7.813610120      1.712      2.593
REMARK  5 active torsions:
REMARK  status: ('A' for Active; 'I' for Inactive)
REMARK    1  A    between atoms: N2_5  and  O2_6
REMARK    2  A    between atoms: C6_12  and  N3_13
REMARK    3  A    between atoms: C8_15  and  C9_16
REMARK       I    between atoms: C9_16  and  N4_18
REMARK    4  A    between atoms: N4_18  and  N5_20
REMARK    5  A    between atoms: N5_20  and  C10_22
ROOT
HETATM    1  N3  UNL     1      -1.910   3.570  10.663  1.00  0.00    -0.234 N
HETATM    2  C7  UNL     1      -2.147   2.657  11.614  1.00  0.00     0.156 A
HETATM    3  C8  UNL     1      -3.463   2.693  11.997  1.00  0.00     0.136 A
HETATM    4  N6  UNL     1      -4.012   3.658  11.248  1.00  0.00    -0.279 N
ATOM      5  H6  UNL     1      -4.989   3.946  11.283  1.00  0.00     0.189 HD
HETATM    6  N7  UNL     1      -3.091   4.176  10.457  1.00  0.00    -0.234 N
ATOM      7  H7  UNL     1      -3.254   4.927   9.787  1.00  0.00     0.209 HD
ENDROOT
BRANCH   1   8
HETATM    8  C6  UNL     1      -0.692   3.862   9.964  1.00  0.00     0.130 A
HETATM    9  C5  UNL     1       0.483   4.157  10.651  1.00  0.00     0.071 A
HETATM   10  C4  UNL     1       1.415   4.369   9.657  1.00  0.00     0.082 A
HETATM   11  C3  UNL     1       2.750   4.696   9.757  1.00  0.00     0.289 A
HETATM   12  C13 UNL     1       0.832   4.210   8.408  1.00  0.00     0.128 A
HETATM   13  N2  UNL     1       3.454   4.848   8.618  1.00  0.00    -0.133 N
HETATM   14  O3  UNL     1       3.293   4.844  10.885  1.00  0.00    -0.265 OA
HETATM   15  C2  UNL     1       2.863   4.686   7.399  1.00  0.00     0.357 A
HETATM   16  N1  UNL     1       1.557   4.367   7.273  1.00  0.00    -0.287 N
HETATM   17  O1  UNL     1       3.590   4.847   6.396  1.00  0.00    -0.244 OA
HETATM   18  C1  UNL     1       0.937   4.193   5.979  1.00  0.00     0.163 C
HETATM   19  N8  UNL     1      -0.467   3.898   8.648  1.00  0.00    -0.326 N
ATOM     20  H8  UNL     1      -1.168   3.718   7.929  1.00  0.00     0.169 HD
BRANCH  13  21
HETATM   21  O2  UNL     1       4.783   5.173   8.750  1.00  0.00    -0.276 OA
ATOM     22  H2  UNL     1       5.133   6.005   8.454  1.00  0.00     0.245 HD
ENDBRANCH  13  21
ENDBRANCH   1   8
BRANCH   3  23
HETATM   23  C9  UNL     1      -4.094   1.839  12.991  1.00  0.00     0.289 C
HETATM   24  O4  UNL     1      -4.596   0.725  12.639  1.00  0.00    -0.264 OA
HETATM   25  N4  UNL     1      -4.151   2.233  14.349  1.00  0.00    -0.267 N
ATOM     26  H4  UNL     1      -3.754   3.128  14.636  1.00  0.00     0.190 HD
BRANCH  25  27
HETATM   27  N5  UNL     1      -4.742   1.412  15.280  1.00  0.00    -0.302 N
ATOM     28  H5  UNL     1      -5.048   0.468  15.046  1.00  0.00     0.183 HD
BRANCH  27  29
HETATM   29  C10 UNL     1      -4.903   1.943  16.576  1.00  0.00     0.271 C
HETATM   30  O5  UNL     1      -5.023   0.961  17.569  1.00  0.00    -0.360 OA
HETATM   31  C11 UNL     1      -5.854   1.870  18.241  1.00  0.00     0.212 C
HETATM   32  C12 UNL     1      -6.313   2.443  16.903  1.00  0.00     0.243 C
HETATM   33  F1  UNL     1      -7.240   1.697  16.242  1.00  0.00    -0.242 F
ENDBRANCH  27  29
ENDBRANCH  25  27
ENDBRANCH   3  23
TORSDOF 5
ENDMDL