MODEL 5
REMARK VINA RESULT: -8.375485553      1.804      2.729
REMARK  6 active torsions:
REMARK  status: ('A' for Active; 'I' for Inactive)
REMARK       I    between atoms: C1_2  and  N2_4
REMARK    1  A    between atoms: N2_4  and  O2_6
REMARK    2  A    between atoms: O2_6  and  C2_7
REMARK       I    between atoms: C2_7  and  N3_9
REMARK    3  A    between atoms: N3_9  and  N4_10
REMARK       I    between atoms: N4_10  and  C3_12
REMARK    4  A    between atoms: C3_12  and  C4_14
REMARK    5  A    between atoms: N5_16  and  C6_17
REMARK    6  A    between atoms: C9_20  and  N6_21
ROOT
HETATM    1  C4  UNL     1      -0.830   4.024   9.734  1.00  0.00     0.137 A
HETATM    2  C5  UNL     1      -1.197   3.242  10.827  1.00  0.00     0.155 A
HETATM    3  N5  UNL     1      -2.453   3.609  11.245  1.00  0.00    -0.248 N
HETATM    4  N9  UNL     1      -2.840   4.582  10.422  1.00  0.00    -0.235 N
ATOM      5  H9  UNL     1      -3.740   5.059  10.484  1.00  0.00     0.209 HD
HETATM    6  N10 UNL     1      -1.919   4.855   9.519  1.00  0.00    -0.279 N
ATOM      7  H10 UNL     1      -1.996   5.559   8.785  1.00  0.00     0.189 HD
ENDROOT
BRANCH   1   8
HETATM    8  C3  UNL     1       0.443   4.158   9.033  1.00  0.00     0.299 C
HETATM    9  N4  UNL     1       1.674   4.146   9.812  1.00  0.00    -0.192 N
ATOM     10  H4  UNL     1       1.597   3.959  10.812  1.00  0.00     0.205 HD
HETATM   11  O4  UNL     1       0.465   4.302   7.782  1.00  0.00    -0.263 OA
BRANCH   9  12
HETATM   12  N3  UNL     1       2.847   4.352   9.337  1.00  0.00    -0.254 NA
HETATM   13  C2  UNL     1       4.119   4.579   8.808  1.00  0.00     0.480 C
HETATM   14  O3  UNL     1       4.448   4.822   7.644  1.00  0.00    -0.217 OA
BRANCH  13  15
HETATM   15  O2  UNL     1       5.214   4.546   9.733  1.00  0.00    -0.164 OA
BRANCH  15  16
HETATM   16  N2  UNL     1       5.279   5.582  10.611  1.00  0.00    -0.207 N
HETATM   17  C1  UNL     1       4.759   5.676  11.870  1.00  0.00     0.352 C
HETATM   18  N1  UNL     1       5.114   7.000  12.484  1.00  0.00    -0.038 NA
HETATM   19  O1  UNL     1       4.099   4.946  12.590  1.00  0.00    -0.249 OA
ATOM     20  H2  UNL     1       5.787   6.403  10.284  1.00  0.00     0.199 HD
ENDBRANCH  15  16
ENDBRANCH  13  15
ENDBRANCH   9  12
ENDBRANCH   1   8
BRANCH   3  21
HETATM   21  C6  UNL     1      -3.163   3.096  12.369  1.00  0.00     0.096 A
HETATM   22  C7  UNL     1      -3.317   3.944  13.472  1.00  0.00     0.037 A
HETATM   23  C8  UNL     1      -3.992   3.551  14.606  1.00  0.00     0.034 A
HETATM   24  C9  UNL     1      -4.528   2.288  14.658  1.00  0.00     0.057 A
HETATM   25  C12 UNL     1      -4.380   1.451  13.565  1.00  0.00     0.075 A
HETATM   26  C13 UNL     1      -3.707   1.853  12.441  1.00  0.00     0.147 A
HETATM   27  F1  UNL     1      -3.591   0.995  11.378  1.00  0.00    -0.204 F
BRANCH  24  28
HETATM   28  N6  UNL     1      -5.187   1.804  15.799  1.00  0.00    -0.250 N
HETATM   29  C10 UNL     1      -6.248   2.345  16.445  1.00  0.00     0.132 A
HETATM   30  C11 UNL     1      -6.597   1.548  17.529  1.00  0.00     0.123 A
HETATM   31  N7  UNL     1      -5.710   0.526  17.505  1.00  0.00    -0.294 N
HETATM   32  N8  UNL     1      -4.883   0.687  16.481  1.00  0.00    -0.016 NA
ATOM     33  H7  UNL     1      -5.680  -0.246  18.171  1.00  0.00     0.183 HD
ENDBRANCH  24  28
ENDBRANCH   3  21
TORSDOF 6
ENDMDL