MODEL 5
REMARK VINA RESULT: -6.143991227      2.307      3.694
REMARK  11 active torsions:
REMARK  status: ('A' for Active; 'I' for Inactive)
REMARK    1  A    between atoms: C2_4  and  S1_6
REMARK    2  A    between atoms: S1_6  and  C3_7
REMARK    3  A    between atoms: C3_7  and  C4_8
REMARK    4  A    between atoms: C5_9  and  C6_10
REMARK    5  A    between atoms: C6_10  and  O1_11
REMARK    6  A    between atoms: C6_10  and  O2_13
REMARK    7  A    between atoms: O2_13  and  C7_14
REMARK    8  A    between atoms: C11_21  and  N4_22
REMARK    9  A    between atoms: C12_26  and  C13_27
REMARK   10  A    between atoms: C13_27  and  O4_28
REMARK   11  A    between atoms: C14_30  and  O5_31
ROOT
HETATM    1  C7  UNL     1      -3.455   3.179  12.896  1.00  0.00     0.176 C
HETATM    2  C8  UNL     1      -4.106   1.922  13.366  1.00  0.00     0.189 C
HETATM    3  N2  UNL     1      -4.818   2.083  14.643  1.00  0.00    -0.222 N
HETATM    4  C9  UNL     1      -4.928   1.271  15.707  1.00  0.00     0.357 A
HETATM    5  O3  UNL     1      -4.424   0.129  15.878  1.00  0.00    -0.244 OA
HETATM    6  N3  UNL     1      -5.698   1.891  16.612  1.00  0.00    -0.135 N
HETATM    7  C10 UNL     1      -6.095   1.389  17.932  1.00  0.00     0.180 C
HETATM    8  C11 UNL     1      -6.078   3.095  16.126  1.00  0.00     0.699 A
HETATM    9  N5  UNL     1      -5.517   3.180  14.909  1.00  0.00    -0.108 N
HETATM   10  C12 UNL     1      -5.536   4.198  13.890  1.00  0.00     0.181 C
HETATM   11  C14 UNL     1      -4.070   4.403  13.484  1.00  0.00     0.176 C
ENDROOT
BRANCH   1  12
HETATM   12  O2  UNL     1      -3.372   3.221  11.491  1.00  0.00    -0.341 OA
BRANCH  12  13
HETATM   13  C6  UNL     1      -2.115   2.893  11.017  1.00  0.00     0.340 C
BRANCH  13  14
HETATM   14  C5  UNL     1      -1.168   3.994  11.333  1.00  0.00    -0.046 C
HETATM   15  C4  UNL     1      -0.410   4.902  11.576  1.00  0.00    -0.091 C
BRANCH  15  16
HETATM   16  C3  UNL     1       0.491   6.012  11.852  1.00  0.00     0.177 C
BRANCH  16  17
HETATM   17  S1  UNL     1       2.193   5.608  11.467  1.00  0.00    -0.070 SA
BRANCH  17  18
HETATM   18  C2  UNL     1       2.377   4.924   9.838  1.00  0.00     0.223 C
HETATM   19  N1  UNL     1       2.971   5.497   8.884  1.00  0.00    -0.366 N
HETATM   20  C1  UNL     1       3.587   6.788   8.978  1.00  0.00     0.149 C
ATOM     21  H1  UNL     1       3.016   5.011   7.989  1.00  0.00     0.161 HD
HETATM   22  F1  UNL     1       1.840   3.683   9.578  1.00  0.00    -0.178 F
ENDBRANCH  17  18
ENDBRANCH  16  17
ENDBRANCH  15  16
ENDBRANCH  13  14
BRANCH  13  23
HETATM   23  O1  UNL     1      -1.591   1.734  11.529  1.00  0.00    -0.361 OA
ATOM     24  H1  UNL     1      -2.196   1.410  12.185  1.00  0.00     0.213 HD
ENDBRANCH  13  23
ENDBRANCH  12  13
ENDBRANCH   1  12
BRANCH  11  25
HETATM   25  O5  UNL     1      -3.905   5.537  12.707  1.00  0.00    -0.391 OA
ATOM     26  H5  UNL     1      -3.607   6.294  13.197  1.00  0.00     0.210 HD
ENDBRANCH  11  25
BRANCH  10  27
HETATM   27  C13 UNL     1      -6.002   5.547  14.379  1.00  0.00     0.194 C
BRANCH  27  28
HETATM   28  O4  UNL     1      -6.820   6.207  13.496  1.00  0.00    -0.399 OA
ATOM     29  H4  UNL     1      -7.714   6.307  13.800  1.00  0.00     0.209 HD
ENDBRANCH  27  28
ENDBRANCH  10  27
BRANCH   8  30
HETATM   30  N4  UNL     1      -6.837   3.966  16.741  1.00  0.00    -0.233 N
ATOM     31  H42 UNL     1      -7.716   3.810  17.236  1.00  0.00     0.174 HD
ATOM     32  H41 UNL     1      -6.655   4.966  16.821  1.00  0.00     0.174 HD
ENDBRANCH   8  30
TORSDOF 11
ENDMDL