MODEL 3
REMARK VINA RESULT: -7.920247359      3.480      7.098
REMARK  7 active torsions:
REMARK  status: ('A' for Active; 'I' for Inactive)
REMARK    1  A    between atoms: N1_1  and  N2_4
REMARK    2  A    between atoms: N2_4  and  C1_6
REMARK    3  A    between atoms: C2_9  and  N4_10
REMARK       I    between atoms: N4_10  and  C3_12
REMARK    4  A    between atoms: C3_12  and  C4_14
REMARK    5  A    between atoms: C4_14  and  N5_15
REMARK    6  A    between atoms: C7_18  and  N6_19
REMARK    7  A    between atoms: N9_26  and  C8_27
ROOT
HETATM    1  C1  UNL     1      -2.070   2.486  11.184  1.00  0.00     0.747 A
HETATM    2  N3  UNL     1      -3.316   2.622  11.725  1.00  0.00    -0.017 N
ATOM      3  H3  UNL     1      -3.972   1.862  11.906  1.00  0.00     0.203 HD
HETATM    4  C2  UNL     1      -3.534   3.922  11.979  1.00  0.00     0.715 A
HETATM    5  N8  UNL     1      -2.434   4.580  11.597  1.00  0.00    -0.095 N
ATOM      6  H8  UNL     1      -2.297   5.588  11.664  1.00  0.00     0.207 HD
HETATM    7  N9  UNL     1      -1.549   3.721  11.117  1.00  0.00     0.106 N
ENDROOT
BRANCH   4   8
HETATM    8  N4  UNL     1      -4.599   4.437  12.491  1.00  0.00    -0.156 N
HETATM    9  C3  UNL     1      -4.518   5.570  13.341  1.00  0.00     0.255 C
HETATM   10  O1  UNL     1      -4.766   6.715  12.892  1.00  0.00    -0.271 OA
ATOM     11  H4  UNL     1      -5.509   4.025  12.283  1.00  0.00     0.187 HD
BRANCH   9  12
HETATM   12  C4  UNL     1      -4.142   5.412  14.758  1.00  0.00     0.251 C
BRANCH  12  13
HETATM   13  N5  UNL     1      -4.813   4.259  15.310  1.00  0.00    -0.293 N
HETATM   14  C5  UNL     1      -6.137   4.255  15.651  1.00  0.00     0.114 A
HETATM   15  C6  UNL     1      -6.462   3.015  16.143  1.00  0.00     0.075 A
HETATM   16  C7  UNL     1      -5.314   2.265  16.096  1.00  0.00     0.189 A
HETATM   17  N7  UNL     1      -4.327   3.061  15.581  1.00  0.00    -0.278 N
ATOM     18  H7  UNL     1      -3.360   2.772  15.429  1.00  0.00     0.189 HD
BRANCH  16  19
HETATM   19  N6  UNL     1      -5.158   0.911  16.502  1.00  0.00    -0.097 N
HETATM   20  O2  UNL     1      -4.859   0.050  15.646  1.00  0.00    -0.530 OA
HETATM   21  O3  UNL     1      -5.338   0.586  17.807  1.00  0.00    -0.530 OA
ENDBRANCH  16  19
ENDBRANCH  12  13
ENDBRANCH   9  12
ENDBRANCH   4   8
BRANCH   1  22
HETATM   22  N2  UNL     1      -1.598   1.347  10.843  1.00  0.00    -0.136 N
ATOM     23  H2  UNL     1      -0.637   1.301  10.503  1.00  0.00     0.205 HD
BRANCH  22  24
HETATM   24  N1  UNL     1      -2.332   0.163  10.913  1.00  0.00    -0.331 N
ATOM     25  H12 UNL     1      -3.205   0.121  10.386  1.00  0.00     0.177 HD
ATOM     26  H11 UNL     1      -2.037  -0.646  11.460  1.00  0.00     0.177 HD
ENDBRANCH  22  24
ENDBRANCH   1  22
BRANCH   7  27
HETATM   27  C8  UNL     1      -0.245   3.999  10.602  1.00  0.00     0.722 A
HETATM   28  N10 UNL     1       0.761   4.336  11.431  1.00  0.00    -0.151 N
HETATM   29  C9  UNL     1       2.003   4.607  10.997  1.00  0.00     0.299 A
ATOM     30  H10 UNL     1       0.571   4.389  12.432  1.00  0.00     0.188 HD
HETATM   31  O4  UNL     1       2.942   4.921  11.777  1.00  0.00    -0.264 OA
HETATM   32  C10 UNL     1       2.295   4.547   9.651  1.00  0.00     0.200 A
HETATM   33  F1  UNL     1       3.537   4.812   9.173  1.00  0.00    -0.199 F
HETATM   34  C11 UNL     1       1.267   4.202   8.803  1.00  0.00     0.154 A
HETATM   35  N11 UNL     1       0.043   3.941   9.287  1.00  0.00    -0.196 N
ATOM     36  H11 UNL     1      -0.698   3.689   8.634  1.00  0.00     0.183 HD
ENDBRANCH   7  27
TORSDOF 7
ENDMDL