MODEL 4
REMARK VINA RESULT: -7.220449698      3.395      6.692
REMARK  7 active torsions:
REMARK  status: ('A' for Active; 'I' for Inactive)
REMARK       I    between atoms: C2_2  and  N1_4
REMARK    1  A    between atoms: N1_4  and  C3_6
REMARK    2  A    between atoms: C4_9  and  N3_10
REMARK    3  A    between atoms: N3_10  and  N4_12
REMARK    4  A    between atoms: C6_19  and  N6_20
REMARK    5  A    between atoms: C7_23  and  N7_24
REMARK    6  A    between atoms: N7_24  and  N8_26
REMARK    7  A    between atoms: C8_28  and  C9_29
ROOT
HETATM    1  C3  UNL     1      -4.190   3.023  12.954  1.00  0.00     0.154 C
HETATM    2  N2  UNL     1      -3.517   1.990  12.387  1.00  0.00    -0.173 N
ATOM      3  H2  UNL     1      -3.765   1.070  12.750  1.00  0.00     0.186 HD
HETATM    4  C4  UNL     1      -2.563   1.980  11.410  1.00  0.00     0.701 C
HETATM    5  N5  UNL     1      -2.167   3.027  10.626  1.00  0.00    -0.152 N
ATOM      6  H5  UNL     1      -1.345   2.857  10.048  1.00  0.00     0.187 HD
HETATM    7  C5  UNL     1      -2.716   4.254  10.512  1.00  0.00     0.295 C
HETATM    8  O2  UNL     1      -2.265   5.022   9.640  1.00  0.00    -0.265 OA
HETATM    9  C6  UNL     1      -3.767   4.804  11.268  1.00  0.00     0.202 C
HETATM   10  C7  UNL     1      -4.092   4.350  12.530  1.00  0.00     0.131 C
ENDROOT
BRANCH  10  11
HETATM   11  N7  UNL     1      -4.359   5.307  13.519  1.00  0.00    -0.295 N
ATOM     12  H7  UNL     1      -5.207   5.161  14.066  1.00  0.00     0.187 HD
BRANCH  11  13
HETATM   13  N8  UNL     1      -3.610   6.428  13.847  1.00  0.00    -0.309 N
HETATM   14  C8  UNL     1      -2.341   6.524  13.846  1.00  0.00     0.138 C
ATOM     15  H8  UNL     1      -4.131   7.263  14.117  1.00  0.00     0.186 HD
BRANCH  14  16
HETATM   16  C9  UNL     1      -1.684   7.773  14.215  1.00  0.00     0.065 A
HETATM   17  C10 UNL     1      -2.124   8.458  15.341  1.00  0.00     0.037 A
HETATM   18  C11 UNL     1      -1.493   9.629  15.670  1.00  0.00     0.065 A
HETATM   19  C12 UNL     1      -0.447  10.151  14.932  1.00  0.00     0.202 A
HETATM   20  F1  UNL     1       0.161  11.311  15.276  1.00  0.00    -0.185 F
HETATM   21  N9  UNL     1      -0.067   9.430  13.841  1.00  0.00    -0.276 N
HETATM   22  N10 UNL     1      -0.674   8.297  13.521  1.00  0.00    -0.297 N
ATOM     23  H9  UNL     1       0.700   9.768  13.261  1.00  0.00     0.189 HD
ATOM     24  H10 UNL     1      -0.350   7.797  12.694  1.00  0.00     0.187 HD
ENDBRANCH  14  16
ENDBRANCH  11  13
ENDBRANCH  10  11
BRANCH   1  25
HETATM   25  N1  UNL     1      -4.965   2.813  13.937  1.00  0.00    -0.311 N
HETATM   26  C2  UNL     1      -4.545   1.874  14.920  1.00  0.00     0.219 C
HETATM   27  C1  UNL     1      -3.734   2.352  16.085  1.00  0.00     0.117 C
HETATM   28  O1  UNL     1      -4.814   0.647  14.876  1.00  0.00    -0.274 OA
ATOM     29  H1  UNL     1      -5.857   3.301  14.020  1.00  0.00     0.170 HD
ENDBRANCH   1  25
BRANCH   9  30
HETATM   30  N6  UNL     1      -4.545   5.812  10.704  1.00  0.00    -0.107 N
HETATM   31  O3  UNL     1      -5.425   5.486   9.892  1.00  0.00    -0.531 OA
HETATM   32  O4  UNL     1      -4.388   7.124  10.992  1.00  0.00    -0.531 OA
ENDBRANCH   9  30
BRANCH   4  33
HETATM   33  N3  UNL     1      -1.985   0.853  11.223  1.00  0.00    -0.138 N
ATOM     34  H3  UNL     1      -0.968   0.782  11.216  1.00  0.00     0.205 HD
BRANCH  33  35
HETATM   35  N4  UNL     1      -2.781  -0.278  11.029  1.00  0.00    -0.331 N
ATOM     36  H42 UNL     1      -2.826  -0.996  11.752  1.00  0.00     0.177 HD
ATOM     37  H41 UNL     1      -3.304  -0.359  10.158  1.00  0.00     0.177 HD
ENDBRANCH  33  35
ENDBRANCH   4  33
TORSDOF 7
ENDMDL