MODEL 4
REMARK VINA RESULT: -6.107506358      3.406      3.937
REMARK  7 active torsions:
REMARK  status: ('A' for Active; 'I' for Inactive)
REMARK    1  A    between atoms: C2_2  and  C5_18
REMARK    2  A    between atoms: N1_3  and  N2_5
REMARK    3  A    between atoms: C3_6  and  O1_7
REMARK    4  A    between atoms: N4_13  and  N5_15
REMARK    5  A    between atoms: C6_19  and  N6_20
REMARK    6  A    between atoms: C10_25  and  C11_26
REMARK    7  A    between atoms: C11_26  and  O2_27
ROOT
HETATM    1  C5  UNL     1      -3.760   3.636  11.857  1.00  0.00     0.102 A
HETATM    2  C6  UNL     1      -3.636   3.639  13.203  1.00  0.00     0.137 A
HETATM    3  N7  UNL     1      -3.990   2.482  13.869  1.00  0.00    -0.270 N
ATOM      4  H7  UNL     1      -3.899   2.472  14.885  1.00  0.00     0.190 HD
HETATM    5  N8  UNL     1      -4.430   1.406  13.291  1.00  0.00    -0.238 N
ATOM      6  H8  UNL     1      -4.670   0.591  13.856  1.00  0.00     0.208 HD
HETATM    7  N9  UNL     1      -4.569   1.357  11.993  1.00  0.00    -0.251 N
ATOM      8  H9  UNL     1      -4.917   0.515  11.533  1.00  0.00     0.192 HD
HETATM    9  C12 UNL     1      -4.243   2.441  11.286  1.00  0.00     0.277 A
HETATM   10  O3  UNL     1      -4.394   2.347  10.031  1.00  0.00    -0.266 OA
ENDROOT
BRANCH   1  11
HETATM   11  C2  UNL     1      -3.408   4.671  10.925  1.00  0.00     0.042 C
HETATM   12  C1  UNL     1      -2.048   5.058  10.560  1.00  0.00     0.071 C
HETATM   13  N1  UNL     1      -4.357   5.314  10.319  1.00  0.00    -0.292 N
ATOM     14  H1  UNL     1      -5.323   5.076  10.543  1.00  0.00     0.187 HD
BRANCH  13  15
HETATM   15  N2  UNL     1      -4.118   6.337   9.354  1.00  0.00    -0.193 N
HETATM   16  C3  UNL     1      -3.803   6.110   8.089  1.00  0.00     0.251 A
HETATM   17  N3  UNL     1      -3.618   7.156   7.292  1.00  0.00    -0.288 N
HETATM   18  S1  UNL     1      -3.881   8.469   8.303  1.00  0.00     0.029 SA
ATOM     19  H3  UNL     1      -3.374   7.160   6.302  1.00  0.00     0.178 HD
HETATM   20  C4  UNL     1      -4.225   7.608   9.736  1.00  0.00     0.204 A
HETATM   21  N4  UNL     1      -4.528   8.074  10.933  1.00  0.00    -0.283 N
ATOM     22  H4  UNL     1      -4.713   7.426  11.699  1.00  0.00     0.188 HD
BRANCH  16  23
HETATM   23  O1  UNL     1      -3.669   4.908   7.599  1.00  0.00    -0.331 OA
ATOM     24  H1  UNL     1      -2.848   4.583   7.250  1.00  0.00     0.221 HD
ENDBRANCH  16  23
BRANCH  21  25
HETATM   25  N5  UNL     1      -4.597   9.446  11.153  1.00  0.00    -0.343 N
ATOM     26  H52 UNL     1      -5.117  10.026  10.493  1.00  0.00     0.176 HD
ATOM     27  H51 UNL     1      -4.133   9.860  11.962  1.00  0.00     0.176 HD
ENDBRANCH  21  25
ENDBRANCH  13  15
ENDBRANCH   1  11
BRANCH   2  28
HETATM   28  N6  UNL     1      -3.231   4.730  14.006  1.00  0.00    -0.356 N
HETATM   29  C7  UNL     1      -1.929   5.273  14.354  1.00  0.00     0.162 C
HETATM   30  C8  UNL     1      -2.114   6.789  14.058  1.00  0.00     0.190 C
HETATM   31  F1  UNL     1      -1.561   7.091  12.821  1.00  0.00    -0.248 F
HETATM   32  C9  UNL     1      -3.589   6.993  14.084  1.00  0.00     0.066 C
HETATM   33  C10 UNL     1      -4.131   5.709  14.667  1.00  0.00     0.112 C
BRANCH  33  34
HETATM   34  C11 UNL     1      -5.543   5.538  14.180  1.00  0.00     0.189 C
BRANCH  34  35
HETATM   35  O2  UNL     1      -5.684   6.341  13.049  1.00  0.00    -0.399 OA
ATOM     36  H2  UNL     1      -5.799   5.758  12.308  1.00  0.00     0.209 HD
ENDBRANCH  34  35
ENDBRANCH  33  34
ENDBRANCH   2  28
TORSDOF 7
ENDMDL