MODEL 4
REMARK VINA RESULT: -7.388122697      3.880      6.825
REMARK  7 active torsions:
REMARK  status: ('A' for Active; 'I' for Inactive)
REMARK    1  A    between atoms: C3_5  and  C4_6
REMARK       I    between atoms: C4_6  and  N2_8
REMARK    2  A    between atoms: N2_8  and  N3_10
REMARK    3  A    between atoms: C5_12  and  C6_13
REMARK    4  A    between atoms: C7_14  and  O2_15
REMARK    5  A    between atoms: N4_17  and  O3_18
REMARK    6  A    between atoms: O3_18  and  N5_19
REMARK    7  A    between atoms: N6_27  and  N7_28
ROOT
HETATM    1  N1  UNL     1      -7.223   0.921  17.449  1.00  0.00    -0.190 NA
HETATM    2  C1  UNL     1      -6.580   1.622  16.811  1.00  0.00     0.112 C
HETATM    3  C2  UNL     1      -5.763   2.530  16.017  1.00  0.00     0.119 C
HETATM    4 CL1  UNL     1      -6.385   4.094  15.550  1.00  0.00    -0.072 Cl
HETATM    5  C3  UNL     1      -4.565   2.161  15.664  1.00  0.00     0.111 C
ENDROOT
BRANCH   5   6
HETATM    6  C4  UNL     1      -3.697   3.038  14.864  1.00  0.00     0.262 C
HETATM    7  O1  UNL     1      -3.076   3.991  15.385  1.00  0.00    -0.267 OA
HETATM    8  N2  UNL     1      -3.528   2.836  13.442  1.00  0.00    -0.267 N
ATOM      9  H2  UNL     1      -4.022   2.068  12.988  1.00  0.00     0.190 HD
BRANCH   8  10
HETATM   10  N3  UNL     1      -2.758   3.610  12.718  1.00  0.00    -0.307 N
HETATM   11  C5  UNL     1      -2.520   4.568  12.031  1.00  0.00     0.143 C
ATOM     12  H3  UNL     1      -1.857   3.134  12.761  1.00  0.00     0.186 HD
BRANCH  11  13
HETATM   13  C6  UNL     1      -3.421   5.621  11.614  1.00  0.00     0.131 A
HETATM   14  C7  UNL     1      -4.551   5.485  10.798  1.00  0.00     0.205 A
HETATM   15  N4  UNL     1      -5.129   6.685  10.636  1.00  0.00    -0.123 N
HETATM   16  C12 UNL     1      -4.420   7.586  11.314  1.00  0.00     0.376 A
HETATM   17  O5  UNL     1      -4.664   8.807  11.391  1.00  0.00    -0.242 OA
HETATM   18  N6  UNL     1      -3.375   6.943  11.914  1.00  0.00    -0.204 N
BRANCH  14  19
HETATM   19  O2  UNL     1      -4.960   4.260  10.264  1.00  0.00    -0.343 OA
ATOM     20  H2  UNL     1      -4.365   3.665   9.822  1.00  0.00     0.219 HD
ENDBRANCH  14  19
BRANCH  15  21
HETATM   21  O3  UNL     1      -6.246   6.898   9.898  1.00  0.00    -0.169 OA
BRANCH  21  22
HETATM   22  N5  UNL     1      -6.409   6.574   8.591  1.00  0.00    -0.167 NA
HETATM   23  C8  UNL     1      -5.502   7.371   7.796  1.00  0.00     0.149 C
HETATM   24  C9  UNL     1      -6.075   7.695   6.429  1.00  0.00     0.184 C
HETATM   25  O4  UNL     1      -7.172   8.519   6.528  1.00  0.00    -0.389 OA
HETATM   26  C10 UNL     1      -7.802   8.334   7.747  1.00  0.00     0.184 C
HETATM   27  C11 UNL     1      -7.755   6.886   8.196  1.00  0.00     0.149 C
ENDBRANCH  21  22
ENDBRANCH  15  21
BRANCH  18  28
HETATM   28  N7  UNL     1      -2.443   7.618  12.704  1.00  0.00    -0.334 N
ATOM     29  H72 UNL     1      -2.478   8.629  12.843  1.00  0.00     0.177 HD
ATOM     30  H71 UNL     1      -1.651   7.230  13.218  1.00  0.00     0.177 HD
ENDBRANCH  18  28
ENDBRANCH  11  13
ENDBRANCH   8  10
ENDBRANCH   5   6
TORSDOF 7
ENDMDL