MODEL 2
REMARK VINA RESULT: -9.704437881      5.451      8.312
REMARK  6 active torsions:
REMARK  status: ('A' for Active; 'I' for Inactive)
REMARK    1  A    between atoms: O1_2  and  C2_3
REMARK    2  A    between atoms: C2_3  and  C3_5
REMARK    3  A    between atoms: C6_13  and  N4_14
REMARK       I    between atoms: N4_14  and  C7_16
REMARK       I    between atoms: C7_16  and  N5_18
REMARK    4  A    between atoms: N5_18  and  S1_20
REMARK    5  A    between atoms: S1_20  and  C8_23
REMARK    6  A    between atoms: C13_28  and  N6_29
ROOT
HETATM    1  N4  UNL     1      18.516 -17.721  29.783  1.00  0.00    -0.293 N
ATOM      2  H4  UNL     1      18.000 -16.849  29.910  1.00  0.00     0.172 HD
HETATM    3  C7  UNL     1      19.667 -17.788  28.927  1.00  0.00     0.335 C
HETATM    4  O3  UNL     1      20.801 -17.642  29.437  1.00  0.00    -0.246 OA
HETATM    5  N5  UNL     1      19.563 -18.011  27.541  1.00  0.00    -0.232 N
ATOM      6  H5  UNL     1      18.626 -18.124  27.152  1.00  0.00     0.183 HD
ENDROOT
BRANCH   1   7
HETATM    7  C6  UNL     1      18.162 -18.796  30.381  1.00  0.00     0.130 A
HETATM    8  C3  UNL     1      17.000 -19.391  29.954  1.00  0.00     0.124 A
HETATM    9  C4  UNL     1      16.600 -20.551  30.588  1.00  0.00     0.137 A
HETATM   10  N1  UNL     1      15.398 -21.178  30.159  1.00  0.00    -0.081 NA
HETATM   11  N2  UNL     1      17.360 -21.043  31.586  1.00  0.00    -0.340 N
HETATM   12  C5  UNL     1      18.497 -20.456  31.999  1.00  0.00     0.183 A
ATOM     13  H2  UNL     1      17.059 -21.900  32.050  1.00  0.00     0.167 HD
HETATM   14  N3  UNL     1      18.904 -19.327  31.396  1.00  0.00    -0.338 N
ATOM     15  H3  UNL     1      19.764 -18.868  31.696  1.00  0.00     0.168 HD
BRANCH   8  16
HETATM   16  C2  UNL     1      16.224 -18.808  28.867  1.00  0.00     0.300 C
HETATM   17  O2  UNL     1      15.241 -18.093  29.096  1.00  0.00    -0.259 OA
BRANCH  16  18
HETATM   18  O1  UNL     1      16.601 -19.063  27.561  1.00  0.00    -0.322 OA
HETATM   19  C1  UNL     1      16.015 -20.031  26.737  1.00  0.00     0.213 C
ENDBRANCH  16  18
ENDBRANCH   8  16
ENDBRANCH   1   7
BRANCH   5  20
HETATM   20  S1  UNL     1      20.873 -18.106  26.465  1.00  0.00     0.266 S
HETATM   21  O4  UNL     1      21.019 -16.864  25.622  1.00  0.00    -0.200 OA
HETATM   22  O5  UNL     1      22.137 -18.243  27.308  1.00  0.00    -0.200 OA
BRANCH  20  23
HETATM   23  C8  UNL     1      20.815 -19.450  25.364  1.00  0.00     0.082 A
HETATM   24  C9  UNL     1      21.966 -20.179  25.157  1.00  0.00     0.032 A
HETATM   25  C10 UNL     1      21.985 -21.243  24.307  1.00  0.00    -0.058 A
HETATM   26  C11 UNL     1      23.247 -22.010  24.102  1.00  0.00     0.048 C
HETATM   27  C12 UNL     1      20.831 -21.595  23.643  1.00  0.00     0.043 A
HETATM   28  C13 UNL     1      19.650 -20.877  23.832  1.00  0.00     0.104 A
HETATM   29  C14 UNL     1      19.660 -19.810  24.694  1.00  0.00     0.061 A
BRANCH  28  30
HETATM   30  N6  UNL     1      18.465 -21.272  23.127  1.00  0.00    -0.116 N
HETATM   31  O6  UNL     1      17.385 -20.825  23.541  1.00  0.00    -0.532 OA
HETATM   32  O7  UNL     1      18.571 -22.111  22.045  1.00  0.00    -0.532 OA
ENDBRANCH  28  30
ENDBRANCH  20  23
ENDBRANCH   5  20
TORSDOF 6
ENDMDL