MODEL 1
REMARK VINA RESULT: -7.617067884      0.000      0.000
REMARK  8 active torsions:
REMARK  status: ('A' for Active; 'I' for Inactive)
REMARK    1  A    between atoms: N1_2  and  C2_4
REMARK    2  A    between atoms: C3_7  and  C4_8
REMARK    3  A    between atoms: C6_12  and  C7_13
REMARK    4  A    between atoms: C8_14  and  C9_15
REMARK    5  A    between atoms: C9_15  and  N4_16
REMARK    6  A    between atoms: N4_16  and  O1_19
REMARK    7  A    between atoms: O1_19  and  C11_20
REMARK    8  A    between atoms: C16_30  and  N7_31
ROOT
HETATM    1  N4  UNL     1      16.137 -22.571  33.900  1.00  0.00    -0.149 N
HETATM    2  C10 UNL     1      16.381 -23.859  34.359  1.00  0.00     0.208 C
HETATM    3  N5  UNL     1      16.574 -24.944  34.761  1.00  0.00    -0.170 NA
ENDROOT
BRANCH   1   4
HETATM    4  C9  UNL     1      16.924 -22.037  32.822  1.00  0.00     0.307 A
HETATM    5  C14 UNL     1      17.067 -20.574  32.820  1.00  0.00     0.321 A
HETATM    6  O2  UNL     1      16.295 -19.603  32.703  1.00  0.00    -0.260 OA
HETATM    7  O3  UNL     1      18.422 -20.736  33.004  1.00  0.00    -0.238 OA
HETATM    8  C15 UNL     1      18.391 -22.120  33.020  1.00  0.00     0.321 A
HETATM    9  O4  UNL     1      19.246 -23.011  33.149  1.00  0.00    -0.260 OA
BRANCH   4  10
HETATM   10  C8  UNL     1      16.579 -22.619  31.522  1.00  0.00    -0.043 C
HETATM   11  C7  UNL     1      16.315 -23.095  30.450  1.00  0.00    -0.044 C
BRANCH  11  12
HETATM   12  C6  UNL     1      16.023 -23.673  29.175  1.00  0.00     0.103 A
HETATM   13  C5  UNL     1      15.506 -22.823  28.201  1.00  0.00     0.127 A
HETATM   14  N3  UNL     1      15.241 -23.368  27.031  1.00  0.00    -0.358 N
HETATM   15  C4  UNL     1      15.426 -24.676  26.694  1.00  0.00     0.103 A
ATOM     16  H3  UNL     1      14.861 -22.754  26.310  1.00  0.00     0.165 HD
HETATM   17  C16 UNL     1      15.933 -25.491  27.663  1.00  0.00     0.129 A
HETATM   18  N6  UNL     1      16.220 -24.958  28.890  1.00  0.00    -0.333 N
ATOM     19  H6  UNL     1      16.599 -25.569  29.613  1.00  0.00     0.168 HD
BRANCH  15  20
HETATM   20  C3  UNL     1      15.074 -25.141  25.314  1.00  0.00     0.071 A
HETATM   21  N2  UNL     1      15.899 -25.366  24.331  1.00  0.00    -0.334 N
HETATM   22  C2  UNL     1      15.405 -25.783  23.154  1.00  0.00     0.144 A
ATOM     23  H2  UNL     1      16.902 -25.228  24.453  1.00  0.00     0.168 HD
HETATM   24  S1  UNL     1      13.733 -25.865  23.422  1.00  0.00    -0.064 SA
HETATM   25  C17 UNL     1      13.727 -25.359  25.043  1.00  0.00     0.085 A
BRANCH  22  26
HETATM   26  N1  UNL     1      16.087 -26.058  22.058  1.00  0.00    -0.375 N
HETATM   27  C1  UNL     1      17.151 -25.226  21.611  1.00  0.00     0.148 C
ATOM     28  H1  UNL     1      15.846 -26.889  21.518  1.00  0.00     0.161 HD
ENDBRANCH  22  26
ENDBRANCH  15  20
BRANCH  17  29
HETATM   29  N7  UNL     1      16.156 -26.748  27.471  1.00  0.00    -0.384 N
ATOM     30  H72 UNL     1      15.357 -27.371  27.354  1.00  0.00     0.157 HD
ATOM     31  H71 UNL     1      17.096 -27.143  27.433  1.00  0.00     0.157 HD
ENDBRANCH  17  29
ENDBRANCH  11  12
ENDBRANCH   4  10
ENDBRANCH   1   4
BRANCH   1  32
HETATM   32  O1  UNL     1      15.176 -21.816  34.450  1.00  0.00    -0.261 OA
BRANCH  32  33
HETATM   33  C11 UNL     1      13.912 -22.341  34.350  1.00  0.00     0.145 C
HETATM   34  C12 UNL     1      13.112 -21.881  35.562  1.00  0.00     0.042 C
HETATM   35  C13 UNL     1      13.230 -21.724  33.132  1.00  0.00     0.042 C
ENDBRANCH  32  33
ENDBRANCH   1  32
TORSDOF 8
ENDMDL