MODEL 3
REMARK VINA RESULT: -8.085318221      2.241      4.028
REMARK  5 active torsions:
REMARK  status: ('A' for Active; 'I' for Inactive)
REMARK    1  A    between atoms: O1_2  and  C2_3
REMARK    2  A    between atoms: C7_10  and  O4_12
REMARK    3  A    between atoms: O4_12  and  C9_13
REMARK    4  A    between atoms: C9_13  and  C10_15
REMARK    5  A    between atoms: C13_20  and  S1_21
ROOT
HETATM    1  C2  UNL     1      16.911 -27.145  19.679  1.00  0.00     0.231 C
HETATM    2  C3  UNL     1      15.659 -27.884  20.174  1.00  0.00     0.089 C
HETATM    3  O2  UNL     1      16.545 -25.872  19.220  1.00  0.00    -0.318 OA
HETATM    4  C4  UNL     1      17.294 -24.726  19.367  1.00  0.00     0.155 C
HETATM    5  C5  UNL     1      18.310 -24.653  20.224  1.00  0.00     0.052 C
HETATM    6  C6  UNL     1      19.103 -23.440  20.379  1.00  0.00     0.217 C
HETATM    7  O3  UNL     1      18.739 -22.416  19.771  1.00  0.00    -0.287 OA
HETATM    8  C7  UNL     1      20.310 -23.444  21.242  1.00  0.00     0.206 C
HETATM    9  C8  UNL     1      21.511 -23.491  20.285  1.00  0.00     0.081 C
HETATM   10  N2  UNL     1      20.382 -24.643  22.036  1.00  0.00    -0.361 N
ATOM     11  H2  UNL     1      21.064 -24.651  22.793  1.00  0.00     0.162 HD
HETATM   12  C15 UNL     1      19.607 -25.801  21.872  1.00  0.00     0.102 C
HETATM   13  C16 UNL     1      18.608 -25.846  21.018  1.00  0.00     0.046 C
HETATM   14  C17 UNL     1      17.805 -27.025  20.840  1.00  0.00     0.223 C
HETATM   15  O8  UNL     1      17.874 -27.946  21.679  1.00  0.00    -0.286 OA
ENDROOT
BRANCH   8  16
HETATM   16  O4  UNL     1      20.449 -22.271  21.995  1.00  0.00    -0.277 OA
BRANCH  16  17
HETATM   17  C9  UNL     1      20.973 -22.178  23.254  1.00  0.00     0.314 C
HETATM   18  O5  UNL     1      21.733 -23.099  23.644  1.00  0.00    -0.257 OA
BRANCH  17  19
HETATM   19  C10 UNL     1      20.707 -21.082  24.171  1.00  0.00     0.130 A
HETATM   20  N1  UNL     1      21.672 -20.432  24.854  1.00  0.00    -0.360 N
HETATM   21  C11 UNL     1      21.144 -19.463  25.629  1.00  0.00     0.090 A
ATOM     22  H1  UNL     1      22.668 -20.645  24.792  1.00  0.00     0.165 HD
HETATM   23  C12 UNL     1      19.781 -19.499  25.430  1.00  0.00     0.043 A
HETATM   24  C13 UNL     1      19.520 -20.514  24.517  1.00  0.00     0.092 A
BRANCH  24  25
HETATM   25  S1  UNL     1      17.963 -20.972  23.925  1.00  0.00     0.174 S
HETATM   26  C14 UNL     1      16.702 -20.537  25.133  1.00  0.00     0.167 C
HETATM   27  O6  UNL     1      17.805 -22.419  23.656  1.00  0.00    -0.223 OA
HETATM   28  O7  UNL     1      17.686 -20.168  22.662  1.00  0.00    -0.223 OA
ENDBRANCH  24  25
ENDBRANCH  17  19
ENDBRANCH  16  17
ENDBRANCH   8  16
BRANCH   1  29
HETATM   29  O1  UNL     1      17.450 -27.923  18.664  1.00  0.00    -0.354 OA
HETATM   30  C1  UNL     1      16.839 -29.142  18.502  1.00  0.00     0.206 C
ENDBRANCH   1  29
TORSDOF 5
ENDMDL