MODEL 1
REMARK VINA RESULT: -9.298052945      0.000      0.000
REMARK  7 active torsions:
REMARK  status: ('A' for Active; 'I' for Inactive)
REMARK    1  A    between atoms: C2_2  and  N1_3
REMARK    2  A    between atoms: C2_2  and  C11_23
REMARK    3  A    between atoms: N1_3  and  C3_5
REMARK    4  A    between atoms: C6_14  and  N5_15
REMARK    5  A    between atoms: C12_26  and  C13_27
REMARK    6  A    between atoms: C13_27  and  N8_28
REMARK    7  A    between atoms: C14_33  and  S2_34
ROOT
HETATM    1  N1  UNL     1      19.589 -22.865  21.774  1.00  0.00    -0.366 N
ATOM      2  H1  UNL     1      18.884 -22.136  21.890  1.00  0.00     0.161 HD
ENDROOT
BRANCH   1   3
HETATM    3  C2  UNL     1      19.028 -23.833  20.929  1.00  0.00     0.131 C
HETATM    4  C1  UNL     1      20.136 -24.954  20.713  1.00  0.00     0.039 C
BRANCH   3   5
HETATM    5  C11 UNL     1      17.860 -24.612  21.537  1.00  0.00     0.061 A
HETATM    6  N7  UNL     1      17.551 -24.401  22.795  1.00  0.00    -0.353 N
HETATM    7  C12 UNL     1      16.493 -24.968  23.324  1.00  0.00     0.078 A
ATOM      8  H7  UNL     1      18.137 -23.792  23.365  1.00  0.00     0.166 HD
HETATM    9  S1  UNL     1      15.866 -25.861  22.021  1.00  0.00    -0.061 SA
HETATM   10  C14 UNL     1      17.030 -25.442  20.843  1.00  0.00     0.125 A
BRANCH   7  11
HETATM   11  C13 UNL     1      15.957 -24.861  24.737  1.00  0.00     0.294 C
BRANCH  11  12
HETATM   12  N8  UNL     1      15.964 -26.195  25.273  1.00  0.00    -0.074 N
ATOM     13  H83 UNL     1      16.316 -26.893  24.617  1.00  0.00     0.274 HD
ATOM     14  H82 UNL     1      16.667 -26.337  25.998  1.00  0.00     0.274 HD
ATOM     15  H81 UNL     1      15.013 -26.380  25.590  1.00  0.00     0.274 HD
ENDBRANCH  11  12
ENDBRANCH   7  11
BRANCH  10  16
HETATM   16  S2  UNL     1      17.111 -26.097  19.216  1.00  0.00     0.180 S
HETATM   17  C15 UNL     1      15.854 -27.392  19.133  1.00  0.00     0.167 C
HETATM   18  O2  UNL     1      18.421 -26.807  19.001  1.00  0.00    -0.222 OA
HETATM   19  O3  UNL     1      16.812 -25.094  18.188  1.00  0.00    -0.222 OA
ENDBRANCH  10  16
ENDBRANCH   3   5
ENDBRANCH   1   3
BRANCH   1  20
HETATM   20  C3  UNL     1      20.567 -22.516  22.437  1.00  0.00     0.122 A
HETATM   21  N2  UNL     1      21.817 -23.013  22.356  1.00  0.00    -0.338 N
HETATM   22  C4  UNL     1      22.874 -22.629  23.083  1.00  0.00     0.183 A
ATOM     23  H2  UNL     1      21.973 -23.754  21.674  1.00  0.00     0.168 HD
HETATM   24  N3  UNL     1      22.739 -21.681  23.984  1.00  0.00    -0.337 N
HETATM   25  C5  UNL     1      21.522 -21.110  24.151  1.00  0.00     0.141 A
ATOM     26  H3  UNL     1      23.536 -21.381  24.546  1.00  0.00     0.168 HD
HETATM   27  N4  UNL     1      21.403 -20.123  25.086  1.00  0.00    -0.175 N
HETATM   28  C10 UNL     1      20.432 -21.492  23.412  1.00  0.00     0.121 A
HETATM   29  C6  UNL     1      20.259 -19.501  25.325  1.00  0.00     0.684 A
ATOM     30  H4  UNL     1      22.228 -19.853  25.621  1.00  0.00     0.186 HD
HETATM   31  N6  UNL     1      19.193 -19.867  24.615  1.00  0.00    -0.155 N
HETATM   32  C9  UNL     1      19.246 -20.847  23.663  1.00  0.00     0.277 A
ATOM     33  H6  UNL     1      18.304 -19.399  24.789  1.00  0.00     0.187 HD
HETATM   34  O1  UNL     1      18.224 -21.159  23.028  1.00  0.00    -0.266 OA
BRANCH  29  35
HETATM   35  N5  UNL     1      20.242 -18.485  26.329  1.00  0.00    -0.226 N
HETATM   36  C7  UNL     1      19.006 -17.973  26.866  1.00  0.00     0.168 C
HETATM   37  C8  UNL     1      21.498 -17.951  26.817  1.00  0.00     0.168 C
ENDBRANCH  29  35
ENDBRANCH   1  20
TORSDOF 7
ENDMDL