MODEL 3
REMARK VINA RESULT: -8.065448006      3.146      6.392
REMARK  7 active torsions:
REMARK  status: ('A' for Active; 'I' for Inactive)
REMARK    1  A    between atoms: S1_2  and  C2_3
REMARK    2  A    between atoms: C2_3  and  C3_4
REMARK    3  A    between atoms: C3_4  and  C4_6
REMARK    4  A    between atoms: C4_6  and  O3_8
REMARK    5  A    between atoms: O3_8  and  C5_9
REMARK    6  A    between atoms: C9_15  and  O6_16
REMARK    7  A    between atoms: C14_26  and  O9_27
ROOT
HETATM    1  C5  UNL     1      16.734 -20.567  30.248  1.00  0.00     0.183 C
HETATM    2  C6  UNL     1      17.318 -19.740  31.313  1.00  0.00     0.196 C
HETATM    3  O4  UNL     1      18.759 -20.174  31.180  1.00  0.00    -0.305 OA
HETATM    4  C7  UNL     1      18.993 -21.555  31.540  1.00  0.00     0.294 C
HETATM    5  O5  UNL     1      19.870 -22.359  31.515  1.00  0.00    -0.259 OA
HETATM    6  C8  UNL     1      17.749 -22.021  32.098  1.00  0.00     0.067 C
HETATM    7  C9  UNL     1      17.723 -22.770  33.162  1.00  0.00     0.096 C
HETATM    8  C10 UNL     1      16.425 -23.125  33.818  1.00  0.00     0.084 A
HETATM    9  C11 UNL     1      15.438 -22.147  33.821  1.00  0.00     0.084 A
HETATM   10  C12 UNL     1      14.313 -22.714  34.510  1.00  0.00     0.262 A
HETATM   11  O7  UNL     1      13.225 -22.159  34.722  1.00  0.00    -0.267 OA
HETATM   12  N1  UNL     1      14.682 -24.058  34.916  1.00  0.00    -0.289 N
ATOM     13  H1  UNL     1      14.096 -24.718  35.428  1.00  0.00     0.172 HD
HETATM   14  C13 UNL     1      16.036 -24.290  34.461  1.00  0.00     0.262 A
HETATM   15  O8  UNL     1      16.813 -25.287  34.559  1.00  0.00    -0.267 OA
HETATM   16  C14 UNL     1      15.615 -20.758  33.299  1.00  0.00     0.088 C
HETATM   17  C15 UNL     1      16.466 -20.325  32.322  1.00  0.00     0.002 C
HETATM   18  C16 UNL     1      16.592 -21.588  31.281  1.00  0.00     0.050 C
HETATM   19  C17 UNL     1      15.422 -22.441  31.132  1.00  0.00     0.029 C
ENDROOT
BRANCH   1  20
HETATM   20  O3  UNL     1      15.515 -20.127  29.691  1.00  0.00    -0.305 OA
BRANCH  20  21
HETATM   21  C4  UNL     1      15.495 -19.287  28.589  1.00  0.00     0.330 C
HETATM   22  O2  UNL     1      15.137 -18.096  28.781  1.00  0.00    -0.256 OA
BRANCH  21  23
HETATM   23  C3  UNL     1      15.855 -19.700  27.259  1.00  0.00     0.233 C
HETATM   24  O1  UNL     1      17.040 -19.721  26.826  1.00  0.00    -0.286 OA
BRANCH  23  25
HETATM   25  C2  UNL     1      14.796 -20.129  26.315  1.00  0.00     0.163 C
BRANCH  25  26
HETATM   26  S1  UNL     1      14.945 -21.860  25.850  1.00  0.00    -0.166 SA
HETATM   27  C1  UNL     1      14.996 -22.847  27.371  1.00  0.00     0.090 C
ENDBRANCH  25  26
ENDBRANCH  23  25
ENDBRANCH  21  23
ENDBRANCH  20  21
ENDBRANCH   1  20
BRANCH  16  28
HETATM   28  O9  UNL     1      14.861 -19.762  33.831  1.00  0.00    -0.359 OA
ATOM     29  H9  UNL     1      15.193 -19.296  34.588  1.00  0.00     0.217 HD
ENDBRANCH  16  28
BRANCH   7  30
HETATM   30  O6  UNL     1      18.893 -23.166  33.693  1.00  0.00    -0.359 OA
ATOM     31  H6  UNL     1      19.143 -22.821  34.542  1.00  0.00     0.217 HD
ENDBRANCH   7  30
TORSDOF 7
ENDMDL