MODEL 5
REMARK VINA RESULT: -8.609330383      1.687      1.832
REMARK  6 active torsions:
REMARK  status: ('A' for Active; 'I' for Inactive)
REMARK    1  A    between atoms: C6_9  and  C7_10
REMARK       I    between atoms: C7_10  and  N3_12
REMARK    2  A    between atoms: N3_12  and  C8_14
REMARK    3  A    between atoms: C9_19  and  S1_20
REMARK    4  A    between atoms: S1_20  and  C10_21
REMARK    5  A    between atoms: C10_21  and  C11_22
REMARK    6  A    between atoms: C12_27  and  N8_28
ROOT
HETATM    1  N8  UNL     1      14.414 -28.325  26.025  1.00  0.00    -0.124 N
ATOM      2  H8  UNL     1      14.358 -29.333  25.879  1.00  0.00     0.197 HD
HETATM    3  C13 UNL     1      14.039 -27.828  27.273  1.00  0.00     0.196 C
HETATM    4  N9  UNL     1      13.710 -27.424  28.306  1.00  0.00    -0.171 NA
ENDROOT
BRANCH   1   5
HETATM    5  C12 UNL     1      14.826 -27.597  25.046  1.00  0.00     0.709 A
HETATM    6  N7  UNL     1      15.974 -26.887  24.982  1.00  0.00    -0.130 N
HETATM    7  N6  UNL     1      15.986 -26.304  23.818  1.00  0.00    -0.273 N
ATOM      8  H7  UNL     1      16.691 -26.821  25.706  1.00  0.00     0.205 HD
HETATM    9  C11 UNL     1      14.862 -26.629  23.127  1.00  0.00     0.124 A
ATOM     10  H6  UNL     1      16.728 -25.694  23.476  1.00  0.00     0.189 HD
HETATM   11  N10 UNL     1      14.149 -27.435  23.904  1.00  0.00    -0.172 N
HETATM   12  C14 UNL     1      12.873 -28.020  23.546  1.00  0.00     0.177 C
BRANCH   9  13
HETATM   13  C10 UNL     1      14.597 -26.120  21.766  1.00  0.00     0.160 C
BRANCH  13  14
HETATM   14  S1  UNL     1      15.940 -26.348  20.610  1.00  0.00    -0.096 SA
BRANCH  14  15
HETATM   15  C9  UNL     1      17.166 -25.046  20.707  1.00  0.00     0.130 A
HETATM   16  N5  UNL     1      17.136 -23.887  20.067  1.00  0.00    -0.286 N
HETATM   17  N4  UNL     1      18.075 -23.045  20.216  1.00  0.00    -0.278 N
ATOM     18  H5  UNL     1      16.352 -23.669  19.450  1.00  0.00     0.188 HD
HETATM   19  C8  UNL     1      19.089 -23.357  21.031  1.00  0.00     0.168 A
ATOM     20  H4  UNL     1      18.057 -22.151  19.726  1.00  0.00     0.189 HD
HETATM   21  S2  UNL     1      18.634 -24.909  21.573  1.00  0.00    -0.026 SA
BRANCH  19  22
HETATM   22  N3  UNL     1      20.146 -22.627  21.316  1.00  0.00    -0.302 N
HETATM   23  C7  UNL     1      20.842 -22.772  22.525  1.00  0.00     0.261 C
HETATM   24  O1  UNL     1      21.392 -23.877  22.764  1.00  0.00    -0.267 OA
ATOM     25  H3  UNL     1      20.468 -21.937  20.637  1.00  0.00     0.171 HD
BRANCH  23  26
HETATM   26  C6  UNL     1      20.950 -21.701  23.505  1.00  0.00     0.079 A
HETATM   27  C2  UNL     1      22.122 -21.342  24.174  1.00  0.00     0.040 A
HETATM   28  C1  UNL     1      23.445 -21.994  23.996  1.00  0.00     0.071 C
HETATM   29  N1  UNL     1      21.763 -20.324  24.966  1.00  0.00    -0.302 N
HETATM   30  N2  UNL     1      20.486 -20.032  24.840  1.00  0.00    -0.300 N
ATOM     31  H1  UNL     1      22.403 -19.834  25.591  1.00  0.00     0.186 HD
HETATM   32  C3  UNL     1      19.762 -18.988  25.547  1.00  0.00     0.177 C
HETATM   33  C4  UNL     1      19.934 -20.873  23.932  1.00  0.00     0.042 A
HETATM   34  C5  UNL     1      18.520 -20.882  23.499  1.00  0.00     0.071 C
ENDBRANCH  23  26
ENDBRANCH  19  22
ENDBRANCH  14  15
ENDBRANCH  13  14
ENDBRANCH   9  13
ENDBRANCH   1   5
TORSDOF 6
ENDMDL