MODEL 3
REMARK VINA RESULT: -8.346216214      1.064      1.672
REMARK  7 active torsions:
REMARK  status: ('A' for Active; 'I' for Inactive)
REMARK    1  A    between atoms: S1_2  and  C2_3
REMARK    2  A    between atoms: C2_3  and  C3_4
REMARK    3  A    between atoms: C3_4  and  C4_5
REMARK    4  A    between atoms: C5_10  and  N3_11
REMARK       I    between atoms: N3_11  and  C6_13
REMARK       I    between atoms: C6_13  and  N4_15
REMARK    5  A    between atoms: N4_15  and  C7_17
REMARK    6  A    between atoms: C8_21  and  C9_22
REMARK    7  A    between atoms: N8_31  and  N9_32
ROOT
HETATM    1  C7  UNL     1      17.449 -24.751  21.788  1.00  0.00     0.274 A
HETATM    2  O2  UNL     1      17.297 -24.354  20.518  1.00  0.00    -0.197 OA
HETATM    3  N5  UNL     1      16.424 -25.114  19.927  1.00  0.00    -0.239 N
ATOM      4  H5  UNL     1      16.128 -25.022  18.955  1.00  0.00     0.196 HD
HETATM    5  C8  UNL     1      15.973 -26.032  20.785  1.00  0.00     0.168 A
HETATM    6  N8  UNL     1      16.621 -25.794  21.936  1.00  0.00    -0.204 N
ENDROOT
BRANCH   1   7
HETATM    7  N4  UNL     1      18.232 -24.224  22.659  1.00  0.00    -0.271 N
HETATM    8  C6  UNL     1      19.547 -23.820  22.358  1.00  0.00     0.329 C
HETATM    9  N3  UNL     1      19.809 -22.473  22.009  1.00  0.00    -0.287 N
HETATM   10  O1  UNL     1      20.482 -24.649  22.398  1.00  0.00    -0.247 OA
ATOM     11  H3  UNL     1      20.213 -22.216  21.108  1.00  0.00     0.172 HD
ATOM     12  H4  UNL     1      17.887 -24.094  23.610  1.00  0.00     0.174 HD
BRANCH   9  13
HETATM   13  C5  UNL     1      19.501 -21.575  22.916  1.00  0.00     0.169 A
HETATM   14  N2  UNL     1      18.311 -20.994  23.123  1.00  0.00    -0.279 N
HETATM   15  N1  UNL     1      18.208 -20.141  24.058  1.00  0.00    -0.296 N
ATOM     16  H2  UNL     1      17.507 -21.232  22.543  1.00  0.00     0.189 HD
HETATM   17  C4  UNL     1      19.258 -19.839  24.806  1.00  0.00     0.070 A
ATOM     18  H1  UNL     1      17.313 -19.687  24.235  1.00  0.00     0.187 HD
HETATM   19  S2  UNL     1      20.459 -20.839  24.124  1.00  0.00    -0.038 SA
BRANCH  17  20
HETATM   20  C3  UNL     1      19.372 -18.870  25.956  1.00  0.00     0.076 C
BRANCH  20  21
HETATM   21  C2  UNL     1      20.488 -17.913  25.714  1.00  0.00     0.080 C
BRANCH  21  22
HETATM   22  S1  UNL     1      20.579 -16.626  26.966  1.00  0.00    -0.173 SA
HETATM   23  C1  UNL     1      20.906 -17.383  28.577  1.00  0.00     0.089 C
ENDBRANCH  21  22
ENDBRANCH  20  21
ENDBRANCH  17  20
ENDBRANCH   9  13
ENDBRANCH   1   7
BRANCH   6  24
HETATM   24  N9  UNL     1      16.451 -26.524  23.106  1.00  0.00    -0.334 N
ATOM     25  H92 UNL     1      17.186 -27.056  23.572  1.00  0.00     0.177 HD
ATOM     26  H91 UNL     1      15.577 -26.609  23.626  1.00  0.00     0.177 HD
ENDBRANCH   6  24
BRANCH   5  27
HETATM   27  C9  UNL     1      14.988 -27.086  20.550  1.00  0.00     0.105 A
HETATM   28  C10 UNL     1      13.660 -27.116  20.944  1.00  0.00     0.042 A
HETATM   29  C11 UNL     1      12.990 -26.027  21.709  1.00  0.00     0.071 C
HETATM   30  N6  UNL     1      13.148 -28.282  20.506  1.00  0.00    -0.299 N
HETATM   31  N7  UNL     1      14.066 -28.979  19.865  1.00  0.00    -0.261 N
ATOM     32  H6  UNL     1      12.184 -28.583  20.649  1.00  0.00     0.187 HD
HETATM   33  C12 UNL     1      13.904 -30.283  19.248  1.00  0.00     0.181 C
HETATM   34  C13 UNL     1      15.208 -28.281  19.870  1.00  0.00     0.277 A
HETATM   35  O3  UNL     1      16.301 -28.631  19.354  1.00  0.00    -0.265 OA
ENDBRANCH   5  27
TORSDOF 7
ENDMDL