MODEL 1
REMARK VINA RESULT: -7.118488799      0.000      0.000
REMARK  10 active torsions:
REMARK  status: ('A' for Active; 'I' for Inactive)
REMARK    1  A    between atoms: C2_2  and  O1_3
REMARK    2  A    between atoms: O1_3  and  C3_4
REMARK    3  A    between atoms: C3_4  and  C4_6
REMARK    4  A    between atoms: C6_8  and  C7_9
REMARK    5  A    between atoms: C7_9  and  O4_11
REMARK    6  A    between atoms: O4_11  and  C8_12
REMARK    7  A    between atoms: C12_16  and  O5_17
REMARK    8  A    between atoms: C17_25  and  O8_26
REMARK    9  A    between atoms: C17_25  and  C18_28
REMARK   10  A    between atoms: C18_28  and  O10_30
ROOT
HETATM    1  C4  UNL     1      16.157 -20.142  30.250  1.00  0.00     0.131 C
HETATM    2  C5  UNL     1      14.923 -20.680  29.606  1.00  0.00     0.038 C
HETATM    3  C6  UNL     1      14.774 -22.118  30.120  1.00  0.00     0.150 C
HETATM    4  C12 UNL     1      14.340 -21.942  31.550  1.00  0.00     0.190 C
HETATM    5  O6  UNL     1      13.973 -23.159  32.163  1.00  0.00    -0.282 OA
HETATM    6  C13 UNL     1      13.907 -23.148  33.563  1.00  0.00     0.261 C
HETATM    7  O7  UNL     1      13.632 -24.224  34.145  1.00  0.00    -0.265 OA
HETATM    8  C14 UNL     1      14.139 -21.952  34.373  1.00  0.00     0.112 C
HETATM    9  C15 UNL     1      14.710 -20.793  33.634  1.00  0.00     0.023 C
HETATM   10  C16 UNL     1      15.407 -21.305  32.362  1.00  0.00     0.095 C
HETATM   11  C17 UNL     1      16.185 -20.232  31.733  1.00  0.00     0.166 C
ENDROOT
BRANCH   3  12
HETATM   12  C7  UNL     1      13.852 -22.909  29.318  1.00  0.00     0.269 C
HETATM   13  O3  UNL     1      12.688 -22.505  29.019  1.00  0.00    -0.265 OA
BRANCH  12  14
HETATM   14  O4  UNL     1      14.203 -24.169  28.832  1.00  0.00    -0.311 OA
BRANCH  14  15
HETATM   15  C8  UNL     1      14.482 -24.354  27.451  1.00  0.00     0.060 C
HETATM   16  C9  UNL     1      15.543 -25.457  27.389  1.00  0.00     0.045 C
HETATM   17  C10 UNL     1      15.028 -23.123  26.808  1.00  0.00     0.045 C
HETATM   18  C11 UNL     1      13.293 -24.845  26.689  1.00  0.00     0.045 C
ENDBRANCH  14  15
ENDBRANCH  12  14
ENDBRANCH   3  12
BRANCH   4  19
HETATM   19  O5  UNL     1      13.199 -21.125  31.533  1.00  0.00    -0.364 OA
ATOM     20  H5  UNL     1      12.514 -21.599  31.992  1.00  0.00     0.213 HD
ENDBRANCH   4  19
BRANCH   1  21
HETATM   21  C3  UNL     1      16.285 -18.705  29.836  1.00  0.00     0.266 C
HETATM   22  O2  UNL     1      15.360 -18.087  29.250  1.00  0.00    -0.265 OA
BRANCH  21  23
HETATM   23  O1  UNL     1      17.448 -17.983  30.087  1.00  0.00    -0.321 OA
BRANCH  23  24
HETATM   24  C2  UNL     1      18.658 -18.175  29.415  1.00  0.00     0.174 C
HETATM   25  C1  UNL     1      18.481 -17.656  27.993  1.00  0.00     0.034 C
ENDBRANCH  23  24
ENDBRANCH  21  23
ENDBRANCH   1  21
BRANCH  11  26
HETATM   26  O8  UNL     1      15.758 -18.996  32.270  1.00  0.00    -0.378 OA
ATOM     27  H8  UNL     1      14.978 -19.144  32.792  1.00  0.00     0.211 HD
ENDBRANCH  11  26
BRANCH  11  28
HETATM   28  C18 UNL     1      17.615 -20.367  32.145  1.00  0.00     0.294 C
HETATM   29  O9  UNL     1      18.122 -19.811  33.122  1.00  0.00    -0.262 OA
BRANCH  28  30
HETATM   30  O10 UNL     1      18.409 -21.185  31.352  1.00  0.00    -0.324 OA
HETATM   31  C19 UNL     1      19.131 -22.283  31.820  1.00  0.00     0.213 C
ENDBRANCH  28  30
ENDBRANCH  11  28
TORSDOF 10
ENDMDL