MODEL 3
REMARK VINA RESULT: -8.661544609      3.502      6.802
REMARK  6 active torsions:
REMARK  status: ('A' for Active; 'I' for Inactive)
REMARK    1  A    between atoms: O1_2  and  C2_3
REMARK    2  A    between atoms: C2_3  and  C3_5
REMARK    3  A    between atoms: C5_7  and  N1_8
REMARK    4  A    between atoms: C11_15  and  C12_16
REMARK    5  A    between atoms: C13_21  and  N5_22
REMARK    6  A    between atoms: C15_26  and  C16_27
ROOT
HETATM    1  N1  UNL     1      19.322 -22.360  23.313  1.00  0.00    -0.296 N
HETATM    2  C6  UNL     1      20.660 -22.414  23.343  1.00  0.00     0.016 A
HETATM    3  C7  UNL     1      21.460 -23.560  22.812  1.00  0.00     0.068 C
HETATM    4  C8  UNL     1      21.152 -21.255  23.939  1.00  0.00     0.050 A
HETATM    5  C9  UNL     1      20.067 -20.479  24.275  1.00  0.00     0.079 A
HETATM    6  C10 UNL     1      20.078 -19.176  24.921  1.00  0.00     0.102 C
HETATM    7  N2  UNL     1      20.091 -18.132  25.418  1.00  0.00    -0.191 NA
HETATM    8  C11 UNL     1      18.955 -21.190  23.876  1.00  0.00     0.127 A
ENDROOT
BRANCH   8   9
HETATM    9  C12 UNL     1      17.569 -20.765  24.027  1.00  0.00     0.283 C
HETATM   10  N3  UNL     1      16.849 -21.105  25.206  1.00  0.00    -0.056 NA
HETATM   11  O3  UNL     1      16.968 -20.097  23.147  1.00  0.00    -0.269 OA
ENDBRANCH   8   9
BRANCH   1  12
HETATM   12  C5  UNL     1      18.471 -23.369  22.777  1.00  0.00     0.115 A
HETATM   13  C4  UNL     1      18.530 -23.766  21.457  1.00  0.00     0.069 A
HETATM   14  C3  UNL     1      17.706 -24.740  20.940  1.00  0.00     0.071 A
HETATM   15  C19 UNL     1      16.802 -25.309  21.830  1.00  0.00     0.108 A
HETATM   16  C13 UNL     1      16.733 -24.922  23.147  1.00  0.00     0.157 A
HETATM   17  N7  UNL     1      15.913 -26.322  21.384  1.00  0.00    -0.097 NA
HETATM   18  N4  UNL     1      17.566 -23.963  23.593  1.00  0.00    -0.325 N
ATOM     19  H4  UNL     1      17.516 -23.676  24.571  1.00  0.00     0.169 HD
BRANCH  14  20
HETATM   20  C2  UNL     1      17.786 -25.143  19.544  1.00  0.00     0.295 C
HETATM   21  O2  UNL     1      18.777 -25.801  19.171  1.00  0.00    -0.259 OA
BRANCH  20  22
HETATM   22  O1  UNL     1      16.825 -24.836  18.613  1.00  0.00    -0.322 OA
HETATM   23  C1  UNL     1      16.420 -25.765  17.626  1.00  0.00     0.213 C
ENDBRANCH  20  22
ENDBRANCH  14  20
BRANCH  16  24
HETATM   24  N5  UNL     1      15.778 -25.559  23.982  1.00  0.00    -0.201 N
HETATM   25  N6  UNL     1      15.503 -26.851  24.014  1.00  0.00    -0.300 N
HETATM   26  C14 UNL     1      14.544 -27.054  24.934  1.00  0.00     0.128 A
ATOM     27  H6  UNL     1      15.942 -27.570  23.439  1.00  0.00     0.186 HD
HETATM   28  C15 UNL     1      14.200 -25.849  25.504  1.00  0.00     0.096 A
HETATM   29  C18 UNL     1      14.997 -24.910  24.884  1.00  0.00     0.283 A
HETATM   30  O5  UNL     1      15.005 -23.659  25.112  1.00  0.00    -0.265 OA
BRANCH  28  31
HETATM   31  C16 UNL     1      13.209 -25.615  26.539  1.00  0.00     0.162 C
HETATM   32  C17 UNL     1      13.322 -26.292  27.840  1.00  0.00     0.097 C
HETATM   33  O4  UNL     1      12.267 -24.834  26.302  1.00  0.00    -0.293 OA
ENDBRANCH  28  31
ENDBRANCH  16  24
ENDBRANCH   1  12
TORSDOF 6
ENDMDL