MODEL 5
REMARK VINA RESULT: -8.235609541      2.315      3.988
REMARK  7 active torsions:
REMARK  status: ('A' for Active; 'I' for Inactive)
REMARK    1  A    between atoms: O1_2  and  C2_3
REMARK    2  A    between atoms: C2_3  and  C3_5
REMARK    3  A    between atoms: C4_6  and  C5_7
REMARK    4  A    between atoms: C5_7  and  O3_8
REMARK    5  A    between atoms: O3_8  and  C6_9
REMARK    6  A    between atoms: C6_9  and  C7_11
REMARK    7  A    between atoms: C8_12  and  O5_13
ROOT
HETATM    1  C5  UNL     1      19.603 -23.078  21.345  1.00  0.00     0.216 C
ENDROOT
BRANCH   1   2
HETATM    2  C4  UNL     1      20.122 -22.344  22.553  1.00  0.00    -0.020 C
HETATM    3  C3  UNL     1      19.536 -21.502  23.358  1.00  0.00     0.119 C
HETATM    4  N3  UNL     1      20.431 -21.033  24.409  1.00  0.00    -0.290 N
HETATM    5  C12 UNL     1      21.515 -21.996  24.420  1.00  0.00     0.167 C
HETATM    6  C14 UNL     1      20.608 -20.014  25.385  1.00  0.00     0.306 C
HETATM    7  C11 UNL     1      21.554 -22.523  23.033  1.00  0.00     0.076 C
HETATM    8  S2  UNL     1      22.934 -20.861  24.738  1.00  0.00    -0.056 SA
HETATM    9  C13 UNL     1      21.973 -19.548  25.460  1.00  0.00     0.278 C
HETATM   10  O7  UNL     1      22.387 -18.484  25.916  1.00  0.00    -0.275 OA
HETATM   11  O8  UNL     1      19.679 -19.570  26.101  1.00  0.00    -0.263 OA
BRANCH   3  12
HETATM   12  C2  UNL     1      18.137 -21.018  23.296  1.00  0.00     0.310 C
HETATM   13  O2  UNL     1      17.835 -20.101  22.520  1.00  0.00    -0.258 OA
BRANCH  12  14
HETATM   14  O1  UNL     1      17.130 -21.559  24.088  1.00  0.00    -0.321 OA
HETATM   15  C1  UNL     1      16.471 -20.808  25.091  1.00  0.00     0.213 C
ENDBRANCH  12  14
ENDBRANCH   3  12
ENDBRANCH   1   2
BRANCH   1  16
HETATM   16  O3  UNL     1      19.221 -24.365  21.736  1.00  0.00    -0.313 OA
BRANCH  16  17
HETATM   17  C6  UNL     1      17.935 -24.827  21.765  1.00  0.00     0.303 C
HETATM   18  O4  UNL     1      17.163 -24.606  22.716  1.00  0.00    -0.259 OA
BRANCH  17  19
HETATM   19  C7  UNL     1      17.480 -25.610  20.611  1.00  0.00     0.158 A
HETATM   20  C8  UNL     1      16.965 -24.956  19.516  1.00  0.00     0.164 A
HETATM   21  N1  UNL     1      16.543 -25.681  18.451  1.00  0.00    -0.313 N
HETATM   22  C9  UNL     1      16.610 -27.019  18.420  1.00  0.00     0.180 A
ATOM     23  H1  UNL     1      16.162 -25.190  17.642  1.00  0.00     0.170 HD
HETATM   24  S1  UNL     1      16.113 -27.911  17.156  1.00  0.00    -0.040 SA
HETATM   25  N2  UNL     1      17.114 -27.648  19.493  1.00  0.00    -0.299 N
HETATM   26  C10 UNL     1      17.543 -26.984  20.571  1.00  0.00     0.268 A
ATOM     27  H2  UNL     1      17.171 -28.666  19.486  1.00  0.00     0.171 HD
HETATM   28  O6  UNL     1      18.015 -27.614  21.568  1.00  0.00    -0.267 OA
BRANCH  20  29
HETATM   29  O5  UNL     1      16.857 -23.554  19.461  1.00  0.00    -0.345 OA
ATOM     30  H5  UNL     1      17.202 -22.992  20.145  1.00  0.00     0.219 HD
ENDBRANCH  20  29
ENDBRANCH  17  19
ENDBRANCH  16  17
ENDBRANCH   1  16
TORSDOF 7
ENDMDL