MODEL 1
REMARK VINA RESULT: -8.166243547      0.000      0.000
REMARK  7 active torsions:
REMARK  status: ('A' for Active; 'I' for Inactive)
REMARK    1  A    between atoms: C2_2  and  C3_3
REMARK    2  A    between atoms: C4_4  and  C5_5
REMARK    3  A    between atoms: C14_14  and  O1_15
REMARK    4  A    between atoms: O1_15  and  C15_16
REMARK    5  A    between atoms: C15_16  and  O2_17
REMARK    6  A    between atoms: C15_16  and  N1_19
REMARK    7  A    between atoms: N1_19  and  N2_20
ROOT
HETATM    1  C3  UNL     1       7.210  10.779  -0.051  1.00  0.00     0.020 C
HETATM    2  C4  UNL     1       7.297  12.226   0.474  1.00  0.00    -0.003 C
HETATM    3  C7  UNL     1       8.477  12.290   1.394  1.00  0.00     0.039 C
HETATM    4  C8  UNL     1       9.385  11.235   0.737  1.00  0.00    -0.078 C
HETATM    5  C9  UNL     1      10.661  11.052   1.386  1.00  0.00    -0.016 C
HETATM    6  C10 UNL     1      10.915  10.253   2.562  1.00  0.00     0.038 C
HETATM    7  C11 UNL     1       9.709   9.514   3.146  1.00  0.00     0.015 C
HETATM    8  C12 UNL     1       9.447   8.500   2.032  1.00  0.00    -0.011 C
HETATM    9  C13 UNL     1      10.759   8.375   1.268  1.00  0.00     0.038 C
HETATM   10  C14 UNL     1      11.724   8.997   2.286  1.00  0.00     0.141 C
HETATM   11  C16 UNL     1       8.287   9.031   1.291  1.00  0.00     0.014 C
HETATM   12  C17 UNL     1       8.490  10.132   0.331  1.00  0.00     0.022 C
ENDROOT
BRANCH  10  13
HETATM   13  O1  UNL     1      13.037   9.000   2.011  1.00  0.00    -0.298 OA
BRANCH  13  14
HETATM   14  C15 UNL     1      13.992   9.005   3.130  1.00  0.00     0.360 C
BRANCH  14  15
HETATM   15  O2  UNL     1      13.385   8.398   4.124  1.00  0.00    -0.314 OA
ATOM     16  H2  UNL     1      14.072   8.115   4.716  1.00  0.00     0.222 HD
ENDBRANCH  14  15
BRANCH  14  17
HETATM   17  N1  UNL     1      15.187   9.493   3.191  1.00  0.00    -0.280 NA
BRANCH  17  18
HETATM   18  N2  UNL     1      16.460  10.013   3.256  1.00  0.00    -0.276 N
ATOM     19  H22 UNL     1      15.516   9.633   3.205  1.00  0.00     0.191 HD
ATOM     20  H21 UNL     1      17.404  10.398   3.304  1.00  0.00     0.191 HD
ENDBRANCH  17  18
ENDBRANCH  14  17
ENDBRANCH  13  14
ENDBRANCH  10  13
BRANCH   2  21
HETATM   21  C5  UNL     1       7.386  13.176  -0.679  1.00  0.00     0.001 C
HETATM   22  C6  UNL     1       6.629  14.448  -0.326  1.00  0.00     0.005 C
ENDBRANCH   2  21
BRANCH   1  23
HETATM   23  C2  UNL     1       5.903  10.304   0.305  1.00  0.00    -0.031 C
HETATM   24  C1  UNL     1       4.890  10.520   1.027  1.00  0.00     0.007 C
ENDBRANCH   1  23
TORSDOF 7
ENDMDL