MODEL 2
REMARK VINA RESULT: -6.552658912      2.320      3.825
REMARK  6 active torsions:
REMARK  status: ('A' for Active; 'I' for Inactive)
REMARK    1  A    between atoms: C2_2  and  C3_3
REMARK    2  A    between atoms: C3_3  and  C6_6
REMARK    3  A    between atoms: C8_8  and  C9_9
REMARK    4  A    between atoms: C12_12  and  O1_13
REMARK    5  A    between atoms: C16_17  and  O2_18
REMARK    6  A    between atoms: C17_20  and  O3_21
ROOT
HETATM    1  C9  UNL     1       7.361  10.282   2.123  1.00  0.00     0.009 A
HETATM    2  C10 UNL     1       6.709  10.269   0.883  1.00  0.00    -0.015 A
HETATM    3  C11 UNL     1       7.444   9.834  -0.346  1.00  0.00     0.052 C
HETATM    4  C12 UNL     1       5.393  10.651   0.765  1.00  0.00     0.083 A
HETATM    5  C14 UNL     1       4.672  11.058   1.863  1.00  0.00     0.008 A
HETATM    6  C15 UNL     1       3.241  11.476   1.749  1.00  0.00     0.054 C
HETATM    7  C16 UNL     1       5.284  11.086   3.123  1.00  0.00     0.108 A
HETATM    8  C17 UNL     1       6.599  10.699   3.214  1.00  0.00     0.110 A
ENDROOT
BRANCH   1   9
HETATM    9  C8  UNL     1       8.726   9.842   2.183  1.00  0.00     0.018 C
HETATM   10  C6  UNL     1       9.833  10.479   2.071  1.00  0.00    -0.071 C
HETATM   11  C7  UNL     1       9.924  11.925   1.785  1.00  0.00     0.044 C
BRANCH  10  12
HETATM   12  C3  UNL     1      11.139   9.771   2.181  1.00  0.00    -0.008 C
HETATM   13  C4  UNL     1      11.367   9.230   3.567  1.00  0.00     0.024 C
HETATM   14  C5  UNL     1      11.261   8.625   1.199  1.00  0.00     0.024 C
BRANCH  12  15
HETATM   15  C2  UNL     1      12.261  10.714   1.850  1.00  0.00    -0.024 C
HETATM   16  C1  UNL     1      13.506  10.500   2.209  1.00  0.00     0.008 C
ENDBRANCH  12  15
ENDBRANCH  10  12
ENDBRANCH   1   9
BRANCH   8  17
HETATM   17  O3  UNL     1       7.275  10.691   4.418  1.00  0.00    -0.357 OA
ATOM     18  H3  UNL     1       8.190  10.444   4.352  1.00  0.00     0.217 HD
ENDBRANCH   8  17
BRANCH   4  19
HETATM   19  O1  UNL     1       4.734  10.644  -0.456  1.00  0.00    -0.355 OA
HETATM   20  C13 UNL     1       4.779  11.774  -1.334  1.00  0.00     0.210 C
ENDBRANCH   4  19
BRANCH   7  21
HETATM   21  O2  UNL     1       4.569  11.493   4.229  1.00  0.00    -0.357 OA
ATOM     22  H2  UNL     1       3.985  10.885   4.668  1.00  0.00     0.217 HD
ENDBRANCH   7  21
TORSDOF 6
ENDMDL