MODEL 4
REMARK VINA RESULT: -7.393433974      1.806      2.160
REMARK  4 active torsions:
REMARK  status: ('A' for Active; 'I' for Inactive)
REMARK    1  A    between atoms: C3_3  and  C4_4
REMARK    2  A    between atoms: C4_4  and  C5_5
REMARK    3  A    between atoms: C9_9  and  N1_10
REMARK    4  A    between atoms: C11_12  and  C12_13
ROOT
HETATM    1  C5  UNL     1      12.204   9.734   3.423  1.00  0.00    -0.009 C
HETATM    2  C6  UNL     1      12.967   9.747   2.120  1.00  0.00     0.005 C
HETATM    3  C7  UNL     1      12.074  10.474   1.145  1.00  0.00     0.002 C
HETATM    4  C8  UNL     1      10.854   9.671   0.901  1.00  0.00     0.027 C
HETATM    5  C9  UNL     1      10.133   9.167   2.090  1.00  0.00     0.108 C
HETATM    6  C14 UNL     1      10.882   9.076   3.361  1.00  0.00     0.032 C
ENDROOT
BRANCH   5   7
HETATM    7  N1  UNL     1       8.887   9.921   2.258  1.00  0.00    -0.296 N
HETATM    8  C10 UNL     1       7.706   9.746   1.641  1.00  0.00     0.130 A
HETATM    9  C11 UNL     1       6.798  10.671   2.091  1.00  0.00     0.085 A
HETATM   10  C13 UNL     1       7.494  11.428   3.028  1.00  0.00     0.132 A
HETATM   11  S1  UNL     1       6.818  12.670   3.848  1.00  0.00    -0.058 SA
HETATM   12  N3  UNL     1       8.744  10.934   3.088  1.00  0.00    -0.287 N
ATOM     13  H3  UNL     1       9.481  11.294   3.694  1.00  0.00     0.188 HD
BRANCH   9  14
HETATM   14  C12 UNL     1       5.412  10.814   1.673  1.00  0.00     0.269 C
HETATM   15  N2  UNL     1       5.125  11.384   0.406  1.00  0.00    -0.057 NA
HETATM   16  O1  UNL     1       4.469  10.446   2.413  1.00  0.00    -0.271 OA
ENDBRANCH   9  14
ENDBRANCH   5   7
BRANCH   1  17
HETATM   17  C4  UNL     1      13.066   9.174   4.534  1.00  0.00     0.031 C
BRANCH  17  18
HETATM   18  C3  UNL     1      13.783  10.229   5.293  1.00  0.00    -0.031 C
HETATM   19  C2  UNL     1      15.085  10.455   5.164  1.00  0.00    -0.035 C
HETATM   20  C1  UNL     1      15.898   9.623   4.216  1.00  0.00     0.036 C
ENDBRANCH  17  18
ENDBRANCH   1  17
TORSDOF 4
ENDMDL