MODEL 4
REMARK VINA RESULT: -7.899122252      1.004      1.455
REMARK  5 active torsions:
REMARK  status: ('A' for Active; 'I' for Inactive)
REMARK    1  A    between atoms: C2_2  and  C5_5
REMARK    2  A    between atoms: C8_8  and  C9_9
REMARK    3  A    between atoms: C9_9  and  C10_10
REMARK    4  A    between atoms: C10_10  and  N1_11
REMARK    5  A    between atoms: N1_11  and  C11_13
ROOT
HETATM    1  C10 UNL     1      11.267   9.234   1.481  1.00  0.00     0.056 C
ENDROOT
BRANCH   1   2
HETATM    2  C9  UNL     1      10.041   9.192   2.286  1.00  0.00     0.049 C
BRANCH   2   3
HETATM    3  C8  UNL     1       9.364  10.556   2.279  1.00  0.00    -0.010 C
HETATM    4  C7  UNL     1       8.003  10.461   2.929  1.00  0.00     0.005 C
HETATM    5  C6  UNL     1       7.509  11.832   3.359  1.00  0.00     0.005 C
HETATM    6  C5  UNL     1       8.184  12.867   2.499  1.00  0.00    -0.007 C
HETATM    7  C17 UNL     1       8.191  12.331   1.076  1.00  0.00     0.005 C
HETATM    8  C16 UNL     1       9.282  11.254   0.994  1.00  0.00     0.005 C
BRANCH   6   9
HETATM    9  C2  UNL     1       7.467  14.201   2.571  1.00  0.00    -0.048 C
HETATM   10  C1  UNL     1       8.296  15.264   3.232  1.00  0.00     0.015 C
HETATM   11  C3  UNL     1       7.069  14.688   1.194  1.00  0.00     0.015 C
HETATM   12  C4  UNL     1       6.194  14.007   3.368  1.00  0.00     0.015 C
ENDBRANCH   6   9
ENDBRANCH   2   3
ENDBRANCH   1   2
BRANCH   1  13
HETATM   13  N1  UNL     1      12.431   9.856   1.839  1.00  0.00    -0.397 N
ATOM     14  H1  UNL     1      12.487  10.849   1.613  1.00  0.00     0.159 HD
BRANCH  13  15
HETATM   15  C11 UNL     1      13.537   9.327   2.462  1.00  0.00     0.090 C
HETATM   16  C12 UNL     1      13.345   8.781   3.847  1.00  0.00     0.052 C
HETATM   17  C13 UNL     1      13.599   9.918   4.861  1.00  0.00     0.179 C
HETATM   18  O1  UNL     1      15.014  10.090   4.887  1.00  0.00    -0.339 OA
HETATM   19  C14 UNL     1      15.611  10.039   3.611  1.00  0.00     0.113 C
HETATM   20  N2  UNL     1      16.832   9.721   3.420  1.00  0.00    -0.383 N
HETATM   21  C15 UNL     1      14.651  10.400   2.506  1.00  0.00     0.108 C
ATOM     22  H22 UNL     1      17.481   9.477   4.168  1.00  0.00     0.157 HD
ATOM     23  H21 UNL     1      17.264   9.684   2.496  1.00  0.00     0.157 HD
ENDBRANCH  13  15
ENDBRANCH   1  13
TORSDOF 5
ENDMDL