MODEL 3
REMARK VINA RESULT: -7.272610284      1.786      3.192
REMARK  5 active torsions:
REMARK  status: ('A' for Active; 'I' for Inactive)
REMARK    1  A    between atoms: C2_2  and  C3_3
REMARK    2  A    between atoms: C3_3  and  C4_4
REMARK    3  A    between atoms: C4_4  and  C5_5
REMARK    4  A    between atoms: C6_6  and  O1_7
REMARK    5  A    between atoms: C9_12  and  C10_13
ROOT
HETATM    1  C5  UNL     1      11.355   9.643   2.247  1.00  0.00     0.044 A
HETATM    2  C6  UNL     1      10.662  10.294   1.255  1.00  0.00     0.100 A
HETATM    3  C7  UNL     1       9.392  10.801   1.454  1.00  0.00     0.101 A
HETATM    4  C8  UNL     1       8.691  11.416   0.334  1.00  0.00     0.104 C
HETATM    5  N1  UNL     1       8.118  11.875  -0.530  1.00  0.00    -0.191 NA
HETATM    6  C9  UNL     1       8.725  10.683   2.677  1.00  0.00     0.040 A
HETATM    7  N2  UNL     1       9.424  10.035   3.641  1.00  0.00    -0.325 N
ATOM      8  H2  UNL     1       8.985   9.918   4.555  1.00  0.00     0.169 HD
HETATM    9  C16 UNL     1      10.651   9.542   3.467  1.00  0.00     0.254 A
HETATM   10  O2  UNL     1      11.245   8.957   4.404  1.00  0.00    -0.268 OA
ENDROOT
BRANCH   2  11
HETATM   11  O1  UNL     1      11.219  10.468  -0.023  1.00  0.00    -0.358 OA
ATOM     12  H1  UNL     1      10.676  10.437  -0.803  1.00  0.00     0.217 HD
ENDBRANCH   2  11
BRANCH   6  13
HETATM   13  C10 UNL     1       7.463  11.387   2.822  1.00  0.00     0.037 C
HETATM   14  C11 UNL     1       6.661  10.944   4.066  1.00  0.00     0.011 C
HETATM   15  C12 UNL     1       5.305  11.652   3.857  1.00  0.00     0.001 C
HETATM   16  C13 UNL     1       5.551  13.072   4.352  1.00  0.00     0.000 C
HETATM   17  C14 UNL     1       6.640  13.708   3.532  1.00  0.00     0.001 C
HETATM   18  C15 UNL     1       7.814  12.855   3.208  1.00  0.00     0.011 C
ENDBRANCH   6  13
BRANCH   1  19
HETATM   19  C4  UNL     1      12.704   9.079   2.130  1.00  0.00     0.047 C
BRANCH  19  20
HETATM   20  C3  UNL     1      13.832  10.035   2.273  1.00  0.00     0.004 C
BRANCH  20  21
HETATM   21  C2  UNL     1      14.600   9.776   3.589  1.00  0.00    -0.004 C
HETATM   22  C1  UNL     1      16.079   9.801   3.288  1.00  0.00     0.005 C
ENDBRANCH  20  21
ENDBRANCH  19  20
ENDBRANCH   1  19
TORSDOF 5
ENDMDL