MODEL 4
REMARK VINA RESULT: -7.181321995      1.472      1.669
REMARK  5 active torsions:
REMARK  status: ('A' for Active; 'I' for Inactive)
REMARK    1  A    between atoms: C2_2  and  N1_3
REMARK    2  A    between atoms: N1_3  and  C3_5
REMARK    3  A    between atoms: C6_10  and  N3_11
REMARK    4  A    between atoms: N3_11  and  C7_13
REMARK    5  A    between atoms: C14_20  and  C15_21
ROOT
HETATM    1  C3  UNL     1      12.632   9.066   3.676  1.00  0.00     0.679 A
HETATM    2  N2  UNL     1      13.044   8.584   2.501  1.00  0.00    -0.202 N
ATOM      3  H2  UNL     1      13.933   8.085   2.456  1.00  0.00     0.183 HD
HETATM    4  C4  UNL     1      12.329   8.734   1.381  1.00  0.00     0.110 A
HETATM    5  C5  UNL     1      11.116   9.424   1.496  1.00  0.00     0.066 A
HETATM    6  C6  UNL     1      10.667   9.932   2.691  1.00  0.00     0.118 A
HETATM    7  N4  UNL     1      11.474   9.719   3.756  1.00  0.00    -0.177 N
ATOM      8  H4  UNL     1      11.181  10.077   4.665  1.00  0.00     0.185 HD
ENDROOT
BRANCH   6   9
HETATM    9  N3  UNL     1       9.461  10.644   2.844  1.00  0.00    -0.371 N
ATOM     10  H3  UNL     1       9.208  10.896   3.800  1.00  0.00     0.161 HD
BRANCH   9  11
HETATM   11  C7  UNL     1       8.552  11.055   1.825  1.00  0.00     0.087 C
HETATM   12  C8  UNL     1       8.521  12.494   1.489  1.00  0.00     0.025 C
HETATM   13  C9  UNL     1       8.607  13.418   2.678  1.00  0.00     0.002 C
HETATM   14  C10 UNL     1       7.267  14.110   2.818  1.00  0.00     0.000 C
HETATM   15  C11 UNL     1       6.462  13.326   3.832  1.00  0.00     0.000 C
HETATM   16  C12 UNL     1       5.709  12.249   3.042  1.00  0.00     0.000 C
HETATM   17  C13 UNL     1       6.440  10.977   3.222  1.00  0.00     0.007 C
HETATM   18  C14 UNL     1       7.175  10.434   2.056  1.00  0.00     0.008 C
BRANCH  18  19
HETATM   19  C15 UNL     1       6.373  10.302   0.799  1.00  0.00     0.002 C
HETATM   20  C16 UNL     1       7.254  10.012  -0.409  1.00  0.00     0.005 C
ENDBRANCH  18  19
ENDBRANCH   9  11
ENDBRANCH   6   9
BRANCH   1  21
HETATM   21  N1  UNL     1      13.362   8.899   4.757  1.00  0.00    -0.226 N
ATOM     22  H1  UNL     1      13.552   7.956   5.095  1.00  0.00     0.177 HD
BRANCH  21  23
HETATM   23  C2  UNL     1      13.896  10.031   5.469  1.00  0.00     0.133 C
HETATM   24  C1  UNL     1      15.303  10.378   5.005  1.00  0.00     0.027 C
ENDBRANCH  21  23
ENDBRANCH   1  21
TORSDOF 5
ENDMDL