MODEL 2
REMARK VINA RESULT: -7.737538302      2.232      2.554
REMARK  4 active torsions:
REMARK  status: ('A' for Active; 'I' for Inactive)
REMARK    1  A    between atoms: C3_3  and  N1_4
REMARK    2  A    between atoms: N1_4  and  N2_6
REMARK       I    between atoms: N2_6  and  C4_8
REMARK    3  A    between atoms: C4_8  and  C5_10
REMARK    4  A    between atoms: C5_10  and  C6_11
ROOT
HETATM    1  C1  UNL     1       9.484   8.674   4.147  1.00  0.00     0.052 C
HETATM    2  C2  UNL     1      10.417   9.293   3.119  1.00  0.00    -0.019 A
HETATM    3  C3  UNL     1       9.865   9.781   1.967  1.00  0.00     0.095 A
HETATM    4  S1  UNL     1      11.212  10.371   1.108  1.00  0.00    -0.075 SA
HETATM    5  C9  UNL     1      12.440   9.987   2.226  1.00  0.00    -0.008 A
HETATM    6  C10 UNL     1      11.761   9.406   3.241  1.00  0.00    -0.036 A
HETATM    7  C11 UNL     1      12.592   8.940   4.427  1.00  0.00     0.040 C
HETATM    8  C12 UNL     1      13.812   9.792   4.532  1.00  0.00     0.009 C
HETATM    9  C13 UNL     1      14.629   9.506   3.263  1.00  0.00    -0.014 C
HETATM   10  C14 UNL     1      16.028  10.013   3.393  1.00  0.00     0.010 C
HETATM   11  C15 UNL     1      13.919  10.211   2.161  1.00  0.00     0.051 C
ENDROOT
BRANCH   3  12
HETATM   12  N1  UNL     1       8.496   9.812   1.536  1.00  0.00    -0.291 N
ATOM     13  H1  UNL     1       7.736   9.602   2.183  1.00  0.00     0.187 HD
BRANCH  12  14
HETATM   14  N2  UNL     1       8.239  10.137   0.215  1.00  0.00    -0.269 N
HETATM   15  C4  UNL     1       6.918  10.424  -0.213  1.00  0.00     0.236 C
HETATM   16  O1  UNL     1       5.938  10.391   0.588  1.00  0.00    -0.272 OA
ATOM     17  H2  UNL     1       9.007  10.171  -0.456  1.00  0.00     0.190 HD
BRANCH  15  18
HETATM   18  C5  UNL     1       6.667  10.770  -1.631  1.00  0.00     0.108 C
BRANCH  18  19
HETATM   19  C6  UNL     1       6.144  12.157  -1.813  1.00  0.00    -0.014 C
HETATM   20  C7  UNL     1       5.923  12.393  -3.316  1.00  0.00     0.010 C
HETATM   21  C8  UNL     1       7.079  13.236  -1.356  1.00  0.00     0.010 C
ENDBRANCH  18  19
ENDBRANCH  15  18
ENDBRANCH  12  14
ENDBRANCH   3  12
TORSDOF 4
ENDMDL