MODEL 1
REMARK VINA RESULT: -8.621610330      0.000      0.000
REMARK  6 active torsions:
REMARK  status: ('A' for Active; 'I' for Inactive)
REMARK    1  A    between atoms: C2_2  and  C3_3
REMARK    2  A    between atoms: C2_2  and  O1_12
REMARK    3  A    between atoms: C2_2  and  C8_15
REMARK    4  A    between atoms: C3_3  and  C4_4
REMARK    5  A    between atoms: C4_4  and  C5_5
REMARK    6  A    between atoms: O1_12  and  O2_13
ROOT
HETATM    1  C1  UNL     1      11.293   8.610   1.149  1.00  0.00     0.050 C
HETATM    2  C2  UNL     1      10.877   9.576   2.252  1.00  0.00     0.100 C
ENDROOT
BRANCH   2   3
HETATM    3  C3  UNL     1      11.994  10.409   2.716  1.00  0.00     0.047 C
BRANCH   3   4
HETATM    4  C4  UNL     1      13.320  10.289   2.021  1.00  0.00     0.061 C
BRANCH   4   5
HETATM    5  C5  UNL     1      14.328  10.146   3.109  1.00  0.00     0.025 A
HETATM    6  C6  UNL     1      15.630   9.725   3.010  1.00  0.00     0.114 A
HETATM    7  N1  UNL     1      16.156   9.760   4.275  1.00  0.00    -0.360 N
HETATM    8  C7  UNL     1      15.214  10.185   5.123  1.00  0.00     0.180 A
ATOM      9  H1  UNL     1      17.110   9.504   4.528  1.00  0.00     0.166 HD
HETATM   10  N2  UNL     1      14.111  10.414   4.399  1.00  0.00    -0.355 N
ATOM     11  H2  UNL     1      13.226  10.749   4.780  1.00  0.00     0.166 HD
ENDBRANCH   4   5
ENDBRANCH   3   4
ENDBRANCH   2   3
BRANCH   2  12
HETATM   12  O1  UNL     1      10.642   8.663   3.352  1.00  0.00    -0.232 OA
BRANCH  12  13
HETATM   13  O2  UNL     1      11.356   9.036   4.383  1.00  0.00    -0.250 OA
ATOM     14  H2  UNL     1      11.156   9.940   4.594  1.00  0.00     0.253 HD
ENDBRANCH  12  13
ENDBRANCH   2  12
BRANCH   2  15
HETATM   15  C8  UNL     1       9.552  10.195   2.017  1.00  0.00    -0.005 C
HETATM   16  C9  UNL     1       8.958   9.727   0.721  1.00  0.00     0.017 C
HETATM   17  C10 UNL     1       7.648  10.404   0.416  1.00  0.00    -0.013 C
HETATM   18  C11 UNL     1       7.943  11.859   0.130  1.00  0.00     0.009 C
HETATM   19  C15 UNL     1       6.679  10.344   1.580  1.00  0.00     0.009 C
HETATM   20  C12 UNL     1       8.587  12.436   1.344  1.00  0.00    -0.013 C
HETATM   21  C13 UNL     1       7.631  12.377   2.538  1.00  0.00     0.009 C
HETATM   22  C17 UNL     1       9.830  11.700   1.793  1.00  0.00     0.017 C
HETATM   23  C14 UNL     1       7.343  10.942   2.808  1.00  0.00    -0.013 C
HETATM   24  C16 UNL     1       8.564  10.105   3.127  1.00  0.00     0.017 C
ENDBRANCH   2  15
TORSDOF 6
ENDMDL