MODEL 4
REMARK VINA RESULT: -6.118542021      1.839      5.489
REMARK  7 active torsions:
REMARK  status: ('A' for Active; 'I' for Inactive)
REMARK    1  A    between atoms: C2_2  and  C3_3
REMARK    2  A    between atoms: C5_5  and  C6_6
REMARK    3  A    between atoms: C6_6  and  C7_7
REMARK    4  A    between atoms: C7_7  and  C8_8
REMARK    5  A    between atoms: C8_8  and  O1_9
REMARK    6  A    between atoms: C11_13  and  O2_14
REMARK    7  A    between atoms: C13_17  and  C14_18
ROOT
HETATM    1  C3  UNL     1       8.163   9.088   0.977  1.00  0.00    -0.024 A
HETATM    2  C4  UNL     1       9.447   9.431   1.312  1.00  0.00     0.020 A
HETATM    3  C5  UNL     1       9.802  10.750   1.680  1.00  0.00    -0.023 A
HETATM    4  C9  UNL     1       8.843  11.739   1.712  1.00  0.00     0.084 A
HETATM    5  C10 UNL     1       7.551  11.377   1.370  1.00  0.00     0.012 A
HETATM    6  C11 UNL     1       7.216  10.086   1.010  1.00  0.00     0.081 A
HETATM    7  C12 UNL     1       6.720  12.599   1.497  1.00  0.00     0.077 C
HETATM    8  C13 UNL     1       7.746  13.688   1.472  1.00  0.00     0.140 C
HETATM    9  O3  UNL     1       8.867  13.095   2.027  1.00  0.00    -0.344 OA
ENDROOT
BRANCH   3  10
HETATM   10  C6  UNL     1      11.217  11.060   1.963  1.00  0.00     0.043 C
BRANCH  10  11
HETATM   11  C7  UNL     1      12.221  10.203   1.297  1.00  0.00     0.031 C
BRANCH  11  12
HETATM   12  C8  UNL     1      12.795   9.055   2.033  1.00  0.00     0.164 C
BRANCH  12  13
HETATM   13  O1  UNL     1      12.646   7.823   1.400  1.00  0.00    -0.401 OA
ATOM     14  H1  UNL     1      13.284   7.646   0.719  1.00  0.00     0.209 HD
ENDBRANCH  12  13
ENDBRANCH  11  12
ENDBRANCH  10  11
ENDBRANCH   3  10
BRANCH   1  15
HETATM   15  C2  UNL     1       7.813   7.720   0.583  1.00  0.00     0.037 C
HETATM   16  C1  UNL     1       8.997   6.870   0.239  1.00  0.00     0.010 C
ENDBRANCH   1  15
BRANCH   6  17
HETATM   17  O2  UNL     1       5.912   9.727   0.665  1.00  0.00    -0.359 OA
ATOM     18  H2  UNL     1       5.211  10.252   1.034  1.00  0.00     0.217 HD
ENDBRANCH   6  17
BRANCH   8  19
HETATM   19  C14 UNL     1       7.305  14.940   2.179  1.00  0.00    -0.024 C
HETATM   20  C15 UNL     1       8.171  15.352   3.326  1.00  0.00     0.017 C
HETATM   21  C16 UNL     1       5.917  14.666   2.755  1.00  0.00     0.017 C
HETATM   22  C17 UNL     1       7.178  16.039   1.186  1.00  0.00     0.017 C
ENDBRANCH   8  19
TORSDOF 7
ENDMDL