MODEL 5
REMARK VINA RESULT: -7.182995972      1.934      2.984
REMARK  7 active torsions:
REMARK  status: ('A' for Active; 'I' for Inactive)
REMARK    1  A    between atoms: C2_2  and  O1_4
REMARK    2  A    between atoms: C2_2  and  C4_6
REMARK    3  A    between atoms: C4_6  and  O2_7
REMARK    4  A    between atoms: O2_7  and  C5_8
REMARK    5  A    between atoms: C7_10  and  C8_11
REMARK    6  A    between atoms: C8_11  and  C9_12
REMARK    7  A    between atoms: C9_12  and  N1_13
ROOT
HETATM    1  C5  UNL     1       9.450  10.675   1.060  1.00  0.00     0.130 C
HETATM    2  C6  UNL     1       8.770  12.025   1.029  1.00  0.00     0.039 C
HETATM    3  C7  UNL     1       7.894  12.069  -0.183  1.00  0.00     0.008 C
HETATM    4  C10 UNL     1       6.910  10.959  -0.291  1.00  0.00    -0.039 C
HETATM    5  C11 UNL     1       6.247  11.077  -1.666  1.00  0.00     0.015 C
HETATM    6  C12 UNL     1       5.819  10.925   0.713  1.00  0.00     0.010 C
HETATM    7  C13 UNL     1       6.201  10.614   2.104  1.00  0.00     0.002 C
HETATM    8  C14 UNL     1       7.477   9.906   2.321  1.00  0.00     0.012 C
HETATM    9  C15 UNL     1       8.331   9.638   1.155  1.00  0.00    -0.017 C
HETATM   10  C16 UNL     1       9.031   8.283   1.267  1.00  0.00     0.018 C
HETATM   11  C17 UNL     1       7.647   9.644  -0.178  1.00  0.00     0.021 C
ENDROOT
BRANCH   1  12
HETATM   12  O2  UNL     1      10.371  10.552   2.059  1.00  0.00    -0.382 OA
BRANCH  12  13
HETATM   13  C4  UNL     1      11.647  10.549   1.502  1.00  0.00     0.205 C
BRANCH  13  14
HETATM   14  C2  UNL     1      12.568   9.562   2.174  1.00  0.00     0.072 C
HETATM   15  C1  UNL     1      13.935  10.160   2.297  1.00  0.00     0.047 C
HETATM   16  C3  UNL     1      12.031   9.122   3.518  1.00  0.00     0.047 C
BRANCH  14  17
HETATM   17  O1  UNL     1      12.640   8.437   1.355  1.00  0.00    -0.388 OA
ATOM     18  H1  UNL     1      11.765   8.214   1.062  1.00  0.00     0.210 HD
ENDBRANCH  14  17
ENDBRANCH  13  14
ENDBRANCH  12  13
ENDBRANCH   1  12
BRANCH   3  19
HETATM   19  C8  UNL     1       7.315  13.412  -0.396  1.00  0.00     0.109 C
BRANCH  19  20
HETATM   20  C9  UNL     1       7.072  14.244   0.609  1.00  0.00    -0.077 C
BRANCH  20  21
HETATM   21  N1  UNL     1       6.973  15.167   1.481  1.00  0.00    -0.370 N
ATOM     22  H12 UNL     1       6.187  15.533   0.943  1.00  0.00     0.165 HD
ATOM     23  H11 UNL     1       7.022  15.833   2.252  1.00  0.00     0.165 HD
ENDBRANCH  20  21
ENDBRANCH  19  20
ENDBRANCH   3  19
TORSDOF 7
ENDMDL