MODEL 5
REMARK VINA RESULT: -4.632058252      1.780      2.843
REMARK  3 active torsions:
REMARK  status: ('A' for Active; 'I' for Inactive)
REMARK    1  A    between atoms: N1_2  and  C2_5
REMARK    2  A    between atoms: C6_9  and  C7_10
REMARK    3  A    between atoms: C7_10  and  N2_11
ROOT
HETATM    1  C2  UNL     1     -42.425 -16.577   4.223  1.00  0.00     0.194 C
HETATM    2  C3  UNL     1     -41.763 -16.533   2.858  1.00  0.00     0.034 C
HETATM    3  C4  UNL     1     -40.545 -15.586   3.051  1.00  0.00     0.008 C
HETATM    4  C5  UNL     1     -40.286 -15.805   4.450  1.00  0.00     0.001 C
HETATM    5  C6  UNL     1     -39.560 -14.879   5.328  1.00  0.00     0.016 C
HETATM    6  C8  UNL     1     -40.052 -15.250   6.696  1.00  0.00     0.007 C
HETATM    7  C9  UNL     1     -41.396 -15.982   6.452  1.00  0.00     0.012 C
HETATM    8  C10 UNL     1     -41.689 -15.617   5.054  1.00  0.00    -0.012 C
HETATM    9  C11 UNL     1     -42.180 -14.231   4.943  1.00  0.00     0.018 C
ENDROOT
BRANCH   5  10
HETATM   10  C7  UNL     1     -38.061 -14.989   5.245  1.00  0.00     0.234 C
BRANCH  10  11
HETATM   11  N2  UNL     1     -37.444 -15.331   6.467  1.00  0.00    -0.079 N
ATOM     12  H23 UNL     1     -36.884 -16.177   6.361  1.00  0.00     0.274 HD
ATOM     13  H22 UNL     1     -36.707 -14.664   6.695  1.00  0.00     0.274 HD
ATOM     14  H21 UNL     1     -38.094 -15.427   7.247  1.00  0.00     0.274 HD
ENDBRANCH  10  11
ENDBRANCH   5  10
BRANCH   1  15
HETATM   15  N1  UNL     1     -42.566 -17.896   4.776  1.00  0.00    -0.074 N
HETATM   16  C1  UNL     1     -43.967 -18.258   4.848  1.00  0.00     0.267 C
ATOM     17  H12 UNL     1     -42.103 -17.982   5.680  1.00  0.00     0.277 HD
ATOM     18  H11 UNL     1     -42.020 -18.587   4.262  1.00  0.00     0.277 HD
ENDBRANCH   1  15
TORSDOF 3
ENDMDL