MODEL 1
REMARK VINA RESULT: -6.474922182      0.000      0.000
REMARK  3 active torsions:
REMARK  status: ('A' for Active; 'I' for Inactive)
REMARK    1  A    between atoms: C2_2  and  C4_10
REMARK    2  A    between atoms: N1_3  and  N2_5
REMARK    3  A    between atoms: N2_5  and  C3_7
ROOT
HETATM    1  C1  UNL     1     -36.644 -15.509   6.425  1.00  0.00     0.065 C
HETATM    2  C2  UNL     1     -36.710 -14.071   6.171  1.00  0.00     0.004 C
HETATM    3  N1  UNL     1     -37.834 -13.474   6.230  1.00  0.00    -0.307 N
ATOM      4  H1  UNL     1     -37.831 -12.472   6.045  1.00  0.00     0.186 HD
ENDROOT
BRANCH   2   5
HETATM    5  C4  UNL     1     -35.509 -13.255   5.839  1.00  0.00     0.032 C
HETATM    6  C5  UNL     1     -34.244 -13.948   6.209  1.00  0.00     0.010 C
HETATM    7  C6  UNL     1     -33.695 -13.259   7.442  1.00  0.00     0.001 C
HETATM    8  C7  UNL     1     -34.166 -11.823   7.258  1.00  0.00     0.001 C
HETATM    9  C8  UNL     1     -35.509 -11.934   6.571  1.00  0.00     0.010 C
ENDBRANCH   2   5
BRANCH   3  10
HETATM   10  N2  UNL     1     -39.050 -14.047   6.519  1.00  0.00    -0.279 N
ATOM     11  H2  UNL     1     -39.256 -14.362   7.466  1.00  0.00     0.189 HD
BRANCH  10  12
HETATM   12  C3  UNL     1     -40.013 -14.195   5.493  1.00  0.00     0.199 C
HETATM   13  N3  UNL     1     -40.324 -13.126   4.608  1.00  0.00    -0.068 NA
HETATM   14  S1  UNL     1     -40.775 -15.625   5.332  1.00  0.00    -0.043 SA
ENDBRANCH  10  12
ENDBRANCH   3  10
TORSDOF 3
ENDMDL