MODEL 5
REMARK VINA RESULT: -6.491425729      0.743      1.574
REMARK  3 active torsions:
REMARK  status: ('A' for Active; 'I' for Inactive)
REMARK    1  A    between atoms: C3_3  and  N1_4
REMARK    2  A    between atoms: C5_9  and  N2_10
REMARK    3  A    between atoms: N2_10  and  C6_13
ROOT
HETATM    1  C1  UNL     1     -40.048 -13.439   4.221  1.00  0.00     0.014 C
HETATM    2  C2  UNL     1     -39.160 -14.559   4.669  1.00  0.00     0.043 C
HETATM    3  C3  UNL     1     -39.780 -15.630   5.508  1.00  0.00     0.191 C
HETATM    4  C4  UNL     1     -39.210 -14.957   6.736  1.00  0.00     0.066 C
HETATM    5  C5  UNL     1     -38.299 -14.170   5.857  1.00  0.00     0.194 C
ENDROOT
BRANCH   5   6
HETATM    6  N2  UNL     1     -36.951 -14.622   5.712  1.00  0.00    -0.066 N
ATOM      7  H22 UNL     1     -36.889 -15.625   5.888  1.00  0.00     0.278 HD
ATOM      8  H21 UNL     1     -36.671 -14.601   4.732  1.00  0.00     0.278 HD
BRANCH   6   9
HETATM    9  C6  UNL     1     -36.002 -13.906   6.526  1.00  0.00     0.186 C
HETATM   10  C7  UNL     1     -34.627 -14.186   6.065  1.00  0.00     0.033 C
HETATM   11  C8  UNL     1     -33.563 -13.352   6.727  1.00  0.00     0.002 C
HETATM   12  C9  UNL     1     -34.119 -12.168   7.466  1.00  0.00     0.000 C
HETATM   13  C10 UNL     1     -35.203 -11.531   6.666  1.00  0.00     0.002 C
HETATM   14  C11 UNL     1     -36.382 -12.452   6.524  1.00  0.00     0.033 C
ENDBRANCH   6   9
ENDBRANCH   5   6
BRANCH   3  15
HETATM   15  N1  UNL     1     -41.222 -15.641   5.585  1.00  0.00    -0.075 N
ATOM     16  H13 UNL     1     -41.607 -15.035   4.861  1.00  0.00     0.274 HD
ATOM     17  H12 UNL     1     -41.574 -16.547   5.279  1.00  0.00     0.274 HD
ATOM     18  H11 UNL     1     -41.634 -15.400   6.486  1.00  0.00     0.274 HD
ENDBRANCH   3  15
TORSDOF 3
ENDMDL