MODEL 5
REMARK VINA RESULT: -4.634240855      2.084      3.878
REMARK  4 active torsions:
REMARK  status: ('A' for Active; 'I' for Inactive)
REMARK    1  A    between atoms: C2_2  and  C3_3
REMARK    2  A    between atoms: C3_3  and  C4_4
REMARK    3  A    between atoms: C7_7  and  O1_8
REMARK    4  A    between atoms: C10_12  and  O2_14
ROOT
HETATM    1  C4  UNL     1     -40.382 -15.106   4.177  1.00  0.00    -0.011 C
HETATM    2  C5  UNL     1     -41.198 -14.833   5.446  1.00  0.00     0.018 C
HETATM    3  C6  UNL     1     -40.536 -16.558   3.868  1.00  0.00     0.044 C
HETATM    4  C7  UNL     1     -41.940 -16.879   3.350  1.00  0.00     0.119 C
HETATM    5  C8  UNL     1     -42.117 -16.098   2.077  1.00  0.00     0.034 C
HETATM    6  C9  UNL     1     -42.091 -14.641   2.392  1.00  0.00     0.041 C
HETATM    7  C10 UNL     1     -40.881 -14.178   3.124  1.00  0.00     0.061 C
HETATM    8  C11 UNL     1     -41.208 -12.812   3.731  1.00  0.00     0.046 C
ENDROOT
BRANCH   1   9
HETATM    9  C3  UNL     1     -38.959 -14.800   4.496  1.00  0.00     0.012 C
BRANCH   9  10
HETATM   10  C2  UNL     1     -38.633 -14.932   5.967  1.00  0.00    -0.004 C
HETATM   11  C1  UNL     1     -37.186 -15.328   6.179  1.00  0.00     0.005 C
ENDBRANCH   9  10
ENDBRANCH   1   9
BRANCH   7  12
HETATM   12  O2  UNL     1     -39.873 -13.940   2.180  1.00  0.00    -0.389 OA
ATOM     13  H2  UNL     1     -39.028 -13.902   2.612  1.00  0.00     0.210 HD
ENDBRANCH   7  12
BRANCH   4  14
HETATM   14  O1  UNL     1     -41.941 -18.238   3.032  1.00  0.00    -0.396 OA
ATOM     15  H1  UNL     1     -42.166 -18.298   2.112  1.00  0.00     0.210 HD
ENDBRANCH   4  14
TORSDOF 4
ENDMDL