MODEL 2
REMARK VINA RESULT: -5.710062867      2.028      3.419
REMARK  4 active torsions:
REMARK  status: ('A' for Active; 'I' for Inactive)
REMARK    1  A    between atoms: C2_2  and  N1_4
REMARK    2  A    between atoms: C2_2  and  N2_8
REMARK    3  A    between atoms: N2_8  and  C4_10
REMARK    4  A    between atoms: C4_10  and  C7_13
ROOT
HETATM    1  N2  UNL     1     -41.580 -14.703   5.147  1.00  0.00    -0.383 N
ATOM      2  H2  UNL     1     -42.231 -13.919   5.140  1.00  0.00     0.156 HD
ENDROOT
BRANCH   1   3
HETATM    3  C2  UNL     1     -42.067 -15.754   5.853  1.00  0.00     0.185 C
HETATM    4  C1  UNL     1     -43.499 -15.309   6.325  1.00  0.00     0.070 C
HETATM    5  C3  UNL     1     -41.386 -16.045   7.183  1.00  0.00     0.070 C
BRANCH   3   6
HETATM    6  N1  UNL     1     -42.355 -17.017   5.247  1.00  0.00    -0.054 N
ATOM      7  H13 UNL     1     -41.562 -17.480   4.802  1.00  0.00     0.277 HD
ATOM      8  H12 UNL     1     -42.552 -17.779   5.896  1.00  0.00     0.277 HD
ATOM      9  H11 UNL     1     -43.121 -16.766   4.622  1.00  0.00     0.277 HD
ENDBRANCH   3   6
ENDBRANCH   1   3
BRANCH   1  10
HETATM   10  C4  UNL     1     -40.449 -14.427   4.448  1.00  0.00     0.024 C
HETATM   11  C5  UNL     1     -40.386 -15.275   3.190  1.00  0.00     0.038 C
HETATM   12  C6  UNL     1     -40.724 -12.984   3.711  1.00  0.00     0.038 C
BRANCH  10  13
HETATM   13  C7  UNL     1     -39.112 -14.233   5.002  1.00  0.00     0.012 C
HETATM   14  C8  UNL     1     -38.259 -15.425   5.317  1.00  0.00     0.007 C
HETATM   15  C9  UNL     1     -37.022 -14.737   5.937  1.00  0.00     0.000 C
HETATM   16  C10 UNL     1     -37.436 -13.341   6.317  1.00  0.00     0.000 C
HETATM   17  C11 UNL     1     -38.984 -13.414   6.262  1.00  0.00     0.007 C
ENDBRANCH  10  13
ENDBRANCH   1  10
TORSDOF 4
ENDMDL