MODEL 3
REMARK VINA RESULT: -5.176968212      4.891      6.350
REMARK  2 active torsions:
REMARK  status: ('A' for Active; 'I' for Inactive)
REMARK       I    between atoms: N1_2  and  C2_4
REMARK       I    between atoms: C2_4  and  N3_8
REMARK    1  A    between atoms: N4_10  and  O1_11
REMARK    2  A    between atoms: N4_10  and  C3_13
ROOT
HETATM    1  C1  UNL     1     -43.950 -17.871   2.688  1.00  0.00     0.165 C
HETATM    2  N1  UNL     1     -42.955 -17.981   3.756  1.00  0.00    -0.230 N
ATOM      3  H1  UNL     1     -42.096 -18.514   3.614  1.00  0.00     0.177 HD
HETATM    4  C2  UNL     1     -43.209 -17.330   4.994  1.00  0.00     0.687 C
HETATM    5  N2  UNL     1     -43.385 -18.027   6.061  1.00  0.00    -0.234 N
ATOM      6  H21 UNL     1     -43.567 -17.559   6.949  1.00  0.00     0.174 HD
ATOM      7  H22 UNL     1     -43.353 -19.046   6.076  1.00  0.00     0.174 HD
HETATM    8  N3  UNL     1     -43.253 -15.916   4.972  1.00  0.00    -0.111 N
ATOM      9  H3  UNL     1     -44.136 -15.439   4.793  1.00  0.00     0.208 HD
HETATM   10  N4  UNL     1     -42.207 -15.244   5.173  1.00  0.00    -0.182 N
ENDROOT
BRANCH  10  11
HETATM   11  O1  UNL     1     -42.340 -13.870   5.133  1.00  0.00    -0.271 OA
ATOM     12  H1  UNL     1     -43.210 -13.523   5.290  1.00  0.00     0.246 HD
ENDBRANCH  10  11
BRANCH  10  13
HETATM   13  C3  UNL     1     -40.965 -15.902   5.425  1.00  0.00     0.134 C
HETATM   14  C4  UNL     1     -40.273 -15.169   6.549  1.00  0.00     0.029 C
HETATM   15  C5  UNL     1     -38.769 -15.174   6.411  1.00  0.00     0.002 C
HETATM   16  C6  UNL     1     -38.310 -14.492   5.146  1.00  0.00     0.000 C
HETATM   17  C7  UNL     1     -39.326 -14.610   4.034  1.00  0.00     0.002 C
HETATM   18  C8  UNL     1     -40.051 -15.906   4.217  1.00  0.00     0.029 C
ENDBRANCH  10  13
TORSDOF 2
ENDMDL