MODEL 5
REMARK VINA RESULT: -5.408794767      3.489      5.067
REMARK  4 active torsions:
REMARK  status: ('A' for Active; 'I' for Inactive)
REMARK    1  A    between atoms: C2_2  and  C4_4
REMARK    2  A    between atoms: C7_7  and  O1_9
REMARK    3  A    between atoms: C9_11  and  C10_12
REMARK    4  A    between atoms: C10_12  and  N1_13
ROOT
HETATM    1  C4  UNL     1     -39.046 -15.241   5.159  1.00  0.00    -0.011 C
HETATM    2  C5  UNL     1     -39.544 -14.611   3.859  1.00  0.00     0.008 C
HETATM    3  C6  UNL     1     -40.567 -15.604   3.310  1.00  0.00     0.038 C
HETATM    4  C7  UNL     1     -41.683 -15.851   4.250  1.00  0.00     0.059 C
HETATM    5  C8  UNL     1     -42.946 -15.224   3.656  1.00  0.00     0.046 C
HETATM    6  C9  UNL     1     -41.512 -15.314   5.622  1.00  0.00     0.045 C
HETATM    7  C11 UNL     1     -40.123 -15.375   6.166  1.00  0.00     0.014 C
ENDROOT
BRANCH   6   8
HETATM    8  C10 UNL     1     -42.420 -16.131   6.537  1.00  0.00     0.237 C
BRANCH   8   9
HETATM    9  N1  UNL     1     -43.585 -15.371   6.936  1.00  0.00    -0.079 N
ATOM     10  H13 UNL     1     -43.781 -14.615   6.280  1.00  0.00     0.274 HD
ATOM     11  H12 UNL     1     -44.443 -15.911   6.815  1.00  0.00     0.274 HD
ATOM     12  H11 UNL     1     -43.492 -15.023   7.890  1.00  0.00     0.274 HD
ENDBRANCH   8   9
ENDBRANCH   6   8
BRANCH   4  13
HETATM   13  O1  UNL     1     -41.926 -17.240   4.328  1.00  0.00    -0.390 OA
ATOM     14  H1  UNL     1     -41.698 -17.549   5.197  1.00  0.00     0.210 HD
ENDBRANCH   4  13
BRANCH   1  15
HETATM   15  C2  UNL     1     -37.840 -14.480   5.629  1.00  0.00    -0.019 C
HETATM   16  C1  UNL     1     -38.185 -13.249   6.413  1.00  0.00     0.010 C
HETATM   17  C3  UNL     1     -36.865 -15.378   6.343  1.00  0.00     0.010 C
ENDBRANCH   1  15
TORSDOF 4
ENDMDL