MODEL 1
REMARK VINA RESULT: -5.089144864      0.000      0.000
REMARK  3 active torsions:
REMARK  status: ('A' for Active; 'I' for Inactive)
REMARK    1  A    between atoms: C2_2  and  C3_3
REMARK    2  A    between atoms: C9_9  and  N1_10
REMARK    3  A    between atoms: C11_15  and  N2_16
ROOT
HETATM    1  C3  UNL     1     -42.053 -15.091   5.555  1.00  0.00     0.022 C
HETATM    2  C4  UNL     1     -40.765 -15.902   5.715  1.00  0.00    -0.006 C
HETATM    3  C5  UNL     1     -39.841 -15.220   6.665  1.00  0.00     0.009 C
HETATM    4  C6  UNL     1     -38.922 -14.218   6.011  1.00  0.00    -0.016 C
HETATM    5  C7  UNL     1     -37.577 -14.804   5.658  1.00  0.00     0.010 C
HETATM    6  C8  UNL     1     -39.544 -13.521   4.849  1.00  0.00     0.045 C
HETATM    7  C9  UNL     1     -40.393 -14.391   3.981  1.00  0.00     0.152 C
HETATM    8  C10 UNL     1     -40.255 -15.863   4.279  1.00  0.00     0.046 C
HETATM    9  C11 UNL     1     -41.849 -14.164   4.412  1.00  0.00     0.223 C
ENDROOT
BRANCH   7  10
HETATM   10  N1  UNL     1     -40.173 -14.054   2.614  1.00  0.00    -0.068 N
ATOM     11  H13 UNL     1     -40.506 -13.116   2.389  1.00  0.00     0.275 HD
ATOM     12  H12 UNL     1     -39.186 -13.912   2.406  1.00  0.00     0.275 HD
ATOM     13  H11 UNL     1     -40.595 -14.767   2.018  1.00  0.00     0.275 HD
ENDBRANCH   7  10
BRANCH   9  14
HETATM   14  N2  UNL     1     -42.671 -14.415   3.275  1.00  0.00    -0.072 N
ATOM     15  H23 UNL     1     -43.324 -15.174   3.474  1.00  0.00     0.274 HD
ATOM     16  H22 UNL     1     -43.327 -13.646   3.138  1.00  0.00     0.274 HD
ATOM     17  H21 UNL     1     -42.167 -14.604   2.409  1.00  0.00     0.274 HD
ENDBRANCH   9  14
BRANCH   1  18
HETATM   18  C2  UNL     1     -43.146 -16.106   5.330  1.00  0.00     0.002 C
HETATM   19  C1  UNL     1     -42.919 -17.395   6.057  1.00  0.00     0.005 C
ENDBRANCH   1  18
TORSDOF 3
ENDMDL