MODEL 1
REMARK VINA RESULT: -7.089217693      0.000      0.000
REMARK  6 active torsions:
REMARK  status: ('A' for Active; 'I' for Inactive)
REMARK    1  A    between atoms: O1_2  and  C2_3
REMARK    2  A    between atoms: C5_6  and  C6_7
REMARK    3  A    between atoms: C6_7  and  N1_9
REMARK    4  A    between atoms: C6_7  and  C9_13
REMARK    5  A    between atoms: C12_16  and  C13_17
REMARK    6  A    between atoms: C17_26  and  O3_27
ROOT
HETATM    1  N1  UNL     1      -3.101   4.184   4.623  1.00  0.00    -0.309 N
ATOM      2  H1  UNL     1      -3.395   3.400   5.206  1.00  0.00     0.173 HD
HETATM    3  C8  UNL     1      -4.017   4.735   3.700  1.00  0.00     0.178 C
HETATM    4  N2  UNL     1      -4.756   5.185   2.929  1.00  0.00    -0.172 NA
ENDROOT
BRANCH   1   5
HETATM    5  C6  UNL     1      -1.756   4.700   4.764  1.00  0.00     0.112 C
HETATM    6  C7  UNL     1      -1.867   6.155   5.156  1.00  0.00     0.052 C
BRANCH   5   7
HETATM    7  C5  UNL     1      -1.058   4.639   3.450  1.00  0.00    -0.021 A
HETATM    8  C4  UNL     1      -0.877   3.427   2.825  1.00  0.00     0.013 A
HETATM    9  C3  UNL     1      -0.221   3.381   1.629  1.00  0.00     0.040 A
HETATM   10  C2  UNL     1       0.256   4.527   1.052  1.00  0.00     0.101 A
HETATM   11  C17 UNL     1       0.105   5.770   1.633  1.00  0.00     0.102 A
HETATM   12  C16 UNL     1      -0.572   5.774   2.857  1.00  0.00     0.049 A
BRANCH  10  13
HETATM   13  O1  UNL     1       0.934   4.526  -0.172  1.00  0.00    -0.353 OA
HETATM   14  C1  UNL     1       2.110   3.808  -0.405  1.00  0.00     0.210 C
ENDBRANCH  10  13
BRANCH  11  15
HETATM   15  O3  UNL     1       0.595   6.922   1.034  1.00  0.00    -0.353 OA
HETATM   16  C18 UNL     1       0.092   8.155   1.515  1.00  0.00     0.210 C
ENDBRANCH  11  15
ENDBRANCH   5   7
BRANCH   5  17
HETATM   17  C9  UNL     1      -1.091   3.866   5.802  1.00  0.00     0.087 A
HETATM   18  C10 UNL     1      -1.729   3.026   6.687  1.00  0.00     0.038 A
HETATM   19  C11 UNL     1      -0.712   2.478   7.441  1.00  0.00     0.041 A
HETATM   20  C12 UNL     1       0.487   3.005   6.984  1.00  0.00     0.088 A
HETATM   21  O2  UNL     1       0.190   3.825   6.007  1.00  0.00    -0.311 OA
BRANCH  20  22
HETATM   22  C13 UNL     1       1.803   2.689   7.509  1.00  0.00     0.032 A
HETATM   23  C14 UNL     1       2.386   1.456   7.677  1.00  0.00     0.122 A
HETATM   24  N3  UNL     1       3.621   1.655   8.200  1.00  0.00    -0.311 N
HETATM   25  N4  UNL     1       3.847   2.926   8.367  1.00  0.00    -0.311 N
ATOM     26  H3  UNL     1       4.281   0.913   8.430  1.00  0.00     0.186 HD
HETATM   27  C15 UNL     1       2.743   3.595   7.950  1.00  0.00     0.122 A
ATOM     28  H4  UNL     1       4.698   3.342   8.744  1.00  0.00     0.186 HD
ENDBRANCH  20  22
ENDBRANCH   5  17
ENDBRANCH   1   5
TORSDOF 6
ENDMDL