MODEL 3
REMARK VINA RESULT: -6.830894435      1.141      1.939
REMARK  8 active torsions:
REMARK  status: ('A' for Active; 'I' for Inactive)
REMARK    1  A    between atoms: N1_1  and  C1_5
REMARK    2  A    between atoms: C5_9  and  C6_10
REMARK    3  A    between atoms: C6_10  and  O1_11
REMARK    4  A    between atoms: O1_11  and  N2_12
REMARK    5  A    between atoms: N2_12  and  O2_13
REMARK    6  A    between atoms: N2_12  and  C7_15
REMARK    7  A    between atoms: C10_18  and  O3_19
REMARK    8  A    between atoms: O3_19  and  C11_20
ROOT
HETATM    1  N2  UNL     1      -4.467   1.890   9.065  1.00  0.00    -0.127 N
ENDROOT
BRANCH   1   2
HETATM    2  O1  UNL     1      -5.441   1.037   8.610  1.00  0.00    -0.250 OA
BRANCH   2   3
HETATM    3  C6  UNL     1      -6.666   1.538   8.177  1.00  0.00     0.245 C
BRANCH   3   4
HETATM    4  C5  UNL     1      -7.002   1.338   6.781  1.00  0.00     0.179 C
HETATM    5  C1  UNL     1      -8.451   1.317   6.360  1.00  0.00     0.252 C
HETATM    6  C2  UNL     1      -7.841   0.506   5.208  1.00  0.00     0.220 C
HETATM    7  C3  UNL     1      -6.989   1.516   4.485  1.00  0.00     0.038 C
HETATM    8  N3  UNL     1      -6.911   0.002   6.218  1.00  0.00    -0.056 N
HETATM    9  C4  UNL     1      -6.373   2.196   5.729  1.00  0.00     0.045 C
ATOM     10  H32 UNL     1      -7.105  -0.836   6.767  1.00  0.00     0.278 HD
ATOM     11  H31 UNL     1      -6.018  -0.425   5.971  1.00  0.00     0.278 HD
BRANCH   5  12
HETATM   12  N1  UNL     1      -8.948   2.567   5.820  1.00  0.00    -0.070 N
ATOM     13  H13 UNL     1      -8.618   3.380   6.340  1.00  0.00     0.274 HD
ATOM     14  H12 UNL     1      -8.530   2.801   4.920  1.00  0.00     0.274 HD
ATOM     15  H11 UNL     1      -9.966   2.515   5.778  1.00  0.00     0.274 HD
ENDBRANCH   5  12
ENDBRANCH   3   4
ENDBRANCH   2   3
ENDBRANCH   1   2
BRANCH   1  16
HETATM   16  O2  UNL     1      -4.675   2.430  10.169  1.00  0.00    -0.263 OA
ATOM     17  H2  UNL     1      -4.696   3.380  10.178  1.00  0.00     0.247 HD
ENDBRANCH   1  16
BRANCH   1  18
HETATM   18  C7  UNL     1      -3.280   2.171   8.355  1.00  0.00     0.088 A
HETATM   19  C8  UNL     1      -3.199   3.159   7.398  1.00  0.00     0.037 A
HETATM   20  C9  UNL     1      -2.030   3.427   6.706  1.00  0.00     0.039 A
HETATM   21  C10 UNL     1      -0.904   2.671   6.989  1.00  0.00     0.076 A
HETATM   22  C17 UNL     1      -0.946   1.677   7.938  1.00  0.00     0.039 A
HETATM   23  C18 UNL     1      -2.136   1.446   8.604  1.00  0.00     0.037 A
BRANCH  21  24
HETATM   24  O3  UNL     1       0.289   2.896   6.329  1.00  0.00    -0.311 OA
BRANCH  24  25
HETATM   25  C11 UNL     1       1.463   2.875   7.089  1.00  0.00     0.076 A
HETATM   26  C12 UNL     1       2.037   1.691   7.510  1.00  0.00     0.037 A
HETATM   27  C13 UNL     1       3.203   1.668   8.266  1.00  0.00     0.003 A
HETATM   28  C14 UNL     1       3.827   2.841   8.620  1.00  0.00     0.000 A
HETATM   29  C15 UNL     1       3.259   4.028   8.202  1.00  0.00     0.003 A
HETATM   30  C16 UNL     1       2.095   4.047   7.448  1.00  0.00     0.037 A
ENDBRANCH  24  25
ENDBRANCH  21  24
ENDBRANCH   1  18
TORSDOF 8
ENDMDL