MODEL 4
REMARK VINA RESULT: -6.463004918      0.737      1.587
REMARK  7 active torsions:
REMARK  status: ('A' for Active; 'I' for Inactive)
REMARK    1  A    between atoms: C2_2  and  C3_3
REMARK    2  A    between atoms: C3_3  and  C4_4
REMARK    3  A    between atoms: C3_3  and  N1_6
REMARK    4  A    between atoms: N1_6  and  C6_8
REMARK    5  A    between atoms: C7_11  and  N3_12
REMARK    6  A    between atoms: N3_12  and  C8_14
REMARK    7  A    between atoms: C14_22  and  N5_23
ROOT
HETATM    1  C6  UNL     1       0.390   3.229   6.377  1.00  0.00     0.707 A
HETATM    2  N2  UNL     1       0.177   3.894   5.242  1.00  0.00    -0.021 N
ATOM      3  H2  UNL     1       0.959   4.157   4.643  1.00  0.00     0.203 HD
HETATM    4  C7  UNL     1      -1.080   4.211   4.900  1.00  0.00     0.707 A
HETATM    5  N4  UNL     1      -2.139   3.886   5.654  1.00  0.00    -0.021 N
ATOM      6  H4  UNL     1      -3.087   4.138   5.375  1.00  0.00     0.203 HD
HETATM    7  C14 UNL     1      -1.900   3.215   6.797  1.00  0.00     0.709 A
HETATM    8  N6  UNL     1      -0.635   2.891   7.149  1.00  0.00    -0.021 N
ATOM      9  H6  UNL     1      -0.467   2.381   8.016  1.00  0.00     0.203 HD
ENDROOT
BRANCH   4  10
HETATM   10  N3  UNL     1      -1.287   4.915   3.694  1.00  0.00    -0.220 N
ATOM     11  H3  UNL     1      -2.224   5.263   3.489  1.00  0.00     0.178 HD
BRANCH  10  12
HETATM   12  C8  UNL     1      -0.232   5.167   2.735  1.00  0.00     0.099 C
HETATM   13  C9  UNL     1      -0.126   6.640   2.445  1.00  0.00     0.026 C
HETATM   14  C10 UNL     1      -0.355   6.941   0.978  1.00  0.00     0.002 C
HETATM   15  C11 UNL     1       0.570   6.159   0.107  1.00  0.00     0.000 C
HETATM   16  C12 UNL     1       0.394   4.701   0.354  1.00  0.00     0.002 C
HETATM   17  C13 UNL     1      -0.526   4.362   1.497  1.00  0.00     0.026 C
ENDBRANCH  10  12
ENDBRANCH   4  10
BRANCH   1  18
HETATM   18  N1  UNL     1       1.583   2.919   6.716  1.00  0.00    -0.221 N
ATOM     19  H1  UNL     1       2.103   2.255   6.142  1.00  0.00     0.178 HD
BRANCH  18  20
HETATM   20  C3  UNL     1       2.220   3.480   7.892  1.00  0.00     0.098 C
BRANCH  20  21
HETATM   21  C2  UNL     1       2.746   2.322   8.710  1.00  0.00     0.021 C
HETATM   22  C1  UNL     1       2.683   1.076   7.843  1.00  0.00     0.007 C
ENDBRANCH  20  21
BRANCH  20  23
HETATM   23  C4  UNL     1       3.401   4.320   7.454  1.00  0.00     0.021 C
HETATM   24  C5  UNL     1       3.017   5.348   6.426  1.00  0.00     0.007 C
ENDBRANCH  20  23
ENDBRANCH  18  20
ENDBRANCH   1  18
BRANCH   7  25
HETATM   25  N5  UNL     1      -3.016   2.870   7.597  1.00  0.00    -0.217 N
HETATM   26  C15 UNL     1      -3.046   1.789   8.540  1.00  0.00     0.141 C
HETATM   27  C16 UNL     1      -4.445   1.705   9.067  1.00  0.00     0.022 C
HETATM   28  C17 UNL     1      -5.022   3.072   8.833  1.00  0.00     0.022 C
HETATM   29  C18 UNL     1      -4.295   3.543   7.592  1.00  0.00     0.141 C
ENDBRANCH   7  25
TORSDOF 7
ENDMDL