MODEL 1
REMARK VINA RESULT: -6.019533806      0.000      0.000
REMARK  10 active torsions:
REMARK  status: ('A' for Active; 'I' for Inactive)
REMARK    1  A    between atoms: C2_2  and  N1_4
REMARK    2  A    between atoms: C4_5  and  O1_6
REMARK    3  A    between atoms: C6_9  and  C7_10
REMARK    4  A    between atoms: C7_10  and  C8_11
REMARK    5  A    between atoms: C7_10  and  N3_15
REMARK    6  A    between atoms: C8_11  and  N2_12
REMARK    7  A    between atoms: C13_18  and  N4_19
REMARK    8  A    between atoms: N4_19  and  N5_21
REMARK    9  A    between atoms: N5_21  and  N6_22
REMARK   10  A    between atoms: C16_27  and  O2_28
ROOT
HETATM    1  C7  UNL     1      -0.194   5.090   4.621  1.00  0.00     0.288 C
ENDROOT
BRANCH   1   2
HETATM    2  C6  UNL     1       0.888   4.642   5.523  1.00  0.00     0.032 A
HETATM    3  C5  UNL     1       2.110   5.201   5.753  1.00  0.00     0.070 A
HETATM    4  C4  UNL     1       2.716   4.530   6.832  1.00  0.00     0.145 A
HETATM    5  N1  UNL     1       1.854   3.597   7.212  1.00  0.00    -0.304 N
HETATM    6  C16 UNL     1       0.736   3.601   6.478  1.00  0.00     0.153 A
BRANCH   4   7
HETATM    7  O1  UNL     1       3.985   4.879   7.328  1.00  0.00    -0.346 OA
ATOM      8  H1  UNL     1       4.300   5.675   7.739  1.00  0.00     0.219 HD
ENDBRANCH   4   7
BRANCH   5   9
HETATM    9  C2  UNL     1       2.085   2.620   8.271  1.00  0.00     0.086 C
HETATM   10  C1  UNL     1       2.507   1.291   7.617  1.00  0.00     0.032 C
HETATM   11  C3  UNL     1       3.173   2.968   9.224  1.00  0.00     0.032 C
ENDBRANCH   5   9
BRANCH   6  12
HETATM   12  O2  UNL     1      -0.391   2.802   6.554  1.00  0.00    -0.345 OA
ATOM     13  H2  UNL     1      -1.114   2.812   7.170  1.00  0.00     0.219 HD
ENDBRANCH   6  12
ENDBRANCH   1   2
BRANCH   1  14
HETATM   14  C8  UNL     1       0.226   5.357   3.178  1.00  0.00     0.312 C
BRANCH  14  15
HETATM   15  N2  UNL     1       0.097   4.152   2.397  1.00  0.00     0.082 N
HETATM   16  C9  UNL     1       0.257   4.429   0.970  1.00  0.00     0.309 C
HETATM   17  C10 UNL     1      -1.168   3.515   2.606  1.00  0.00     0.309 C
ENDBRANCH  14  15
ENDBRANCH   1  14
BRANCH   1  18
HETATM   18  N3  UNL     1      -0.700   6.384   5.120  1.00  0.00     0.099 N
HETATM   19  C11 UNL     1      -0.035   7.503   4.481  1.00  0.00     0.275 C
HETATM   20  C12 UNL     1      -0.220   8.748   5.261  1.00  0.00     0.058 C
HETATM   21  C13 UNL     1      -1.480   8.905   6.012  1.00  0.00     0.117 C
HETATM   22  C14 UNL     1      -2.337   7.712   6.146  1.00  0.00     0.058 C
HETATM   23  C15 UNL     1      -2.079   6.608   5.114  1.00  0.00     0.275 C
BRANCH  21  24
HETATM   24  N4  UNL     1      -1.128   9.407   7.327  1.00  0.00    -0.248 N
ATOM     25  H4  UNL     1      -1.733   9.162   8.111  1.00  0.00     0.197 HD
BRANCH  24  26
HETATM   26  N5  UNL     1      -0.152  10.104   7.553  1.00  0.00    -0.248 NA
BRANCH  26  27
HETATM   27  N6  UNL     1       0.705  10.787   8.086  1.00  0.00    -0.261 N
ATOM     28  H62 UNL     1       0.149  11.640   8.034  1.00  0.00     0.193 HD
ATOM     29  H61 UNL     1       1.557  11.118   8.537  1.00  0.00     0.193 HD
ENDBRANCH  26  27
ENDBRANCH  24  26
ENDBRANCH  21  24
ENDBRANCH   1  18
TORSDOF 10
ENDMDL