MODEL 4
REMARK VINA RESULT: -7.182503835      1.204      1.328
REMARK  6 active torsions:
REMARK  status: ('A' for Active; 'I' for Inactive)
REMARK       I    between atoms: C2_4  and  N2_5
REMARK       I    between atoms: C2_4  and  N4_11
REMARK    1  A    between atoms: N2_5  and  C3_7
REMARK    2  A    between atoms: C3_7  and  C4_8
REMARK    3  A    between atoms: N4_11  and  N5_13
REMARK    4  A    between atoms: C6_15  and  C7_16
REMARK    5  A    between atoms: C10_19  and  C11_20
REMARK    6  A    between atoms: C14_23  and  N6_24
ROOT
HETATM    1  C4  UNL     1      -1.160   4.690   3.309  1.00  0.00     0.144 C
HETATM    2  C5  UNL     1      -0.664   3.499   2.603  1.00  0.00     0.060 C
HETATM    3  N3  UNL     1      -0.295   2.560   2.039  1.00  0.00    -0.197 NA
ENDROOT
BRANCH   1   4
HETATM    4  C3  UNL     1      -2.478   4.371   3.997  1.00  0.00     0.152 C
BRANCH   4   5
HETATM    5  N2  UNL     1      -3.551   5.197   3.555  1.00  0.00    -0.224 N
HETATM    6  C2  UNL     1      -4.253   6.087   4.382  1.00  0.00     0.688 C
HETATM    7  N1  UNL     1      -4.583   7.273   3.984  1.00  0.00    -0.229 N
HETATM    8  N4  UNL     1      -4.674   5.788   5.729  1.00  0.00    -0.133 N
HETATM    9  C1  UNL     1      -4.287   7.814   2.694  1.00  0.00     0.165 C
ATOM     10  H1  UNL     1      -5.093   7.866   4.639  1.00  0.00     0.177 HD
ATOM     11  H4  UNL     1      -4.156   6.153   6.529  1.00  0.00     0.205 HD
ATOM     12  H2  UNL     1      -3.827   5.137   2.575  1.00  0.00     0.177 HD
BRANCH   8  13
HETATM   13  N5  UNL     1      -5.771   5.015   5.914  1.00  0.00    -0.295 N
HETATM   14  C6  UNL     1      -6.004   3.936   6.507  1.00  0.00     0.144 C
ATOM     15  H5  UNL     1      -6.602   5.400   5.464  1.00  0.00     0.186 HD
BRANCH  14  16
HETATM   16  C7  UNL     1      -5.065   3.114   7.251  1.00  0.00     0.093 A
HETATM   17  C8  UNL     1      -5.275   2.195   8.246  1.00  0.00     0.041 A
HETATM   18  C9  UNL     1      -4.034   1.693   8.608  1.00  0.00     0.041 A
HETATM   19  C10 UNL     1      -3.135   2.330   7.817  1.00  0.00     0.086 A
HETATM   20  O3  UNL     1      -3.759   3.154   7.034  1.00  0.00    -0.309 OA
BRANCH  19  21
HETATM   21  C11 UNL     1      -1.680   2.137   7.824  1.00  0.00    -0.002 A
HETATM   22  C12 UNL     1      -1.080   1.198   8.621  1.00  0.00     0.017 A
HETATM   23  C13 UNL     1       0.277   1.003   8.640  1.00  0.00     0.037 A
HETATM   24  C14 UNL     1       1.072   1.784   7.823  1.00  0.00     0.102 A
HETATM   25  C15 UNL     1       0.500   2.727   7.018  1.00  0.00     0.037 A
HETATM   26  C16 UNL     1      -0.850   2.896   7.022  1.00  0.00     0.017 A
BRANCH  24  27
HETATM   27  N6  UNL     1       2.474   1.585   7.838  1.00  0.00    -0.116 N
HETATM   28  O1  UNL     1       2.985   0.496   7.516  1.00  0.00    -0.532 OA
HETATM   29  O2  UNL     1       3.284   2.624   8.219  1.00  0.00    -0.532 OA
ENDBRANCH  24  27
ENDBRANCH  19  21
ENDBRANCH  14  16
ENDBRANCH   8  13
ENDBRANCH   4   5
ENDBRANCH   1   4
TORSDOF 6
ENDMDL