MODEL 3
REMARK VINA RESULT: -6.243580014      1.657      2.093
REMARK  7 active torsions:
REMARK  status: ('A' for Active; 'I' for Inactive)
REMARK    1  A    between atoms: O1_2  and  C2_3
REMARK    2  A    between atoms: C5_6  and  N1_7
REMARK       I    between atoms: N1_7  and  C6_9
REMARK    3  A    between atoms: C6_9  and  C7_11
REMARK    4  A    between atoms: C7_11  and  S1_12
REMARK    5  A    between atoms: S1_12  and  C8_13
REMARK    6  A    between atoms: N3_18  and  N4_19
REMARK    7  A    between atoms: N4_19  and  C11_21
ROOT
HETATM    1  S1  UNL     1      -4.705   3.573   6.304  1.00  0.00    -0.083 SA
ENDROOT
BRANCH   1   2
HETATM    2  C7  UNL     1      -4.690   2.646   7.834  1.00  0.00     0.185 C
BRANCH   2   3
HETATM    3  C6  UNL     1      -3.276   2.303   8.177  1.00  0.00     0.231 C
HETATM    4  N1  UNL     1      -2.261   2.594   7.261  1.00  0.00    -0.327 N
ATOM      5  H1  UNL     1      -2.521   3.040   6.381  1.00  0.00     0.169 HD
HETATM    6  O2  UNL     1      -3.098   1.773   9.278  1.00  0.00    -0.272 OA
BRANCH   4   7
HETATM    7  C5  UNL     1      -0.905   2.306   7.483  1.00  0.00     0.034 A
HETATM    8  C4  UNL     1      -0.393   1.306   8.268  1.00  0.00     0.032 A
HETATM    9  C3  UNL     1       0.984   1.122   8.440  1.00  0.00     0.039 A
HETATM   10  C2  UNL     1       1.900   1.943   7.821  1.00  0.00     0.068 A
HETATM   11  C17 UNL     1       1.372   2.943   7.035  1.00  0.00     0.039 A
HETATM   12  C16 UNL     1       0.044   3.132   6.861  1.00  0.00     0.032 A
BRANCH  10  13
HETATM   13  O1  UNL     1       3.264   1.772   7.982  1.00  0.00    -0.356 OA
HETATM   14  C1  UNL     1       4.102   2.720   8.580  1.00  0.00     0.210 C
ENDBRANCH  10  13
ENDBRANCH   4   7
ENDBRANCH   2   3
ENDBRANCH   1   2
BRANCH   1  15
HETATM   15  C8  UNL     1      -4.465   5.342   6.617  1.00  0.00     0.165 A
HETATM   16  N2  UNL     1      -5.365   6.180   7.150  1.00  0.00    -0.344 N
HETATM   17  C9  UNL     1      -4.837   7.411   7.231  1.00  0.00     0.109 A
ATOM     18  H2  UNL     1      -6.306   5.922   7.447  1.00  0.00     0.167 HD
HETATM   19  C10 UNL     1      -3.566   7.330   6.730  1.00  0.00     0.135 A
HETATM   20  N3  UNL     1      -3.359   6.058   6.362  1.00  0.00    -0.248 N
BRANCH  20  21
HETATM   21  N4  UNL     1      -2.199   5.515   5.797  1.00  0.00    -0.323 N
ATOM     22  H4  UNL     1      -1.525   5.061   6.414  1.00  0.00     0.181 HD
BRANCH  21  23
HETATM   23  C11 UNL     1      -1.908   5.565   4.386  1.00  0.00     0.100 C
HETATM   24  C12 UNL     1      -0.640   6.260   4.036  1.00  0.00     0.026 C
HETATM   25  C13 UNL     1       0.302   5.108   3.662  1.00  0.00     0.002 C
HETATM   26  C14 UNL     1      -0.638   4.219   2.861  1.00  0.00     0.002 C
HETATM   27  C15 UNL     1      -1.843   4.174   3.794  1.00  0.00     0.026 C
ENDBRANCH  21  23
ENDBRANCH  20  21
ENDBRANCH   1  15
TORSDOF 7
ENDMDL