MODEL 3
REMARK VINA RESULT: -6.982675140      0.559      1.269
REMARK  6 active torsions:
REMARK  status: ('A' for Active; 'I' for Inactive)
REMARK    1  A    between atoms: C3_3  and  C4_4
REMARK    2  A    between atoms: C5_5  and  O1_6
REMARK    3  A    between atoms: O1_6  and  C6_7
REMARK    4  A    between atoms: C9_10  and  N1_11
REMARK    5  A    between atoms: N4_22  and  N5_24
REMARK    6  A    between atoms: N5_24  and  C14_26
ROOT
HETATM    1  C4  UNL     1      -1.731   4.856   3.681  1.00  0.00     0.060 A
HETATM    2  C5  UNL     1      -0.776   5.590   4.407  1.00  0.00     0.163 A
HETATM    3  N2  UNL     1      -1.162   6.698   5.062  1.00  0.00    -0.332 N
ATOM      4  H2  UNL     1      -0.466   7.226   5.588  1.00  0.00     0.168 HD
HETATM    5  C12 UNL     1      -2.429   7.134   5.048  1.00  0.00     0.184 A
HETATM    6  N3  UNL     1      -3.355   6.457   4.368  1.00  0.00    -0.337 N
ATOM      7  H3  UNL     1      -4.317   6.795   4.362  1.00  0.00     0.168 HD
HETATM    8  C13 UNL     1      -3.044   5.327   3.682  1.00  0.00     0.135 A
HETATM    9  N4  UNL     1      -3.986   4.705   3.080  1.00  0.00    -0.289 N
ATOM     10  H4  UNL     1      -3.786   3.839   2.582  1.00  0.00     0.188 HD
ENDROOT
BRANCH   2  11
HETATM   11  O1  UNL     1       0.574   5.223   4.478  1.00  0.00    -0.293 OA
BRANCH  11  12
HETATM   12  C6  UNL     1       1.182   4.669   5.569  1.00  0.00     0.078 A
HETATM   13  C7  UNL     1       0.684   3.594   6.222  1.00  0.00     0.040 A
HETATM   14  C8  UNL     1       1.372   3.088   7.329  1.00  0.00     0.039 A
HETATM   15  C9  UNL     1       2.542   3.681   7.743  1.00  0.00     0.103 A
HETATM   16  C10 UNL     1       3.027   4.772   7.064  1.00  0.00     0.039 A
HETATM   17  C11 UNL     1       2.374   5.283   5.982  1.00  0.00     0.040 A
BRANCH  15  18
HETATM   18  N1  UNL     1       3.281   3.203   8.866  1.00  0.00    -0.116 N
HETATM   19  O2  UNL     1       2.897   3.395  10.032  1.00  0.00    -0.532 OA
HETATM   20  O3  UNL     1       4.441   2.516   8.619  1.00  0.00    -0.532 OA
ENDBRANCH  15  18
ENDBRANCH  11  12
ENDBRANCH   2  11
BRANCH   1  21
HETATM   21  C3  UNL     1      -1.290   3.650   3.069  1.00  0.00     0.015 C
HETATM   22  C2  UNL     1      -0.569   3.231   2.098  1.00  0.00    -0.030 C
HETATM   23  C1  UNL     1       0.241   3.811   1.034  1.00  0.00     0.036 C
ENDBRANCH   1  21
BRANCH   9  24
HETATM   24  N5  UNL     1      -5.273   5.201   3.103  1.00  0.00    -0.331 N
ATOM     25  H5  UNL     1      -5.448   6.205   3.145  1.00  0.00     0.180 HD
BRANCH  24  26
HETATM   26  C14 UNL     1      -6.375   4.249   3.063  1.00  0.00     0.091 C
HETATM   27  C15 UNL     1      -7.117   4.417   1.772  1.00  0.00     0.033 C
HETATM   28  C16 UNL     1      -5.765   2.844   3.157  1.00  0.00     0.033 C
ENDBRANCH  24  26
ENDBRANCH   9  24
TORSDOF 6
ENDMDL