MODEL 1
REMARK VINA RESULT: -5.882204130      0.000      0.000
REMARK  7 active torsions:
REMARK  status: ('A' for Active; 'I' for Inactive)
REMARK    1  A    between atoms: O1_2  and  C2_3
REMARK    2  A    between atoms: C4_5  and  C5_6
REMARK    3  A    between atoms: N1_7  and  N2_9
REMARK    4  A    between atoms: N2_9  and  C6_11
REMARK    5  A    between atoms: C13_18  and  O2_19
REMARK    6  A    between atoms: C15_21  and  N3_22
REMARK    7  A    between atoms: C19_26  and  N4_27
ROOT
HETATM    1  C2  UNL     1      -4.665   1.855   8.594  1.00  0.00     0.098 A
HETATM    2  C3  UNL     1      -3.479   2.420   8.149  1.00  0.00     0.052 A
HETATM    3  C4  UNL     1      -3.481   3.235   7.052  1.00  0.00    -0.014 A
HETATM    4  C12 UNL     1      -4.665   3.490   6.396  1.00  0.00     0.052 A
HETATM    5  C13 UNL     1      -5.849   2.912   6.862  1.00  0.00     0.098 A
HETATM    6  C15 UNL     1      -5.890   2.082   7.967  1.00  0.00     0.099 A
ENDROOT
BRANCH   3   7
HETATM    7  C5  UNL     1      -2.210   3.825   6.597  1.00  0.00     0.118 C
HETATM    8  N1  UNL     1      -1.135   3.130   6.652  1.00  0.00    -0.311 N
ATOM      9  H1  UNL     1      -1.193   2.178   7.014  1.00  0.00     0.186 HD
BRANCH   8  10
HETATM   10  N2  UNL     1       0.106   3.603   6.246  1.00  0.00    -0.301 N
ATOM     11  H2  UNL     1       0.206   4.214   5.436  1.00  0.00     0.187 HD
BRANCH  10  12
HETATM   12  C6  UNL     1       1.235   3.191   7.019  1.00  0.00     0.048 A
HETATM   13  C7  UNL     1       2.187   4.105   7.419  1.00  0.00     0.031 A
HETATM   14  C8  UNL     1       3.284   3.730   8.168  1.00  0.00     0.002 A
HETATM   15  C9  UNL     1       3.390   2.390   8.505  1.00  0.00     0.000 A
HETATM   16  C10 UNL     1       2.439   1.470   8.108  1.00  0.00     0.002 A
HETATM   17  C11 UNL     1       1.350   1.847   7.362  1.00  0.00     0.031 A
ENDBRANCH  10  12
ENDBRANCH   8  10
ENDBRANCH   3   7
BRANCH   1  18
HETATM   18  O1  UNL     1      -4.625   1.038   9.705  1.00  0.00    -0.354 OA
HETATM   19  C1  UNL     1      -4.705   1.602  10.990  1.00  0.00     0.210 C
ENDBRANCH   1  18
BRANCH   5  20
HETATM   20  O2  UNL     1      -6.971   3.225   6.144  1.00  0.00    -0.354 OA
HETATM   21  C14 UNL     1      -7.359   2.591   4.945  1.00  0.00     0.210 C
ENDBRANCH   5  20
BRANCH   6  22
HETATM   22  N3  UNL     1      -7.111   1.497   8.423  1.00  0.00    -0.349 N
HETATM   23  C16 UNL     1      -7.985   2.140   9.383  1.00  0.00     0.125 C
HETATM   24  C17 UNL     1      -9.118   1.197   9.695  1.00  0.00     0.024 C
HETATM   25  C18 UNL     1      -9.121   0.293   8.505  1.00  0.00     0.056 C
HETATM   26  C19 UNL     1      -7.674   0.235   8.032  1.00  0.00     0.284 C
BRANCH  26  27
HETATM   27  N4  UNL     1      -7.033  -0.810   8.805  1.00  0.00    -0.058 N
ATOM     28  H43 UNL     1      -6.541  -0.448   9.621  1.00  0.00     0.276 HD
ATOM     29  H42 UNL     1      -7.703  -1.401   9.297  1.00  0.00     0.276 HD
ATOM     30  H41 UNL     1      -6.425  -1.343   8.183  1.00  0.00     0.276 HD
ENDBRANCH  26  27
ENDBRANCH   6  22
TORSDOF 7
ENDMDL