MODEL 4
REMARK VINA RESULT: -6.739816944      0.706      1.824
REMARK  7 active torsions:
REMARK  status: ('A' for Active; 'I' for Inactive)
REMARK    1  A    between atoms: C2_2  and  C3_3
REMARK    2  A    between atoms: C3_3  and  O1_4
REMARK    3  A    between atoms: O1_4  and  C4_5
REMARK    4  A    between atoms: C7_8  and  C8_9
REMARK    5  A    between atoms: C9_12  and  C10_13
REMARK    6  A    between atoms: C13_16  and  O3_17
REMARK    7  A    between atoms: C14_19  and  O4_20
ROOT
HETATM    1  C8  UNL     1      -4.477   2.201   8.532  1.00  0.00     0.278 C
HETATM    2  N1  UNL     1      -5.466   2.438   7.497  1.00  0.00    -0.060 NA
HETATM    3  O2  UNL     1      -6.589   1.978   8.094  1.00  0.00    -0.246 OA
HETATM    4  C9  UNL     1      -6.213   1.015   9.007  1.00  0.00     0.320 C
HETATM    5  O5  UNL     1      -4.827   0.925   8.959  1.00  0.00    -0.328 OA
ENDROOT
BRANCH   1   6
HETATM    6  C7  UNL     1      -3.098   2.316   8.063  1.00  0.00    -0.011 A
HETATM    7  C6  UNL     1      -2.146   1.464   8.566  1.00  0.00     0.014 A
HETATM    8  C5  UNL     1      -0.816   1.524   8.159  1.00  0.00     0.037 A
HETATM    9  C4  UNL     1      -0.439   2.478   7.210  1.00  0.00     0.069 A
HETATM   10  C18 UNL     1      -1.386   3.338   6.697  1.00  0.00     0.037 A
HETATM   11  C17 UNL     1      -2.693   3.245   7.129  1.00  0.00     0.014 A
BRANCH   9  12
HETATM   12  O1  UNL     1       0.891   2.510   6.827  1.00  0.00    -0.348 OA
BRANCH  12  13
HETATM   13  C3  UNL     1       1.900   3.144   7.560  1.00  0.00     0.202 C
BRANCH  13  14
HETATM   14  C2  UNL     1       2.752   2.119   8.199  1.00  0.00    -0.011 C
HETATM   15  C1  UNL     1       2.721   0.875   7.757  1.00  0.00     0.009 C
ENDBRANCH  13  14
ENDBRANCH  12  13
ENDBRANCH   9  12
ENDBRANCH   1   6
BRANCH   4  16
HETATM   16  C10 UNL     1      -6.858  -0.269   8.608  1.00  0.00     0.001 A
HETATM   17  C11 UNL     1      -6.884  -0.651   7.283  1.00  0.00     0.015 A
HETATM   18  C12 UNL     1      -7.463  -1.822   6.857  1.00  0.00     0.040 A
HETATM   19  C13 UNL     1      -8.050  -2.656   7.807  1.00  0.00     0.099 A
HETATM   20  C14 UNL     1      -8.046  -2.309   9.143  1.00  0.00     0.102 A
HETATM   21  C16 UNL     1      -7.450  -1.121   9.524  1.00  0.00     0.051 A
BRANCH  19  22
HETATM   22  O3  UNL     1      -8.647  -3.850   7.417  1.00  0.00    -0.358 OA
ATOM     23  H3  UNL     1      -9.589  -3.958   7.487  1.00  0.00     0.217 HD
ENDBRANCH  19  22
BRANCH  20  24
HETATM   24  O4  UNL     1      -8.645  -3.181  10.043  1.00  0.00    -0.353 OA
HETATM   25  C15 UNL     1      -7.793  -3.953  10.857  1.00  0.00     0.210 C
ENDBRANCH  20  24
ENDBRANCH   4  16
TORSDOF 7
ENDMDL