MODEL 2
REMARK VINA RESULT: -5.751657250      1.717      3.608
REMARK  7 active torsions:
REMARK  status: ('A' for Active; 'I' for Inactive)
REMARK    1  A    between atoms: C2_2  and  N1_3
REMARK    2  A    between atoms: N1_3  and  N2_5
REMARK    3  A    between atoms: N3_7  and  C4_9
REMARK    4  A    between atoms: C7_17  and  N7_18
REMARK    5  A    between atoms: N7_18  and  C8_20
REMARK    6  A    between atoms: C11_23  and  O1_24
REMARK    7  A    between atoms: O1_24  and  C12_25
ROOT
HETATM    1  C4  UNL     1      -6.173   1.190   7.581  1.00  0.00     0.135 A
HETATM    2  C5  UNL     1      -7.152   0.735   6.724  1.00  0.00     0.149 A
HETATM    3  N4  UNL     1      -7.882  -0.442   7.032  1.00  0.00    -0.080 NA
HETATM    4  N5  UNL     1      -7.434   1.392   5.580  1.00  0.00    -0.339 N
ATOM      5  H5  UNL     1      -8.164   1.033   4.965  1.00  0.00     0.167 HD
HETATM    6  C6  UNL     1      -6.774   2.508   5.235  1.00  0.00     0.183 A
HETATM    7  N6  UNL     1      -5.821   2.947   6.071  1.00  0.00    -0.337 N
ATOM      8  H6  UNL     1      -5.317   3.795   5.811  1.00  0.00     0.168 HD
HETATM    9  C7  UNL     1      -5.484   2.354   7.221  1.00  0.00     0.138 A
ENDROOT
BRANCH   9  10
HETATM   10  N7  UNL     1      -4.574   2.776   8.005  1.00  0.00    -0.340 N
ATOM     11  H7  UNL     1      -4.875   3.282   8.839  1.00  0.00     0.167 HD
BRANCH  10  12
HETATM   12  C8  UNL     1      -3.177   2.603   7.822  1.00  0.00     0.033 A
HETATM   13  C9  UNL     1      -2.489   1.617   8.492  1.00  0.00     0.032 A
HETATM   14  C10 UNL     1      -1.133   1.492   8.280  1.00  0.00     0.039 A
HETATM   15  C11 UNL     1      -0.402   2.293   7.436  1.00  0.00     0.069 A
HETATM   16  C15 UNL     1      -1.104   3.282   6.769  1.00  0.00     0.039 A
HETATM   17  C16 UNL     1      -2.464   3.436   6.956  1.00  0.00     0.032 A
BRANCH  15  18
HETATM   18  O1  UNL     1       0.954   2.188   7.209  1.00  0.00    -0.347 OA
BRANCH  18  19
HETATM   19  C12 UNL     1       1.954   1.969   8.151  1.00  0.00     0.120 C
HETATM   20  C13 UNL     1       2.843   0.815   7.729  1.00  0.00     0.040 C
HETATM   21  C14 UNL     1       2.761   3.257   8.258  1.00  0.00     0.040 C
ENDBRANCH  18  19
ENDBRANCH  15  18
ENDBRANCH  10  12
ENDBRANCH   9  10
BRANCH   1  22
HETATM   22  N3  UNL     1      -5.877   0.516   8.770  1.00  0.00    -0.280 N
HETATM   23  N2  UNL     1      -6.422   0.673   9.869  1.00  0.00    -0.245 N
ATOM     24  H2  UNL     1      -6.065   0.087  10.624  1.00  0.00     0.208 HD
ATOM     25  H3  UNL     1      -5.131  -0.178   8.726  1.00  0.00     0.189 HD
BRANCH  23  26
HETATM   26  N1  UNL     1      -7.445   1.527  10.217  1.00  0.00    -0.318 N
HETATM   27  C3  UNL     1      -8.817   1.036  10.174  1.00  0.00     0.172 C
BRANCH  26  28
HETATM   28  C2  UNL     1      -7.136   2.883  10.618  1.00  0.00     0.139 C
HETATM   29  C1  UNL     1      -5.872   2.944  11.436  1.00  0.00     0.028 C
ENDBRANCH  26  28
ENDBRANCH  23  26
ENDBRANCH   1  22
TORSDOF 7
ENDMDL