MODEL 4
REMARK VINA RESULT: -4.084080885      3.193      4.637
REMARK  4 active torsions:
REMARK  status: ('A' for Active; 'I' for Inactive)
REMARK    1  A    between atoms: N1_1  and  C1_5
REMARK    2  A    between atoms: C1_5  and  C2_6
REMARK    3  A    between atoms: C2_6  and  C3_7
REMARK    4  A    between atoms: C3_7  and  N2_8
ROOT
HETATM    1  C2  UNL     1      -0.355   4.898   1.724  1.00  0.00     0.016 C
HETATM    2  C8  UNL     1       0.866   4.415   1.128  1.00  0.00     0.027 C
HETATM    3  C9  UNL     1       1.131   4.482  -0.335  1.00  0.00     0.075 C
HETATM    4  S1  UNL     1      -0.449   4.663  -1.260  1.00  0.00    -0.169 SA
HETATM    5  C10 UNL     1      -1.063   6.164  -0.393  1.00  0.00     0.075 C
HETATM    6  C11 UNL     1      -1.316   5.756   1.028  1.00  0.00     0.027 C
ENDROOT
BRANCH   1   7
HETATM    7  C1  UNL     1      -1.207   3.660   2.149  1.00  0.00     0.244 C
BRANCH   7   8
HETATM    8  N1  UNL     1      -0.636   2.417   1.850  1.00  0.00    -0.078 N
ATOM      9  H13 UNL     1      -1.273   1.665   2.113  1.00  0.00     0.274 HD
ATOM     10  H12 UNL     1      -0.604   2.278   0.839  1.00  0.00     0.274 HD
ATOM     11  H11 UNL     1       0.285   2.255   2.256  1.00  0.00     0.274 HD
ENDBRANCH   7   8
ENDBRANCH   1   7
BRANCH   1  12
HETATM   12  C3  UNL     1      -0.035   5.515   3.074  1.00  0.00     0.069 C
BRANCH  12  13
HETATM   13  N2  UNL     1      -0.336   4.830   4.232  1.00  0.00    -0.389 N
HETATM   14  C4  UNL     1       0.560   4.049   4.965  1.00  0.00     0.148 C
HETATM   15  C5  UNL     1       0.089   3.798   6.401  1.00  0.00     0.187 C
HETATM   16  O1  UNL     1      -1.267   3.607   6.474  1.00  0.00    -0.388 OA
HETATM   17  C6  UNL     1      -2.033   4.568   5.874  1.00  0.00     0.187 C
HETATM   18  C7  UNL     1      -1.182   5.585   5.140  1.00  0.00     0.148 C
ENDBRANCH  12  13
ENDBRANCH   1  12
TORSDOF 4
ENDMDL