MODEL 2
REMARK VINA RESULT: -4.455069753      1.884      3.155
REMARK  4 active torsions:
REMARK  status: ('A' for Active; 'I' for Inactive)
REMARK    1  A    between atoms: C2_2  and  S1_3
REMARK    2  A    between atoms: S1_3  and  C3_4
REMARK    3  A    between atoms: N1_6  and  C5_7
REMARK    4  A    between atoms: C11_14  and  O2_15
ROOT
HETATM    1  C3  UNL     1       0.394   6.166   4.047  1.00  0.00     0.106 C
HETATM    2  C4  UNL     1       1.197   5.077   4.732  1.00  0.00     0.290 C
HETATM    3  N1  UNL     1       0.525   4.807   5.994  1.00  0.00     0.097 N
HETATM    4  C10 UNL     1      -0.865   4.874   5.639  1.00  0.00     0.305 C
HETATM    5  C11 UNL     1      -0.922   6.135   4.788  1.00  0.00     0.161 C
ENDROOT
BRANCH   3   6
HETATM    6  C5  UNL     1       0.961   3.513   6.435  1.00  0.00     0.227 C
HETATM    7  C6  UNL     1       2.122   3.739   7.396  1.00  0.00     0.062 C
HETATM    8  C7  UNL     1       2.725   2.433   7.837  1.00  0.00     0.169 C
HETATM    9  O1  UNL     1       1.766   1.419   7.971  1.00  0.00    -0.391 OA
HETATM   10  C8  UNL     1       0.524   1.946   8.276  1.00  0.00     0.169 C
HETATM   11  C9  UNL     1      -0.091   2.691   7.104  1.00  0.00     0.062 C
ENDBRANCH   3   6
BRANCH   1  12
HETATM   12  S1  UNL     1       0.227   5.771   2.299  1.00  0.00    -0.160 SA
BRANCH  12  13
HETATM   13  C2  UNL     1       0.366   4.020   1.937  1.00  0.00     0.070 C
HETATM   14  C1  UNL     1      -0.887   3.240   2.221  1.00  0.00     0.016 C
ENDBRANCH  12  13
ENDBRANCH   1  12
BRANCH   5  15
HETATM   15  O2  UNL     1      -2.022   6.153   3.955  1.00  0.00    -0.393 OA
ATOM     16  H2  UNL     1      -1.828   6.471   3.080  1.00  0.00     0.210 HD
ENDBRANCH   5  15
TORSDOF 4
ENDMDL