MODEL 1
REMARK VINA RESULT: -5.274522815      0.000      0.000
REMARK  4 active torsions:
REMARK  status: ('A' for Active; 'I' for Inactive)
REMARK    1  A    between atoms: C2_2  and  N1_5
REMARK    2  A    between atoms: C7_8  and  N2_9
REMARK    3  A    between atoms: N2_9  and  C8_11
REMARK    4  A    between atoms: C8_11  and  C9_12
ROOT
HETATM    1  N1  UNL     1       2.071   3.189   6.709  1.00  0.00     0.099 N
HETATM    2  C5  UNL     1       2.727   4.458   6.854  1.00  0.00     0.275 C
HETATM    3  C6  UNL     1       2.005   5.454   5.970  1.00  0.00     0.057 C
HETATM    4  C7  UNL     1       0.918   4.658   5.323  1.00  0.00     0.110 C
HETATM    5  C12 UNL     1       0.710   3.501   6.323  1.00  0.00     0.298 C
ENDROOT
BRANCH   4   6
HETATM    6  N2  UNL     1      -0.295   5.307   5.047  1.00  0.00    -0.392 N
ATOM      7  H2  UNL     1      -0.367   6.304   5.249  1.00  0.00     0.159 HD
BRANCH   6   8
HETATM    8  C8  UNL     1      -1.405   4.656   4.511  1.00  0.00     0.116 C
BRANCH   8   9
HETATM    9  C9  UNL     1      -1.388   4.319   3.041  1.00  0.00     0.299 C
HETATM   10  O1  UNL     1      -0.814   5.364   2.305  1.00  0.00    -0.354 OA
HETATM   11  C10 UNL     1       0.215   4.868   1.552  1.00  0.00     0.197 C
HETATM   12  C11 UNL     1       0.021   3.377   1.582  1.00  0.00     0.197 C
HETATM   13  O2  UNL     1      -0.633   3.198   2.793  1.00  0.00    -0.354 OA
ENDBRANCH   8   9
ENDBRANCH   6   8
ENDBRANCH   4   6
BRANCH   1  14
HETATM   14  C2  UNL     1       2.134   2.345   7.867  1.00  0.00     0.149 C
HETATM   15  C1  UNL     1       3.000   1.123   7.702  1.00  0.00     0.048 C
HETATM   16  C3  UNL     1       2.686   3.152   9.021  1.00  0.00     0.048 C
HETATM   17  C4  UNL     1       0.764   1.840   8.287  1.00  0.00     0.048 C
ENDBRANCH   1  14
TORSDOF 4
ENDMDL