MODEL 2
REMARK VINA RESULT: -4.482662879      1.057      1.458
REMARK  3 active torsions:
REMARK  status: ('A' for Active; 'I' for Inactive)
REMARK    1  A    between atoms: N2_6  and  C4_8
REMARK    2  A    between atoms: C4_8  and  C5_9
REMARK    3  A    between atoms: C5_9  and  N3_10
ROOT
HETATM    1  C1  UNL     1       3.374   2.621   8.290  1.00  0.00     0.030 C
HETATM    2  C2  UNL     1       2.939   3.967   7.882  1.00  0.00     0.122 C
HETATM    3  N1  UNL     1       2.096   4.093   6.746  1.00  0.00    -0.371 N
ATOM      4  H1  UNL     1       2.381   4.662   5.949  1.00  0.00     0.161 HD
HETATM    5  C3  UNL     1       0.856   3.414   6.742  1.00  0.00     0.136 C
HETATM    6  N2  UNL     1      -0.112   3.696   5.997  1.00  0.00    -0.369 N
ATOM      7  H2  UNL     1      -0.968   3.146   6.069  1.00  0.00     0.161 HD
HETATM    8  S2  UNL     1       0.769   2.058   7.938  1.00  0.00    -0.095 SA
HETATM    9  C9  UNL     1       2.508   1.463   7.972  1.00  0.00     0.084 C
ENDROOT
BRANCH   6  10
HETATM   10  C4  UNL     1      -0.051   4.783   5.033  1.00  0.00     0.152 C
BRANCH  10  11
HETATM   11  C5  UNL     1      -0.193   4.139   3.674  1.00  0.00     0.293 C
BRANCH  11  12
HETATM   12  N3  UNL     1       0.598   4.821   2.718  1.00  0.00     0.099 N
HETATM   13  C6  UNL     1       0.656   4.058   1.482  1.00  0.00     0.283 C
HETATM   14  C7  UNL     1      -0.727   4.076   0.865  1.00  0.00     0.105 C
HETATM   15  S1  UNL     1      -1.175   5.822   1.235  1.00  0.00    -0.138 SA
HETATM   16  C8  UNL     1       0.229   6.151   2.381  1.00  0.00     0.346 C
ENDBRANCH  11  12
ENDBRANCH  10  11
ENDBRANCH   6  10
TORSDOF 3
ENDMDL