MODEL 1
REMARK VINA RESULT: -5.214833772      0.000      0.000
REMARK  4 active torsions:
REMARK  status: ('A' for Active; 'I' for Inactive)
REMARK    1  A    between atoms: C2_2  and  C3_3
REMARK    2  A    between atoms: C3_3  and  O1_4
REMARK    3  A    between atoms: C7_13  and  C9_15
REMARK    4  A    between atoms: C9_15  and  C10_16
ROOT
HETATM    1  C10 UNL     1       2.088   4.620   6.721  1.00  0.00     0.202 C
HETATM    2  C11 UNL     1       3.483   4.741   7.061  1.00  0.00     0.078 C
HETATM    3  N2  UNL     1       4.613   4.816   7.365  1.00  0.00    -0.196 NA
HETATM    4  C12 UNL     1       1.634   3.245   7.091  1.00  0.00     0.078 C
HETATM    5  N3  UNL     1       1.300   2.169   7.371  1.00  0.00    -0.196 NA
ENDROOT
BRANCH   1   6
HETATM    6  C9  UNL     1       1.774   4.782   5.293  1.00  0.00     0.078 C
BRANCH   6   7
HETATM    7  C7  UNL     1       0.573   5.529   4.873  1.00  0.00     0.183 C
HETATM    8  C3  UNL     1      -0.648   4.686   4.728  1.00  0.00     0.197 C
HETATM    9  O2  UNL     1      -1.450   5.593   3.937  1.00  0.00    -0.315 OA
HETATM   10  C4  UNL     1      -0.583   5.920   2.920  1.00  0.00     0.222 C
HETATM   11  C5  UNL     1      -0.889   7.268   2.303  1.00  0.00     0.078 C
HETATM   12  C6  UNL     1      -0.714   4.906   1.804  1.00  0.00     0.078 C
HETATM   13  N1  UNL     1       0.739   5.983   3.486  1.00  0.00    -0.030 N
ATOM     14  H12 UNL     1       1.441   5.462   2.960  1.00  0.00     0.281 HD
ATOM     15  H11 UNL     1       1.186   6.896   3.399  1.00  0.00     0.281 HD
HETATM   16  C8  UNL     1       0.301   6.784   5.663  1.00  0.00     0.052 C
BRANCH   8  17
HETATM   17  C2  UNL     1      -1.410   4.326   5.944  1.00  0.00     0.066 C
HETATM   18  C1  UNL     1      -2.899   4.360   5.843  1.00  0.00     0.010 C
ENDBRANCH   8  17
BRANCH   8  19
HETATM   19  O1  UNL     1      -0.362   3.576   3.945  1.00  0.00    -0.363 OA
ATOM     20  H1  UNL     1      -0.766   3.631   3.087  1.00  0.00     0.213 HD
ENDBRANCH   8  19
ENDBRANCH   6   7
ENDBRANCH   1   6
TORSDOF 4
ENDMDL