MODEL 5
REMARK VINA RESULT: -5.266040572      1.146      1.728
REMARK  5 active torsions:
REMARK  status: ('A' for Active; 'I' for Inactive)
REMARK    1  A    between atoms: C2_2  and  C3_3
REMARK    2  A    between atoms: C3_3  and  C4_4
REMARK    3  A    between atoms: C5_5  and  C6_6
REMARK    4  A    between atoms: C8_10  and  C9_11
REMARK    5  A    between atoms: C13_16  and  O4_17
ROOT
HETATM    1  C6  UNL     1       0.200   4.431   5.044  1.00  0.00     0.234 C
HETATM    2  O1  UNL     1      -0.063   3.672   3.901  1.00  0.00    -0.338 OA
HETATM    3  C7  UNL     1      -0.868   4.489   3.101  1.00  0.00     0.293 C
HETATM    4  O2  UNL     1      -0.060   5.228   2.288  1.00  0.00    -0.351 OA
HETATM    5  C8  UNL     1      -0.706   6.367   1.836  1.00  0.00     0.148 C
HETATM    6  C11 UNL     1      -1.011   7.193   3.068  1.00  0.00     0.200 C
HETATM    7  O3  UNL     1      -1.949   6.538   3.807  1.00  0.00    -0.376 OA
HETATM    8  C12 UNL     1      -1.756   5.215   4.014  1.00  0.00     0.208 C
HETATM    9  C13 UNL     1      -1.145   4.991   5.387  1.00  0.00     0.193 C
ENDROOT
BRANCH   1  10
HETATM   10  C5  UNL     1       0.587   3.534   6.159  1.00  0.00    -0.072 C
HETATM   11  C4  UNL     1       0.915   2.795   7.055  1.00  0.00    -0.104 C
BRANCH  11  12
HETATM   12  C3  UNL     1       1.335   1.891   8.127  1.00  0.00     0.093 C
BRANCH  12  13
HETATM   13  C2  UNL     1       2.866   1.781   8.157  1.00  0.00     0.007 C
HETATM   14  C1  UNL     1       3.458   3.077   8.607  1.00  0.00     0.006 C
ENDBRANCH  12  13
ENDBRANCH  11  12
ENDBRANCH   1  10
BRANCH   9  15
HETATM   15  O4  UNL     1      -1.837   4.018   6.111  1.00  0.00    -0.389 OA
ATOM     16  H4  UNL     1      -2.507   4.460   6.620  1.00  0.00     0.210 HD
ENDBRANCH   9  15
BRANCH   5  17
HETATM   17  C9  UNL     1       0.143   7.139   0.853  1.00  0.00     0.029 C
HETATM   18  C10 UNL     1       1.073   6.174   0.156  1.00  0.00     0.007 C
ENDBRANCH   5  17
TORSDOF 5
ENDMDL