MODEL 4
REMARK VINA RESULT: -5.283319484      4.495      5.527
REMARK  4 active torsions:
REMARK  status: ('A' for Active; 'I' for Inactive)
REMARK    1  A    between atoms: C2_2  and  C9_14
REMARK    2  A    between atoms: N1_3  and  N2_5
REMARK    3  A    between atoms: C3_7  and  C4_8
REMARK       I    between atoms: C9_14  and  N3_16
REMARK    4  A    between atoms: N3_16  and  C10_18
ROOT
HETATM    1  C1  UNL     1      -0.512   3.274   2.351  1.00  0.00     0.076 C
HETATM    2  C2  UNL     1      -1.332   4.136   3.231  1.00  0.00     0.089 C
HETATM    3  N1  UNL     1      -0.874   4.392   4.404  1.00  0.00    -0.300 N
ATOM      4  H1  UNL     1      -1.437   4.986   5.013  1.00  0.00     0.186 HD
ENDROOT
BRANCH   3   5
HETATM    5  N2  UNL     1       0.330   3.919   4.901  1.00  0.00    -0.315 N
HETATM    6  C3  UNL     1       0.514   3.654   6.154  1.00  0.00     0.085 C
ATOM      7  H2  UNL     1       1.103   3.773   4.253  1.00  0.00     0.185 HD
BRANCH   6   8
HETATM    8  C4  UNL     1       1.788   3.154   6.675  1.00  0.00     0.038 A
HETATM    9  C5  UNL     1       2.131   3.452   8.070  1.00  0.00     0.026 A
HETATM   10  C6  UNL     1       3.499   3.300   8.638  1.00  0.00     0.173 C
HETATM   11  C8  UNL     1       1.727   2.069   7.725  1.00  0.00     0.026 A
HETATM   12  O1  UNL     1       3.968   2.044   8.380  1.00  0.00    -0.390 OA
HETATM   13  C7  UNL     1       2.974   1.262   7.866  1.00  0.00     0.173 C
ENDBRANCH   6   8
ENDBRANCH   3   5
BRANCH   2  14
HETATM   14  C9  UNL     1      -2.608   4.699   2.839  1.00  0.00     0.265 C
HETATM   15  O2  UNL     1      -3.607   3.946   2.771  1.00  0.00    -0.266 OA
HETATM   16  N3  UNL     1      -2.728   6.092   2.536  1.00  0.00    -0.351 N
ATOM     17  H3  UNL     1      -1.895   6.677   2.602  1.00  0.00     0.163 HD
BRANCH  16  18
HETATM   18  C10 UNL     1      -3.960   6.704   2.144  1.00  0.00     0.084 A
HETATM   19  C11 UNL     1      -4.162   7.292   0.798  1.00  0.00     0.027 A
HETATM   20  C12 UNL     1      -4.042   8.182   2.034  1.00  0.00     0.027 A
ENDBRANCH  16  18
ENDBRANCH   2  14
TORSDOF 4
ENDMDL