MODEL 5
REMARK VINA RESULT: -4.713910982      3.748      6.669
REMARK  4 active torsions:
REMARK  status: ('A' for Active; 'I' for Inactive)
REMARK    1  A    between atoms: O1_1  and  N1_3
REMARK    2  A    between atoms: N1_3  and  N2_5
REMARK    3  A    between atoms: C4_9  and  C5_10
REMARK    4  A    between atoms: C5_10  and  O2_11
ROOT
HETATM    1  C5  UNL     1      -0.301   4.594   1.239  1.00  0.00     0.128 C
HETATM    2  C6  UNL     1       0.858   4.965   2.140  1.00  0.00     0.279 C
HETATM    3  N3  UNL     1      -0.088   5.168   3.206  1.00  0.00    -0.061 N
HETATM    4  C7  UNL     1      -0.302   4.042   4.085  1.00  0.00     0.237 C
HETATM    5  C8  UNL     1       0.656   4.203   5.229  1.00  0.00     0.029 C
HETATM    6  C9  UNL     1       0.830   5.699   5.322  1.00  0.00     0.029 C
HETATM    7  C10 UNL     1       0.161   6.281   4.077  1.00  0.00     0.237 C
HETATM    8  C11 UNL     1      -1.136   5.308   2.246  1.00  0.00     0.279 C
ENDROOT
BRANCH   1   9
HETATM    9  C4  UNL     1      -0.142   5.273  -0.102  1.00  0.00     0.142 C
HETATM   10  N2  UNL     1       1.008   4.789  -0.821  1.00  0.00    -0.301 N
HETATM   11  C1  UNL     1       1.402   5.841  -1.725  1.00  0.00     0.145 C
HETATM   12  C2  UNL     1       1.280   7.071  -0.869  1.00  0.00     0.024 C
HETATM   13  C3  UNL     1       0.212   6.726   0.132  1.00  0.00     0.032 C
BRANCH  10  14
HETATM   14  N1  UNL     1       1.646   3.566  -0.701  1.00  0.00    -0.212 N
ATOM     15  H1  UNL     1       1.850   3.176   0.219  1.00  0.00     0.215 HD
BRANCH  14  16
HETATM   16  O1  UNL     1       1.971   2.941  -1.749  1.00  0.00    -0.275 OA
ATOM     17  H1  UNL     1       1.783   2.012  -1.807  1.00  0.00     0.246 HD
ENDBRANCH  14  16
ENDBRANCH  10  14
ENDBRANCH   1   9
BRANCH   1  18
HETATM   18  O2  UNL     1      -0.455   3.240   1.120  1.00  0.00    -0.384 OA
ATOM     19  H2  UNL     1      -1.252   2.930   1.535  1.00  0.00     0.210 HD
ENDBRANCH   1  18
TORSDOF 4
ENDMDL