MODEL 5
REMARK VINA RESULT: -4.006735248      1.472      1.922
REMARK  4 active torsions:
REMARK  status: ('A' for Active; 'I' for Inactive)
REMARK    1  A    between atoms: O1_2  and  C2_3
REMARK    2  A    between atoms: C2_3  and  C3_4
REMARK    3  A    between atoms: C5_7  and  O3_8
REMARK    4  A    between atoms: C10_14  and  N1_15
ROOT
HETATM    1  C3  UNL     1      -1.720   4.398   5.180  1.00  0.00     0.168 C
HETATM    2  O2  UNL     1      -2.463   4.598   3.988  1.00  0.00    -0.373 OA
HETATM    3  C4  UNL     1      -1.702   4.153   2.932  1.00  0.00     0.157 C
HETATM    4  C5  UNL     1      -1.839   5.135   1.790  1.00  0.00     0.147 C
HETATM    5  C6  UNL     1      -0.853   4.940   0.692  1.00  0.00     0.034 C
HETATM    6  C7  UNL     1       0.315   4.049   1.066  1.00  0.00     0.003 C
HETATM    7  C8  UNL     1       0.734   4.499   2.474  1.00  0.00     0.009 C
HETATM    8  C9  UNL     1      -0.308   3.949   3.402  1.00  0.00     0.042 C
HETATM    9  C10 UNL     1      -0.321   4.706   4.736  1.00  0.00     0.115 C
ENDROOT
BRANCH   1  10
HETATM   10  C2  UNL     1      -2.254   5.455   6.135  1.00  0.00     0.201 C
BRANCH  10  11
HETATM   11  O1  UNL     1      -2.693   4.936   7.339  1.00  0.00    -0.393 OA
HETATM   12  C1  UNL     1      -3.076   3.623   7.214  1.00  0.00     0.201 C
ENDBRANCH  10  11
ENDBRANCH   1  10
BRANCH   9  13
HETATM   13  N1  UNL     1       0.752   4.223   5.481  1.00  0.00    -0.414 N
HETATM   14  C11 UNL     1       1.687   5.267   5.840  1.00  0.00     0.143 C
HETATM   15  C12 UNL     1       0.560   3.331   6.548  1.00  0.00     0.143 C
ENDBRANCH   9  13
BRANCH   4  16
HETATM   16  O3  UNL     1      -1.833   6.464   2.268  1.00  0.00    -0.393 OA
ATOM     17  H3  UNL     1      -0.945   6.797   2.325  1.00  0.00     0.210 HD
ENDBRANCH   4  16
TORSDOF 4
ENDMDL