MODEL 3
REMARK VINA RESULT: -5.372783974      2.118      4.603
REMARK  4 active torsions:
REMARK  status: ('A' for Active; 'I' for Inactive)
REMARK    1  A    between atoms: C2_2  and  C3_3
REMARK    2  A    between atoms: C3_3  and  O1_4
REMARK    3  A    between atoms: C3_3  and  C4_6
REMARK    4  A    between atoms: C4_6  and  C5_7
ROOT
HETATM    1  C5  UNL     1      -2.117   3.507   7.315  1.00  0.00     0.010 C
HETATM    2  C6  UNL     1      -2.560   4.272   6.107  1.00  0.00     0.041 C
HETATM    3  C7  UNL     1      -1.534   5.317   5.829  1.00  0.00     0.154 A
HETATM    4  O2  UNL     1      -1.479   6.132   4.743  1.00  0.00    -0.373 OA
HETATM    5  C8  UNL     1      -0.807   4.984   4.623  1.00  0.00     0.179 A
HETATM    6  C9  UNL     1       0.598   4.658   4.933  1.00  0.00     0.148 C
HETATM    7  C10 UNL     1       1.362   5.639   5.731  1.00  0.00     0.042 C
HETATM    8  O3  UNL     1       0.600   3.358   5.443  1.00  0.00    -0.382 OA
HETATM    9  C11 UNL     1       0.343   3.249   6.782  1.00  0.00     0.187 C
HETATM   10  C12 UNL     1      -0.972   2.595   7.128  1.00  0.00     0.121 C
HETATM   11  C13 UNL     1      -0.781   1.856   8.383  1.00  0.00     0.066 C
HETATM   12  N1  UNL     1      -0.606   1.259   9.383  1.00  0.00    -0.197 NA
ENDROOT
BRANCH   1  13
HETATM   13  C4  UNL     1      -3.245   2.762   7.972  1.00  0.00     0.042 C
BRANCH  13  14
HETATM   14  C3  UNL     1      -4.360   3.612   8.487  1.00  0.00     0.140 C
BRANCH  14  15
HETATM   15  C2  UNL     1      -5.160   2.769   9.434  1.00  0.00    -0.006 C
HETATM   16  C1  UNL     1      -4.633   1.660   9.896  1.00  0.00     0.009 C
ENDBRANCH  14  15
BRANCH  14  17
HETATM   17  O1  UNL     1      -3.914   4.697   9.264  1.00  0.00    -0.392 OA
ATOM     18  H1  UNL     1      -4.234   4.515  10.140  1.00  0.00     0.210 HD
ENDBRANCH  14  17
ENDBRANCH  13  14
ENDBRANCH   1  13
TORSDOF 4
ENDMDL