MODEL 3
REMARK VINA RESULT: -9.224249230      3.467      6.751
REMARK  13 active torsions:
REMARK  status: ('A' for Active; 'I' for Inactive)
REMARK    1  A    between atoms: O1_2  and  N1_3
REMARK    2  A    between atoms: C2_6  and  C3_7
REMARK    3  A    between atoms: C3_7  and  C4_9
REMARK    4  A    between atoms: C4_9  and  C5_10
REMARK    5  A    between atoms: C5_10  and  C6_11
REMARK    6  A    between atoms: C5_10  and  C10_27
REMARK    7  A    between atoms: N4_15  and  N5_17
REMARK    8  A    between atoms: C9_24  and  O3_25
REMARK    9  A    between atoms: C10_27  and  O4_28
REMARK   10  A    between atoms: C10_27  and  N9_30
REMARK   11  A    between atoms: N9_30  and  C11_32
REMARK   12  A    between atoms: C14_35  and  O5_36
REMARK   13  A    between atoms: C19_42  and  N10_43
REMARK       I    between atoms: N10_43  and  C20_45
REMARK       I    between atoms: C20_45  and  N11_46
REMARK       I    between atoms: C20_45  and  N12_50
REMARK       I    between atoms: N12_50  and  C21_52
ROOT
HETATM    1  C5  UNL     1     -39.466  26.097  -3.169  1.00  0.00     0.096 C
ENDROOT
BRANCH   1   2
HETATM    2  C4  UNL     1     -40.191  24.946  -2.600  1.00  0.00     0.100 C
BRANCH   2   3
HETATM    3  C3  UNL     1     -40.440  23.808  -3.469  1.00  0.00     0.178 C
HETATM    4  O2  UNL     1     -39.558  23.010  -3.855  1.00  0.00    -0.291 OA
BRANCH   3   5
HETATM    5  C2  UNL     1     -41.799  23.510  -3.969  1.00  0.00     0.096 A
HETATM    6  N2  UNL     1     -42.120  23.845  -5.238  1.00  0.00    -0.269 N
HETATM    7  N1  UNL     1     -43.306  23.583  -5.721  1.00  0.00    -0.144 N
ATOM      8  H2  UNL     1     -41.428  24.308  -5.827  1.00  0.00     0.190 HD
HETATM    9  C19 UNL     1     -44.302  22.975  -5.033  1.00  0.00     0.150 A
HETATM   10  C18 UNL     1     -44.011  22.625  -3.742  1.00  0.00     0.055 A
HETATM   11  C17 UNL     1     -42.763  22.896  -3.223  1.00  0.00     0.038 A
BRANCH   7  12
HETATM   12  O1  UNL     1     -43.533  23.967  -7.031  1.00  0.00    -0.262 OA
HETATM   13  C1  UNL     1     -43.624  25.337  -7.331  1.00  0.00     0.240 C
ENDBRANCH   7  12
BRANCH   9  14
HETATM   14  N10 UNL     1     -45.388  22.789  -5.654  1.00  0.00    -0.330 N
HETATM   15  C20 UNL     1     -45.959  21.551  -6.082  1.00  0.00     0.390 C
HETATM   16  N11 UNL     1     -45.041  20.845  -6.962  1.00  0.00    -0.041 N
HETATM   17  N12 UNL     1     -47.202  21.855  -6.780  1.00  0.00    -0.321 N
ATOM     18 3H11 UNL     1     -44.752  21.423  -7.751  1.00  0.00     0.279 HD
ATOM     19 2H11 UNL     1     -44.128  20.712  -6.528  1.00  0.00     0.279 HD
ATOM     20 1H11 UNL     1     -45.450  19.962  -7.269  1.00  0.00     0.279 HD
HETATM   21  C21 UNL     1     -48.270  22.547  -6.160  1.00  0.00     0.184 C
ATOM     22  H12 UNL     1     -47.306  21.557  -7.749  1.00  0.00     0.166 HD
HETATM   23  N13 UNL     1     -48.754  22.105  -5.060  1.00  0.00    -0.374 N
HETATM   24  N14 UNL     1     -48.791  23.714  -6.758  1.00  0.00    -0.064 NA
ATOM     25 2H13 UNL     1     -48.377  21.262  -4.628  1.00  0.00     0.158 HD
ATOM     26 1H13 UNL     1     -49.524  22.604  -4.613  1.00  0.00     0.158 HD
ATOM     27  H10 UNL     1     -45.923  23.628  -5.876  1.00  0.00     0.165 HD
ENDBRANCH   9  14
ENDBRANCH   3   5
ENDBRANCH   2   3
ENDBRANCH   1   2
BRANCH   1  28
HETATM   28  C6  UNL     1     -38.023  25.993  -2.709  1.00  0.00     0.086 A
HETATM   29  N3  UNL     1     -37.462  24.901  -2.232  1.00  0.00    -0.189 N
HETATM   30  C7  UNL     1     -36.180  25.202  -1.940  1.00  0.00     0.699 A
ATOM     31  H3  UNL     1     -37.915  23.996  -2.106  1.00  0.00     0.184 HD
HETATM   32  N4  UNL     1     -35.338  24.338  -1.448  1.00  0.00    -0.130 N
HETATM   33  N8  UNL     1     -35.926  26.484  -2.231  1.00  0.00    -0.167 N
ATOM     34  H4  UNL     1     -35.672  23.389  -1.277  1.00  0.00     0.205 HD
HETATM   35  C9  UNL     1     -37.094  26.992  -2.721  1.00  0.00     0.179 A
ATOM     36  H8  UNL     1     -35.042  26.979  -2.112  1.00  0.00     0.186 HD
BRANCH  32  37
HETATM   37  N5  UNL     1     -34.025  24.624  -1.144  1.00  0.00    -0.262 N
HETATM   38  C8  UNL     1     -33.089  24.340  -1.974  1.00  0.00     0.216 C
HETATM   39  N6  UNL     1     -31.759  24.672  -1.575  1.00  0.00    -0.065 NA
HETATM   40  N7  UNL     1     -33.388  23.734  -3.206  1.00  0.00    -0.065 NA
ATOM     41  H5  UNL     1     -33.796  25.065  -0.253  1.00  0.00     0.190 HD
ENDBRANCH  32  37
BRANCH  35  42
HETATM   42  O3  UNL     1     -37.228  28.307  -3.135  1.00  0.00    -0.344 OA
ATOM     43  H3  UNL     1     -36.880  29.100  -2.743  1.00  0.00     0.219 HD
ENDBRANCH  35  42
ENDBRANCH   1  28
BRANCH   1  44
HETATM   44  C10 UNL     1     -39.413  26.078  -4.688  1.00  0.00     0.228 C
BRANCH  44  45
HETATM   45  O4  UNL     1     -38.262  25.522  -5.145  1.00  0.00    -0.376 OA
ATOM     46  H4  UNL     1     -38.374  25.137  -6.007  1.00  0.00     0.212 HD
ENDBRANCH  44  45
BRANCH  44  47
HETATM   47  N9  UNL     1     -39.518  27.407  -5.235  1.00  0.00    -0.363 N
ATOM     48  H9  UNL     1     -38.761  27.790  -5.801  1.00  0.00     0.162 HD
BRANCH  47  49
HETATM   49  C11 UNL     1     -40.673  28.171  -4.982  1.00  0.00     0.030 A
HETATM   50  C12 UNL     1     -41.905  27.566  -5.002  1.00  0.00     0.032 A
HETATM   51  C13 UNL     1     -43.075  28.292  -4.757  1.00  0.00     0.039 A
HETATM   52  C14 UNL     1     -43.027  29.630  -4.489  1.00  0.00     0.065 A
HETATM   53  C15 UNL     1     -41.783  30.231  -4.470  1.00  0.00     0.039 A
HETATM   54  C16 UNL     1     -40.626  29.521  -4.711  1.00  0.00     0.032 A
BRANCH  52  55
HETATM   55  O5  UNL     1     -44.214  30.302  -4.254  1.00  0.00    -0.361 OA
ATOM     56  H5  UNL     1     -45.033  29.861  -4.449  1.00  0.00     0.217 HD
ENDBRANCH  52  55
ENDBRANCH  47  49
ENDBRANCH  44  47
ENDBRANCH   1  44
TORSDOF 13
ENDMDL