MODEL 2
REMARK VINA RESULT: -7.502888080      1.412      2.073
REMARK  17 active torsions:
REMARK  status: ('A' for Active; 'I' for Inactive)
REMARK    1  A    between atoms: N1_2  and  C2_4
REMARK    2  A    between atoms: C4_6  and  N2_7
REMARK    3  A    between atoms: N2_7  and  C5_9
REMARK    4  A    between atoms: C5_9  and  O1_10
REMARK    5  A    between atoms: C5_9  and  N3_12
REMARK    6  A    between atoms: N3_12  and  O2_14
REMARK    7  A    between atoms: C6_17  and  C7_18
REMARK       I    between atoms: C7_18  and  N4_20
REMARK    8  A    between atoms: N4_20  and  C8_22
REMARK    9  A    between atoms: C11_26  and  C12_27
REMARK       I    between atoms: C12_27  and  N6_29
REMARK   10  A    between atoms: N6_29  and  C13_31
REMARK   11  A    between atoms: C13_31  and  C14_32
REMARK   12  A    between atoms: C13_31  and  C15_35
REMARK   13  A    between atoms: C15_35  and  O6_36
REMARK   14  A    between atoms: C15_35  and  N8_38
REMARK   15  A    between atoms: N8_38  and  C16_40
REMARK   16  A    between atoms: C16_40  and  C17_41
REMARK   17  A    between atoms: C16_40  and  C18_44
ROOT
HETATM    1  C8  UNL     1     -39.854  25.015  -3.945  1.00  0.00     0.109 A
HETATM    2  C9  UNL     1     -38.935  24.683  -2.995  1.00  0.00     0.076 A
HETATM    3  C10 UNL     1     -37.760  25.404  -2.745  1.00  0.00     0.067 A
HETATM    4  N5  UNL     1     -36.848  25.008  -1.744  1.00  0.00    -0.101 NA
HETATM    5  C11 UNL     1     -37.510  26.510  -3.496  1.00  0.00     0.071 A
HETATM    6  C19 UNL     1     -38.434  26.858  -4.464  1.00  0.00     0.108 A
HETATM    7  N10 UNL     1     -39.536  26.149  -4.670  1.00  0.00    -0.351 N
ATOM      8  H10 UNL     1     -40.181  26.456  -5.399  1.00  0.00     0.166 HD
ENDROOT
BRANCH   1   9
HETATM    9  N4  UNL     1     -41.052  24.350  -4.260  1.00  0.00    -0.308 N
HETATM   10  C7  UNL     1     -42.224  24.963  -4.688  1.00  0.00     0.266 C
HETATM   11  O3  UNL     1     -42.313  26.191  -4.828  1.00  0.00    -0.267 OA
ATOM     12  H4  UNL     1     -41.061  23.335  -4.167  1.00  0.00     0.170 HD
BRANCH  10  13
HETATM   13  C6  UNL     1     -43.427  24.134  -4.996  1.00  0.00     0.101 A
HETATM   14  C2  UNL     1     -44.136  23.245  -4.267  1.00  0.00     0.053 A
HETATM   15  C3  UNL     1     -45.196  22.666  -4.874  1.00  0.00     0.068 A
HETATM   16  C4  UNL     1     -45.460  23.025  -6.165  1.00  0.00     0.080 A
HETATM   17  S1  UNL     1     -44.238  24.153  -6.508  1.00  0.00    -0.065 SA
BRANCH  14  18
HETATM   18  N1  UNL     1     -43.792  22.910  -2.894  1.00  0.00    -0.393 N
HETATM   19  C1  UNL     1     -42.875  21.824  -2.572  1.00  0.00     0.146 C
ATOM     20  H1  UNL     1     -44.205  23.452  -2.133  1.00  0.00     0.159 HD
ENDBRANCH  14  18
BRANCH  16  21
HETATM   21  N2  UNL     1     -46.527  22.553  -7.019  1.00  0.00    -0.315 N
ATOM     22  H2  UNL     1     -47.106  23.197  -7.558  1.00  0.00     0.170 HD
BRANCH  21  23
HETATM   23  C5  UNL     1     -46.726  21.154  -7.069  1.00  0.00     0.242 C
BRANCH  23  24
HETATM   24  O1  UNL     1     -47.947  20.648  -6.670  1.00  0.00    -0.331 OA
ATOM     25  H1  UNL     1     -48.120  19.723  -6.802  1.00  0.00     0.221 HD
ENDBRANCH  23  24
BRANCH  23  26
HETATM   26  N3  UNL     1     -45.816  20.355  -7.470  1.00  0.00    -0.233 N
ATOM     27  H3  UNL     1     -44.939  20.275  -6.955  1.00  0.00     0.198 HD
BRANCH  26  28
HETATM   28  O2  UNL     1     -46.024  19.605  -8.597  1.00  0.00    -0.287 OA
ATOM     29  H2  UNL     1     -46.586  19.939  -9.285  1.00  0.00     0.244 HD
ENDBRANCH  26  28
ENDBRANCH  23  26
ENDBRANCH  21  23
ENDBRANCH  16  21
ENDBRANCH  10  13
ENDBRANCH   1   9
BRANCH   5  30
HETATM   30  C12 UNL     1     -36.306  27.302  -3.280  1.00  0.00     0.255 C
HETATM   31  O4  UNL     1     -36.484  28.519  -2.921  1.00  0.00    -0.268 OA
HETATM   32  N6  UNL     1     -35.007  26.801  -3.445  1.00  0.00    -0.340 N
ATOM     33  H6  UNL     1     -34.849  25.835  -3.729  1.00  0.00     0.163 HD
BRANCH  32  34
HETATM   34  C13 UNL     1     -33.869  27.718  -3.195  1.00  0.00     0.222 C
BRANCH  34  35
HETATM   35  C14 UNL     1     -33.546  27.740  -1.779  1.00  0.00     0.258 C
HETATM   36  N7  UNL     1     -33.301  28.966  -1.057  1.00  0.00    -0.060 NA
HETATM   37  O5  UNL     1     -33.476  26.676  -1.127  1.00  0.00    -0.274 OA
ENDBRANCH  34  35
BRANCH  34  38
HETATM   38  C15 UNL     1     -32.849  27.321  -4.191  1.00  0.00     0.246 C
BRANCH  38  39
HETATM   39  O6  UNL     1     -31.611  27.274  -3.450  1.00  0.00    -0.374 OA
ATOM     40  H6  UNL     1     -31.035  26.729  -3.975  1.00  0.00     0.212 HD
ENDBRANCH  38  39
BRANCH  38  41
HETATM   41  N8  UNL     1     -33.023  26.229  -4.991  1.00  0.00    -0.374 N
ATOM     42  H8  UNL     1     -33.633  26.308  -5.804  1.00  0.00     0.157 HD
BRANCH  41  43
HETATM   43  C16 UNL     1     -32.396  25.002  -4.737  1.00  0.00     0.271 C
BRANCH  43  44
HETATM   44  C17 UNL     1     -33.345  23.866  -4.443  1.00  0.00     0.264 C
HETATM   45  N9  UNL     1     -32.836  22.624  -4.003  1.00  0.00    -0.060 NA
HETATM   46  O7  UNL     1     -34.566  24.017  -4.584  1.00  0.00    -0.274 OA
ENDBRANCH  43  44
BRANCH  43  47
HETATM   47  C18 UNL     1     -31.668  24.636  -6.040  1.00  0.00     0.205 C
HETATM   48  O8  UNL     1     -30.438  24.626  -6.096  1.00  0.00    -0.646 OA
HETATM   49  O9  UNL     1     -32.454  24.327  -7.118  1.00  0.00    -0.646 OA
ENDBRANCH  43  47
ENDBRANCH  41  43
ENDBRANCH  38  41
ENDBRANCH  34  38
ENDBRANCH  32  34
ENDBRANCH   5  30
TORSDOF 17
ENDMDL