MODEL 5
REMARK VINA RESULT: -7.950682454      2.485      3.632
REMARK  18 active torsions:
REMARK  status: ('A' for Active; 'I' for Inactive)
REMARK    1  A    between atoms: C1_2  and  C2_4
REMARK    2  A    between atoms: C2_4  and  N2_5
REMARK    3  A    between atoms: C2_4  and  N7_21
REMARK    4  A    between atoms: N3_7  and  C3_9
REMARK    5  A    between atoms: C5_18  and  O2_19
REMARK    6  A    between atoms: N7_21  and  C6_23
REMARK    7  A    between atoms: C7_26  and  N9_27
REMARK    8  A    between atoms: C9_34  and  C10_35
REMARK    9  A    between atoms: C10_35  and  O3_36
REMARK   10  A    between atoms: C10_35  and  N12_38
REMARK       I    between atoms: N12_38  and  C11_40
REMARK   11  A    between atoms: C11_40  and  C12_42
REMARK   12  A    between atoms: C12_42  and  O5_43
REMARK   13  A    between atoms: C12_42  and  C13_45
REMARK   14  A    between atoms: C13_45  and  O6_46
REMARK   15  A    between atoms: C13_45  and  C14_48
REMARK   16  A    between atoms: C14_48  and  N13_49
REMARK   17  A    between atoms: N13_49  and  C15_51
REMARK   18  A    between atoms: C15_51  and  C16_52
ROOT
HETATM    1  C6  UNL     1     -40.913  25.200  -4.196  1.00  0.00     0.133 A
HETATM    2  N8  UNL     1     -41.694  24.167  -3.888  1.00  0.00    -0.176 N
ATOM      3  H8  UNL     1     -42.699  24.316  -3.802  1.00  0.00     0.186 HD
HETATM    4  C7  UNL     1     -41.201  22.942  -3.687  1.00  0.00     0.678 A
HETATM    5  N10 UNL     1     -39.874  22.721  -3.785  1.00  0.00    -0.178 N
ATOM      6  H10 UNL     1     -39.516  21.779  -3.625  1.00  0.00     0.185 HD
HETATM    7  C8  UNL     1     -39.002  23.712  -4.091  1.00  0.00     0.146 A
HETATM    8  N11 UNL     1     -37.616  23.385  -4.126  1.00  0.00    -0.081 NA
HETATM    9  C9  UNL     1     -39.514  24.960  -4.303  1.00  0.00     0.076 A
ENDROOT
BRANCH   9  10
HETATM   10  C10 UNL     1     -38.648  26.090  -4.704  1.00  0.00     0.262 C
BRANCH  10  11
HETATM   11  O3  UNL     1     -38.521  25.952  -6.147  1.00  0.00    -0.372 OA
ATOM     12  H3  UNL     1     -38.831  25.072  -6.327  1.00  0.00     0.212 HD
ENDBRANCH  10  11
BRANCH  10  13
HETATM   13  N12 UNL     1     -37.308  26.049  -4.254  1.00  0.00    -0.328 N
HETATM   14  C11 UNL     1     -36.925  26.633  -3.025  1.00  0.00     0.251 C
HETATM   15  O4  UNL     1     -37.720  27.248  -2.301  1.00  0.00    -0.270 OA
ATOM     16  H12 UNL     1     -36.602  25.587  -4.828  1.00  0.00     0.165 HD
BRANCH  14  17
HETATM   17  C12 UNL     1     -35.476  26.545  -2.505  1.00  0.00     0.240 C
BRANCH  17  18
HETATM   18  O5  UNL     1     -34.722  26.164  -3.651  1.00  0.00    -0.383 OA
ATOM     19  H5  UNL     1     -34.549  25.240  -3.515  1.00  0.00     0.210 HD
ENDBRANCH  17  18
BRANCH  17  20
HETATM   20  C13 UNL     1     -35.459  25.476  -1.486  1.00  0.00     0.173 C
BRANCH  20  21
HETATM   21  O6  UNL     1     -36.447  24.522  -1.494  1.00  0.00    -0.391 OA
ATOM     22  H6  UNL     1     -36.506  23.919  -2.225  1.00  0.00     0.210 HD
ENDBRANCH  20  21
BRANCH  20  23
HETATM   23  C14 UNL     1     -34.162  24.620  -1.694  1.00  0.00     0.149 C
BRANCH  23  24
HETATM   24  N13 UNL     1     -33.417  24.693  -0.491  1.00  0.00    -0.415 N
ATOM     25  H13 UNL     1     -33.415  23.920   0.173  1.00  0.00     0.153 HD
BRANCH  24  26
HETATM   26  C15 UNL     1     -32.677  25.874  -0.240  1.00  0.00     0.153 C
BRANCH  26  27
HETATM   27  C16 UNL     1     -32.286  26.053   1.205  1.00  0.00    -0.038 A
HETATM   28  C17 UNL     1     -32.645  25.189   2.173  1.00  0.00     0.025 A
HETATM   29  C18 UNL     1     -32.264  25.544   3.484  1.00  0.00     0.088 A
HETATM   30  N14 UNL     1     -31.598  26.644   3.771  1.00  0.00    -0.375 N
HETATM   31  C19 UNL     1     -31.230  27.529   2.799  1.00  0.00     0.088 A
ATOM     32  H14 UNL     1     -31.352  26.839   4.742  1.00  0.00     0.164 HD
HETATM   33  C20 UNL     1     -31.581  27.217   1.520  1.00  0.00     0.025 A
ENDBRANCH  26  27
ENDBRANCH  24  26
ENDBRANCH  23  24
ENDBRANCH  20  23
ENDBRANCH  17  20
ENDBRANCH  14  17
ENDBRANCH  10  13
ENDBRANCH   9  10
BRANCH   1  34
HETATM   34  N7  UNL     1     -41.276  26.386  -4.378  1.00  0.00    -0.346 N
ATOM     35  H7  UNL     1     -40.919  27.020  -3.664  1.00  0.00     0.163 HD
BRANCH  34  36
HETATM   36  C2  UNL     1     -42.065  27.045  -5.341  1.00  0.00     0.289 C
BRANCH  36  37
HETATM   37  C1  UNL     1     -43.407  26.483  -5.462  1.00  0.00     0.274 C
HETATM   38  N1  UNL     1     -44.470  27.236  -4.882  1.00  0.00    -0.059 NA
HETATM   39  O1  UNL     1     -43.746  25.406  -6.009  1.00  0.00    -0.272 OA
ENDBRANCH  36  37
BRANCH  36  40
HETATM   40  N2  UNL     1     -41.371  27.182  -6.628  1.00  0.00    -0.303 N
HETATM   41  N3  UNL     1     -42.005  27.366  -7.675  1.00  0.00    -0.284 N
ATOM     42  H3  UNL     1     -43.021  27.428  -7.612  1.00  0.00     0.188 HD
ATOM     43  H2  UNL     1     -40.353  27.126  -6.660  1.00  0.00     0.183 HD
BRANCH  41  44
HETATM   44  C3  UNL     1     -41.422  27.493  -8.933  1.00  0.00     0.187 A
HETATM   45  N4  UNL     1     -42.076  27.517 -10.103  1.00  0.00    -0.171 N
HETATM   46  C4  UNL     1     -41.192  27.635 -11.122  1.00  0.00     0.679 A
ATOM     47  H4  UNL     1     -43.089  27.456 -10.210  1.00  0.00     0.186 HD
HETATM   48  N5  UNL     1     -41.474  27.691 -12.373  1.00  0.00    -0.234 N
HETATM   49  N6  UNL     1     -39.931  27.691 -10.605  1.00  0.00    -0.167 N
ATOM     50  H52 UNL     1     -42.416  27.649 -12.759  1.00  0.00     0.174 HD
ATOM     51  H51 UNL     1     -40.808  27.779 -13.140  1.00  0.00     0.174 HD
HETATM   52  C5  UNL     1     -40.072  27.605  -9.268  1.00  0.00     0.202 A
ATOM     53  H6  UNL     1     -39.058  27.781 -11.125  1.00  0.00     0.186 HD
BRANCH  52  54
HETATM   54  O2  UNL     1     -39.051  27.626  -8.314  1.00  0.00    -0.343 OA
ATOM     55  H2  UNL     1     -38.330  28.245  -8.342  1.00  0.00     0.219 HD
ENDBRANCH  52  54
ENDBRANCH  41  44
ENDBRANCH  36  40
ENDBRANCH  34  36
ENDBRANCH   1  34
BRANCH   4  56
HETATM   56  N9  UNL     1     -42.032  21.957  -3.416  1.00  0.00    -0.234 N
ATOM     57  H92 UNL     1     -42.883  22.124  -2.879  1.00  0.00     0.174 HD
ATOM     58  H91 UNL     1     -41.802  21.016  -3.736  1.00  0.00     0.174 HD
ENDBRANCH   4  56
TORSDOF 18
ENDMDL