MODEL 5
REMARK VINA RESULT: -7.311658052      4.823     10.079
REMARK  18 active torsions:
REMARK  status: ('A' for Active; 'I' for Inactive)
REMARK    1  A    between atoms: N1_1  and  C1_4
REMARK    2  A    between atoms: C5_13  and  N4_14
REMARK    3  A    between atoms: N4_14  and  C6_16
REMARK    4  A    between atoms: C6_16  and  C7_17
REMARK    5  A    between atoms: C7_17  and  N5_18
REMARK    6  A    between atoms: N5_18  and  C8_19
REMARK    7  A    between atoms: N5_18  and  C13_30
REMARK    8  A    between atoms: C8_19  and  C9_20
REMARK    9  A    between atoms: C9_20  and  C10_21
REMARK   10  A    between atoms: C10_21  and  N6_22
REMARK   11  A    between atoms: C11_24  and  C12_25
REMARK   12  A    between atoms: C12_25  and  N7_26
REMARK   13  A    between atoms: C14_31  and  O1_32
REMARK   14  A    between atoms: C15_34  and  O2_35
REMARK   15  A    between atoms: C18_39  and  O3_40
REMARK   16  A    between atoms: C19_42  and  C20_43
REMARK   17  A    between atoms: C20_43  and  O4_44
REMARK   18  A    between atoms: C20_43  and  C21_46
ROOT
HETATM    1  N5  UNL     1     -33.142  26.579  -2.013  1.00  0.00    -0.375 N
ENDROOT
BRANCH   1   2
HETATM    2  C7  UNL     1     -34.558  26.464  -2.254  1.00  0.00     0.143 C
BRANCH   2   3
HETATM    3  C6  UNL     1     -34.966  25.100  -2.731  1.00  0.00     0.141 C
BRANCH   3   4
HETATM    4  N4  UNL     1     -35.993  25.172  -3.755  1.00  0.00    -0.372 N
ATOM      5  H4  UNL     1     -35.682  25.368  -4.707  1.00  0.00     0.161 HD
BRANCH   4   6
HETATM    6  C5  UNL     1     -37.247  25.014  -3.579  1.00  0.00     0.146 C
HETATM    7  C4  UNL     1     -38.020  26.082  -4.002  1.00  0.00     0.112 C
HETATM    8  C3  UNL     1     -39.361  26.037  -4.330  1.00  0.00     0.145 C
HETATM    9  N11 UNL     1     -37.552  27.413  -4.167  1.00  0.00    -0.363 N
HETATM   10  C2  UNL     1     -40.241  24.971  -4.325  1.00  0.00     0.150 C
HETATM   11  O6  UNL     1     -39.729  27.314  -4.695  1.00  0.00    -0.326 OA
HETATM   12  N2  UNL     1     -39.957  23.724  -3.886  1.00  0.00    -0.174 N
HETATM   13  N3  UNL     1     -41.432  25.187  -4.779  1.00  0.00    -0.383 N
HETATM   14  C1  UNL     1     -38.859  23.250  -3.261  1.00  0.00     0.679 C
ATOM     15  H2  UNL     1     -40.689  23.033  -4.053  1.00  0.00     0.186 HD
HETATM   16  N10 UNL     1     -37.667  23.872  -3.026  1.00  0.00    -0.175 N
ATOM     17  H10 UNL     1     -37.036  23.422  -2.363  1.00  0.00     0.186 HD
ATOM     18  H32 UNL     1     -42.081  24.401  -4.776  1.00  0.00     0.157 HD
ATOM     19  H31 UNL     1     -41.645  26.128  -5.111  1.00  0.00     0.157 HD
HETATM   20  C23 UNL     1     -38.583  28.106  -4.913  1.00  0.00     0.298 C
ATOM     21  H11 UNL     1     -36.671  27.801  -3.830  1.00  0.00     0.162 HD
BRANCH  14  22
HETATM   22  N1  UNL     1     -38.969  22.040  -2.836  1.00  0.00    -0.234 N
ATOM     23  H12 UNL     1     -39.040  21.312  -3.546  1.00  0.00     0.174 HD
ATOM     24  H11 UNL     1     -38.973  21.949  -1.820  1.00  0.00     0.174 HD
ENDBRANCH  14  22
ENDBRANCH   4   6
ENDBRANCH   3   4
ENDBRANCH   2   3
ENDBRANCH   1   2
BRANCH   1  25
HETATM   25  C8  UNL     1     -32.202  26.335  -3.097  1.00  0.00     0.125 C
BRANCH  25  26
HETATM   26  C9  UNL     1     -32.421  27.292  -4.221  1.00  0.00     0.039 C
BRANCH  26  27
HETATM   27  C10 UNL     1     -32.149  26.564  -5.539  1.00  0.00     0.120 C
BRANCH  27  28
HETATM   28  N6  UNL     1     -32.945  25.376  -5.636  1.00  0.00    -0.401 N
HETATM   29  C11 UNL     1     -32.534  24.434  -6.392  1.00  0.00     0.082 C
ATOM     30  H6  UNL     1     -33.816  25.287  -5.114  1.00  0.00     0.158 HD
BRANCH  29  31
HETATM   31  C12 UNL     1     -31.277  24.519  -7.168  1.00  0.00     0.273 C
BRANCH  31  32
HETATM   32  N7  UNL     1     -31.571  24.555  -8.584  1.00  0.00    -0.075 N
ATOM     33  H73 UNL     1     -32.559  24.390  -8.774  1.00  0.00     0.274 HD
ATOM     34  H72 UNL     1     -31.501  25.498  -8.965  1.00  0.00     0.274 HD
ATOM     35  H71 UNL     1     -30.971  23.897  -9.082  1.00  0.00     0.274 HD
ENDBRANCH  31  32
ENDBRANCH  29  31
ENDBRANCH  27  28
ENDBRANCH  26  27
ENDBRANCH  25  26
ENDBRANCH   1  25
BRANCH   1  36
HETATM   36  C13 UNL     1     -32.697  26.912  -0.705  1.00  0.00     0.101 A
HETATM   37  C14 UNL     1     -32.569  28.210  -0.292  1.00  0.00     0.131 A
HETATM   38  C15 UNL     1     -32.140  28.468   1.022  1.00  0.00     0.128 A
HETATM   39  C16 UNL     1     -31.841  27.463   1.908  1.00  0.00     0.074 A
HETATM   40  C17 UNL     1     -31.968  26.133   1.495  1.00  0.00     0.015 A
HETATM   41  N9  UNL     1     -31.394  27.457   3.256  1.00  0.00    -0.386 N
HETATM   42  C18 UNL     1     -32.387  25.897   0.216  1.00  0.00     0.104 A
HETATM   43  C19 UNL     1     -31.598  25.249   2.619  1.00  0.00     0.079 C
HETATM   44  C22 UNL     1     -31.626  26.153   3.816  1.00  0.00     0.132 C
ATOM     45  H9  UNL     1     -30.976  28.248   3.746  1.00  0.00     0.159 HD
BRANCH  37  46
HETATM   46  O1  UNL     1     -32.848  29.263  -1.124  1.00  0.00    -0.356 OA
ATOM     47  H1  UNL     1     -32.309  30.046  -1.138  1.00  0.00     0.218 HD
ENDBRANCH  37  46
BRANCH  38  48
HETATM   48  O2  UNL     1     -32.017  29.808   1.427  1.00  0.00    -0.356 OA
ATOM     49  H2  UNL     1     -31.146  30.187   1.458  1.00  0.00     0.218 HD
ENDBRANCH  38  48
BRANCH  42  50
HETATM   50  O3  UNL     1     -32.538  24.605  -0.268  1.00  0.00    -0.358 OA
ATOM     51  H3  UNL     1     -33.217  24.097   0.158  1.00  0.00     0.217 HD
ENDBRANCH  42  50
BRANCH  43  52
HETATM   52  C20 UNL     1     -30.274  24.601   2.392  1.00  0.00     0.217 C
BRANCH  52  53
HETATM   53  O4  UNL     1     -30.444  23.446   1.570  1.00  0.00    -0.386 OA
ATOM     54  H4  UNL     1     -30.280  22.664   2.084  1.00  0.00     0.210 HD
ENDBRANCH  52  53
BRANCH  52  55
HETATM   55  C21 UNL     1     -29.558  24.171   3.604  1.00  0.00     0.260 C
HETATM   56  N8  UNL     1     -28.285  24.717   3.980  1.00  0.00    -0.060 NA
HETATM   57  O5  UNL     1     -30.036  23.302   4.369  1.00  0.00    -0.274 OA
ENDBRANCH  52  55
ENDBRANCH  43  52
ENDBRANCH   1  36
TORSDOF 18
ENDMDL