MODEL 5
REMARK VINA RESULT: -8.560930320      4.505      6.109
REMARK  15 active torsions:
REMARK  status: ('A' for Active; 'I' for Inactive)
REMARK    1  A    between atoms: N1_1  and  C1_4
REMARK    2  A    between atoms: C2_7  and  C3_8
REMARK    3  A    between atoms: C3_8  and  C4_9
REMARK    4  A    between atoms: C3_8  and  N4_16
REMARK    5  A    between atoms: C4_9  and  C5_10
REMARK    6  A    between atoms: C5_10  and  C6_11
REMARK    7  A    between atoms: C6_11  and  N3_12
REMARK       I    between atoms: N4_16  and  C7_18
REMARK    8  A    between atoms: C7_18  and  C8_20
REMARK    9  A    between atoms: C8_20  and  C9_21
REMARK   10  A    between atoms: C9_21  and  O2_22
REMARK   11  A    between atoms: C9_21  and  C10_24
REMARK   12  A    between atoms: C10_24  and  C11_25
REMARK   13  A    between atoms: C11_25  and  O3_26
REMARK   14  A    between atoms: C11_25  and  C12_28
REMARK   15  A    between atoms: C21_54  and  N14_55
ROOT
HETATM    1  C9  UNL     1     -35.011  29.450  -4.270  1.00  0.00     0.129 C
ENDROOT
BRANCH   1   2
HETATM    2  C8  UNL     1     -33.622  29.931  -4.086  1.00  0.00     0.134 C
BRANCH   2   3
HETATM    3  C7  UNL     1     -32.718  28.763  -4.221  1.00  0.00     0.220 C
HETATM    4  N4  UNL     1     -32.843  27.792  -5.257  1.00  0.00    -0.351 N
ATOM      5  H4  UNL     1     -33.583  27.897  -5.951  1.00  0.00     0.163 HD
HETATM    6  O1  UNL     1     -31.786  28.598  -3.398  1.00  0.00    -0.274 OA
BRANCH   4   7
HETATM    7  C3  UNL     1     -31.932  26.645  -5.350  1.00  0.00     0.137 C
BRANCH   7   8
HETATM    8  C2  UNL     1     -32.428  25.468  -4.707  1.00  0.00     0.077 A
HETATM    9  N2  UNL     1     -33.637  24.860  -4.867  1.00  0.00    -0.192 N
HETATM   10  C1  UNL     1     -34.053  23.818  -4.144  1.00  0.00     0.677 A
ATOM     11  H2  UNL     1     -34.263  25.224  -5.585  1.00  0.00     0.184 HD
HETATM   12  N15 UNL     1     -33.282  23.271  -3.166  1.00  0.00    -0.175 N
HETATM   13  C21 UNL     1     -32.061  23.819  -2.942  1.00  0.00     0.141 A
ATOM     14  H15 UNL     1     -33.609  22.475  -2.619  1.00  0.00     0.186 HD
HETATM   15  C20 UNL     1     -31.655  24.878  -3.689  1.00  0.00     0.115 A
HETATM   16  N13 UNL     1     -30.368  25.437  -3.424  1.00  0.00    -0.096 NA
BRANCH  10  17
HETATM   17  N1  UNL     1     -35.207  23.248  -4.306  1.00  0.00    -0.234 N
ATOM     18  H12 UNL     1     -35.940  23.863  -4.660  1.00  0.00     0.174 HD
ATOM     19  H11 UNL     1     -35.383  22.265  -4.102  1.00  0.00     0.174 HD
ENDBRANCH  10  17
BRANCH  13  20
HETATM   20  N14 UNL     1     -31.355  23.290  -2.013  1.00  0.00    -0.383 N
ATOM     21 2H14 UNL     1     -30.429  23.687  -1.859  1.00  0.00     0.157 HD
ATOM     22 1H14 UNL     1     -31.669  22.507  -1.437  1.00  0.00     0.157 HD
ENDBRANCH  13  20
ENDBRANCH   7   8
BRANCH   7  23
HETATM   23  C4  UNL     1     -31.509  26.582  -6.775  1.00  0.00     0.033 C
BRANCH  23  24
HETATM   24  C5  UNL     1     -30.301  25.840  -7.143  1.00  0.00     0.029 C
BRANCH  24  25
HETATM   25  C6  UNL     1     -30.423  24.501  -7.739  1.00  0.00     0.230 C
BRANCH  25  26
HETATM   26  N3  UNL     1     -31.800  24.287  -8.254  1.00  0.00    -0.079 N
ATOM     27  H33 UNL     1     -32.286  25.169  -8.418  1.00  0.00     0.274 HD
ATOM     28  H32 UNL     1     -31.797  23.935  -9.212  1.00  0.00     0.274 HD
ATOM     29  H31 UNL     1     -32.323  23.677  -7.627  1.00  0.00     0.274 HD
ENDBRANCH  25  26
ENDBRANCH  24  25
ENDBRANCH  23  24
ENDBRANCH   7  23
ENDBRANCH   4   7
ENDBRANCH   2   3
ENDBRANCH   1   2
BRANCH   1  30
HETATM   30  O2  UNL     1     -35.782  30.272  -5.098  1.00  0.00    -0.395 OA
ATOM     31  H2  UNL     1     -36.624  30.505  -4.724  1.00  0.00     0.210 HD
ENDBRANCH   1  30
BRANCH   1  32
HETATM   32  C10 UNL     1     -35.759  29.034  -3.038  1.00  0.00     0.070 C
BRANCH  32  33
HETATM   33  C11 UNL     1     -36.349  27.688  -3.034  1.00  0.00     0.172 C
BRANCH  33  34
HETATM   34  O3  UNL     1     -35.530  26.765  -3.733  1.00  0.00    -0.389 OA
ATOM     35  H3  UNL     1     -35.727  25.870  -3.481  1.00  0.00     0.210 HD
ENDBRANCH  33  34
BRANCH  33  36
HETATM   36  C12 UNL     1     -37.669  27.577  -3.646  1.00  0.00     0.066 A
HETATM   37  N5  UNL     1     -38.257  28.638  -4.184  1.00  0.00    -0.321 N
HETATM   38  C13 UNL     1     -39.441  28.588  -4.767  1.00  0.00     0.273 A
ATOM     39  H5  UNL     1     -37.772  29.534  -4.145  1.00  0.00     0.169 HD
HETATM   40  O4  UNL     1     -39.975  29.629  -5.275  1.00  0.00    -0.266 OA
HETATM   41  C14 UNL     1     -40.144  27.418  -4.854  1.00  0.00     0.116 A
HETATM   42  N6  UNL     1     -41.371  27.434  -5.432  1.00  0.00    -0.347 N
HETATM   43  C18 UNL     1     -39.583  26.254  -4.307  1.00  0.00     0.053 A
HETATM   44  C15 UNL     1     -42.071  26.312  -5.484  1.00  0.00     0.181 A
ATOM     45  H6  UNL     1     -41.749  28.298  -5.821  1.00  0.00     0.167 HD
HETATM   46  N7  UNL     1     -41.573  25.199  -4.980  1.00  0.00    -0.348 N
HETATM   47  C16 UNL     1     -40.317  25.109  -4.373  1.00  0.00     0.095 A
ATOM     48  H7  UNL     1     -42.138  24.352  -5.036  1.00  0.00     0.167 HD
HETATM   49  C17 UNL     1     -39.938  23.824  -3.854  1.00  0.00     0.165 A
HETATM   50  N8  UNL     1     -38.984  23.123  -3.379  1.00  0.00    -0.267 N
HETATM   51  N11 UNL     1     -41.006  22.913  -3.697  1.00  0.00    -0.267 N
HETATM   52  N9  UNL     1     -39.300  21.931  -2.957  1.00  0.00    -0.227 N
ATOM     53  H8  UNL     1     -38.028  23.476  -3.332  1.00  0.00     0.190 HD
HETATM   54  N10 UNL     1     -40.604  21.806  -3.167  1.00  0.00    -0.227 N
ATOM     55  H9  UNL     1     -38.673  21.237  -2.549  1.00  0.00     0.210 HD
ATOM     56  H10 UNL     1     -41.180  20.992  -2.951  1.00  0.00     0.210 HD
ATOM     57  H11 UNL     1     -41.971  23.105  -3.967  1.00  0.00     0.190 HD
HETATM   58  C19 UNL     1     -38.366  26.354  -3.717  1.00  0.00     0.086 A
HETATM   59  N12 UNL     1     -37.691  25.326  -3.088  1.00  0.00    -0.099 NA
ENDBRANCH  33  36
ENDBRANCH  32  33
ENDBRANCH   1  32
TORSDOF 15
ENDMDL