MODEL 2
REMARK VINA RESULT: -8.300372294      3.509     11.757
REMARK  16 active torsions:
REMARK  status: ('A' for Active; 'I' for Inactive)
REMARK    1  A    between atoms: C2_2  and  N1_3
REMARK    2  A    between atoms: C2_2  and  C4_9
REMARK    3  A    between atoms: N7_24  and  C9_25
REMARK    4  A    between atoms: C9_25  and  C10_26
REMARK    5  A    between atoms: C11_27  and  C12_28
REMARK    6  A    between atoms: C12_28  and  N8_29
REMARK    7  A    between atoms: N8_29  and  C13_32
REMARK    8  A    between atoms: C13_32  and  O2_33
REMARK    9  A    between atoms: C13_32  and  N9_35
REMARK   10  A    between atoms: N9_35  and  C14_37
REMARK   11  A    between atoms: C14_37  and  C15_38
REMARK   12  A    between atoms: C15_38  and  N10_39
REMARK   13  A    between atoms: C16_41  and  C17_42
REMARK   14  A    between atoms: C18_43  and  O3_44
REMARK   15  A    between atoms: C19_46  and  N11_47
REMARK   16  A    between atoms: C22_54  and  N13_55
ROOT
HETATM    1  C1  UNL     1     -39.069  26.877  -5.695  1.00  0.00     0.072 C
HETATM    2  C2  UNL     1     -40.370  26.872  -5.069  1.00  0.00     0.264 C
HETATM    3  C3  UNL     1     -41.324  27.526  -6.050  1.00  0.00     0.106 C
HETATM    4  N2  UNL     1     -42.055  28.042  -6.782  1.00  0.00    -0.194 NA
ENDROOT
BRANCH   2   5
HETATM    5  N1  UNL     1     -40.314  27.908  -3.996  1.00  0.00    -0.051 N
ATOM      6  H13 UNL     1     -39.833  28.762  -4.279  1.00  0.00     0.277 HD
ATOM      7  H12 UNL     1     -41.218  28.336  -3.795  1.00  0.00     0.277 HD
ATOM      8  H11 UNL     1     -39.891  27.452  -3.188  1.00  0.00     0.277 HD
ENDBRANCH   2   5
BRANCH   2   9
HETATM    9  C4  UNL     1     -40.989  25.671  -4.516  1.00  0.00     0.137 A
HETATM   10  N3  UNL     1     -42.122  25.109  -5.073  1.00  0.00    -0.335 N
HETATM   11  C5  UNL     1     -42.392  23.972  -4.481  1.00  0.00     0.148 A
ATOM     12  H3  UNL     1     -42.666  25.519  -5.833  1.00  0.00     0.167 HD
HETATM   13  C6  UNL     1     -43.398  23.004  -4.612  1.00  0.00     0.290 A
HETATM   14  C8  UNL     1     -41.451  23.725  -3.502  1.00  0.00     0.157 A
HETATM   15  O1  UNL     1     -44.272  23.191  -5.489  1.00  0.00    -0.265 OA
HETATM   16  N4  UNL     1     -43.402  21.923  -3.817  1.00  0.00    -0.154 N
HETATM   17  C7  UNL     1     -42.477  21.696  -2.879  1.00  0.00     0.680 A
ATOM     18  H4  UNL     1     -44.150  21.239  -3.935  1.00  0.00     0.187 HD
HETATM   19  N5  UNL     1     -42.473  20.692  -2.115  1.00  0.00    -0.234 N
HETATM   20  N6  UNL     1     -41.485  22.637  -2.738  1.00  0.00    -0.174 N
ATOM     21  H52 UNL     1     -43.209  19.994  -2.220  1.00  0.00     0.174 HD
ATOM     22  H51 UNL     1     -41.768  20.519  -1.399  1.00  0.00     0.174 HD
ATOM     23  H6  UNL     1     -40.761  22.497  -2.033  1.00  0.00     0.186 HD
HETATM   24  N7  UNL     1     -40.620  24.810  -3.570  1.00  0.00    -0.314 N
BRANCH  24  25
HETATM   25  C9  UNL     1     -39.631  25.045  -2.538  1.00  0.00     0.159 C
BRANCH  25  26
HETATM   26  C10 UNL     1     -38.291  24.477  -2.804  1.00  0.00    -0.009 C
HETATM   27  C11 UNL     1     -37.039  25.125  -2.546  1.00  0.00    -0.002 C
BRANCH  27  28
HETATM   28  C12 UNL     1     -36.554  26.370  -3.158  1.00  0.00     0.265 C
BRANCH  28  29
HETATM   29  N8  UNL     1     -35.132  26.048  -3.549  1.00  0.00    -0.028 N
ATOM     30  H82 UNL     1     -34.873  26.516  -4.417  1.00  0.00     0.282 HD
ATOM     31  H81 UNL     1     -34.466  26.495  -2.919  1.00  0.00     0.282 HD
BRANCH  29  32
HETATM   32  C13 UNL     1     -34.902  24.648  -3.631  1.00  0.00     0.422 C
BRANCH  32  33
HETATM   33  O2  UNL     1     -34.582  24.248  -4.907  1.00  0.00    -0.355 OA
ATOM     34  H2  UNL     1     -35.296  23.783  -5.328  1.00  0.00     0.213 HD
ENDBRANCH  32  33
BRANCH  32  35
HETATM   35  N9  UNL     1     -33.905  24.184  -2.691  1.00  0.00    -0.373 N
ATOM     36  H9  UNL     1     -33.699  23.194  -2.555  1.00  0.00     0.157 HD
BRANCH  35  37
HETATM   37  C14 UNL     1     -33.233  25.214  -1.969  1.00  0.00     0.137 C
BRANCH  37  38
HETATM   38  C15 UNL     1     -33.834  25.543  -0.622  1.00  0.00     0.138 C
BRANCH  38  39
HETATM   39  N10 UNL     1     -33.004  24.983   0.416  1.00  0.00    -0.395 N
HETATM   40  C16 UNL     1     -31.823  25.441   0.651  1.00  0.00     0.118 C
ATOM     41  H10 UNL     1     -33.359  24.209   0.977  1.00  0.00     0.159 HD
BRANCH  40  42
HETATM   42  C17 UNL     1     -31.056  24.827   1.710  1.00  0.00     0.110 A
HETATM   43  C18 UNL     1     -31.224  25.274   3.020  1.00  0.00     0.140 A
HETATM   44  C19 UNL     1     -30.451  24.676   3.980  1.00  0.00     0.136 A
HETATM   45  N12 UNL     1     -29.579  23.710   3.660  1.00  0.00    -0.325 N
HETATM   46  C20 UNL     1     -29.453  23.308   2.371  1.00  0.00     0.133 A
ATOM     47  H12 UNL     1     -29.010  23.276   4.387  1.00  0.00     0.169 HD
HETATM   48  C21 UNL     1     -28.664  22.360   1.754  1.00  0.00     0.099 A
HETATM   49  N15 UNL     1     -30.191  23.871   1.406  1.00  0.00    -0.234 N
HETATM   50  C22 UNL     1     -28.939  22.368   0.398  1.00  0.00     0.117 A
HETATM   51  N14 UNL     1     -29.883  23.315   0.240  1.00  0.00    -0.277 N
ATOM     52  H14 UNL     1     -30.305  23.570  -0.653  1.00  0.00     0.189 HD
BRANCH  43  53
HETATM   53  O3  UNL     1     -32.123  26.275   3.324  1.00  0.00    -0.355 OA
ATOM     54  H3  UNL     1     -32.855  26.119   3.910  1.00  0.00     0.218 HD
ENDBRANCH  43  53
BRANCH  44  55
HETATM   55  N11 UNL     1     -30.581  25.091   5.191  1.00  0.00    -0.383 N
ATOM     56 2H11 UNL     1     -31.212  24.632   5.847  1.00  0.00     0.157 HD
ATOM     57 1H11 UNL     1     -30.016  25.890   5.479  1.00  0.00     0.157 HD
ENDBRANCH  44  55
BRANCH  50  58
HETATM   58  N13 UNL     1     -28.371  21.620  -0.463  1.00  0.00    -0.384 N
ATOM     59 2H13 UNL     1     -28.376  20.605  -0.560  1.00  0.00     0.157 HD
ATOM     60 1H13 UNL     1     -27.800  21.956  -1.239  1.00  0.00     0.157 HD
ENDBRANCH  50  58
ENDBRANCH  40  42
ENDBRANCH  38  39
ENDBRANCH  37  38
ENDBRANCH  35  37
ENDBRANCH  32  35
ENDBRANCH  29  32
ENDBRANCH  28  29
ENDBRANCH  27  28
ENDBRANCH  25  26
ENDBRANCH  24  25
ENDBRANCH   2   9
TORSDOF 16
ENDMDL