MODEL 2
REMARK VINA RESULT: -7.692377224      2.642      4.327
REMARK  22 active torsions:
REMARK  status: ('A' for Active; 'I' for Inactive)
REMARK    1  A    between atoms: N1_1  and  C1_5
REMARK    2  A    between atoms: C1_5  and  O1_6
REMARK    3  A    between atoms: C1_5  and  C2_8
REMARK    4  A    between atoms: C3_9  and  O2_10
REMARK    5  A    between atoms: C4_14  and  C5_15
REMARK    6  A    between atoms: C5_15  and  O3_16
REMARK    7  A    between atoms: C5_15  and  O4_18
REMARK    8  A    between atoms: C7_21  and  N3_22
REMARK    9  A    between atoms: N3_22  and  C8_23
REMARK   10  A    between atoms: C8_23  and  C9_24
REMARK   11  A    between atoms: C8_23  and  C24_52
REMARK   12  A    between atoms: C9_24  and  O5_25
REMARK   13  A    between atoms: O5_25  and  C10_26
REMARK   14  A    between atoms: C10_26  and  N4_27
REMARK   15  A    between atoms: C10_26  and  C11_31
REMARK   16  A    between atoms: C14_34  and  C15_35
REMARK   17  A    between atoms: C15_35  and  N5_36
REMARK   18  A    between atoms: N5_36  and  C16_38
REMARK   19  A    between atoms: C17_39  and  O6_40
REMARK   20  A    between atoms: C22_48  and  O9_49
REMARK   21  A    between atoms: C24_52  and  O10_53
REMARK   22  A    between atoms: C24_52  and  O11_55
ROOT
HETATM    1  C8  UNL     1     -39.793  24.114  -4.158  1.00  0.00     0.241 C
ENDROOT
BRANCH   1   2
HETATM    2  N3  UNL     1     -41.125  23.929  -4.302  1.00  0.00    -0.435 NA
BRANCH   2   3
HETATM    3  C7  UNL     1     -42.284  24.093  -4.663  1.00  0.00     0.117 A
HETATM    4  C2  UNL     1     -43.346  23.449  -4.016  1.00  0.00     0.088 A
HETATM    5  C3  UNL     1     -44.614  23.692  -4.455  1.00  0.00     0.154 A
HETATM    6  N2  UNL     1     -44.885  24.514  -5.492  1.00  0.00    -0.336 N
HETATM    7  C4  UNL     1     -43.921  25.140  -6.132  1.00  0.00     0.069 A
ATOM      8  H2  UNL     1     -45.853  24.652  -5.784  1.00  0.00     0.168 HD
HETATM    9  C6  UNL     1     -42.615  24.926  -5.710  1.00  0.00     0.075 A
BRANCH   4  10
HETATM   10  C1  UNL     1     -43.166  22.501  -2.846  1.00  0.00     0.358 C
BRANCH  10  11
HETATM   11  N1  UNL     1     -42.304  21.381  -3.412  1.00  0.00    -0.049 N
ATOM     12  H13 UNL     1     -41.407  21.208  -2.960  1.00  0.00     0.277 HD
ATOM     13  H12 UNL     1     -42.626  20.424  -3.265  1.00  0.00     0.277 HD
ATOM     14  H11 UNL     1     -42.285  21.724  -4.373  1.00  0.00     0.277 HD
ENDBRANCH  10  11
BRANCH  10  15
HETATM   15  O1  UNL     1     -42.141  23.103  -2.037  1.00  0.00    -0.366 OA
ATOM     16  H1  UNL     1     -41.497  23.196  -2.729  1.00  0.00     0.212 HD
ENDBRANCH  10  15
ENDBRANCH   4  10
BRANCH   5  17
HETATM   17  O2  UNL     1     -45.696  23.054  -3.787  1.00  0.00    -0.345 OA
ATOM     18  H2  UNL     1     -46.526  22.975  -4.243  1.00  0.00     0.219 HD
ENDBRANCH   5  17
BRANCH   7  19
HETATM   19  C5  UNL     1     -44.217  26.086  -7.274  1.00  0.00     0.305 C
BRANCH  19  20
HETATM   20  O3  UNL     1     -43.008  26.328  -7.993  1.00  0.00    -0.366 OA
ATOM     21  H3  UNL     1     -43.141  27.068  -8.573  1.00  0.00     0.213 HD
ENDBRANCH  19  20
BRANCH  19  22
HETATM   22  O4  UNL     1     -45.069  25.541  -8.186  1.00  0.00    -0.366 OA
ATOM     23  H4  UNL     1     -44.773  25.676  -9.079  1.00  0.00     0.213 HD
ENDBRANCH  19  22
ENDBRANCH   7  19
ENDBRANCH   2   3
ENDBRANCH   1   2
BRANCH   1  24
HETATM   24  C9  UNL     1     -39.375  25.480  -3.533  1.00  0.00     0.215 C
BRANCH  24  25
HETATM   25  O5  UNL     1     -38.014  25.658  -3.763  1.00  0.00    -0.352 OA
BRANCH  25  26
HETATM   26  C10 UNL     1     -37.586  26.941  -3.266  1.00  0.00     0.353 C
BRANCH  26  27
HETATM   27  N4  UNL     1     -37.442  27.806  -4.373  1.00  0.00    -0.049 N
ATOM     28  H43 UNL     1     -38.309  27.927  -4.896  1.00  0.00     0.277 HD
ATOM     29  H42 UNL     1     -37.311  28.780  -4.099  1.00  0.00     0.277 HD
ATOM     30  H41 UNL     1     -36.679  27.450  -4.949  1.00  0.00     0.277 HD
ENDBRANCH  26  27
BRANCH  26  31
HETATM   31  C11 UNL     1     -36.194  26.579  -2.727  1.00  0.00    -0.000 A
HETATM   32  C12 UNL     1     -35.209  27.530  -2.708  1.00  0.00     0.012 A
HETATM   33  C13 UNL     1     -33.970  27.309  -2.123  1.00  0.00     0.016 A
HETATM   34  C14 UNL     1     -33.795  26.074  -1.562  1.00  0.00     0.012 A
HETATM   35  C22 UNL     1     -34.779  25.064  -1.572  1.00  0.00     0.077 A
HETATM   36  C23 UNL     1     -35.980  25.366  -2.171  1.00  0.00     0.049 A
BRANCH  34  37
HETATM   37  C15 UNL     1     -32.729  25.808  -0.538  1.00  0.00     0.102 C
BRANCH  37  38
HETATM   38  N5  UNL     1     -33.109  25.920   0.801  1.00  0.00    -0.359 N
ATOM     39  H5  UNL     1     -34.105  25.908   1.017  1.00  0.00     0.165 HD
BRANCH  38  40
HETATM   40  C16 UNL     1     -32.190  26.051   1.888  1.00  0.00     0.120 A
HETATM   41  C17 UNL     1     -31.789  25.081   2.642  1.00  0.00     0.147 A
HETATM   42  C18 UNL     1     -30.818  25.226   3.766  1.00  0.00     0.207 A
HETATM   43  O7  UNL     1     -30.465  24.248   4.460  1.00  0.00    -0.285 OA
HETATM   44  C19 UNL     1     -30.323  26.605   3.978  1.00  0.00     0.062 A
HETATM   45  C20 UNL     1     -30.690  27.622   3.240  1.00  0.00     0.061 A
HETATM   46  C21 UNL     1     -31.635  27.424   2.154  1.00  0.00     0.201 A
HETATM   47  O8  UNL     1     -32.021  28.349   1.411  1.00  0.00    -0.286 OA
BRANCH  41  48
HETATM   48  O6  UNL     1     -32.261  23.810   2.444  1.00  0.00    -0.355 OA
ATOM     49  H6  UNL     1     -31.673  23.066   2.498  1.00  0.00     0.218 HD
ENDBRANCH  41  48
ENDBRANCH  38  40
ENDBRANCH  37  38
ENDBRANCH  34  37
BRANCH  35  50
HETATM   50  O9  UNL     1     -34.466  23.843  -1.005  1.00  0.00    -0.360 OA
ATOM     51  H9  UNL     1     -33.684  23.396  -1.306  1.00  0.00     0.217 HD
ENDBRANCH  35  50
ENDBRANCH  26  31
ENDBRANCH  25  26
ENDBRANCH  24  25
ENDBRANCH   1  24
BRANCH   1  52
HETATM   52  C24 UNL     1     -38.900  23.086  -3.501  1.00  0.00     0.291 C
BRANCH  52  53
HETATM   53  O10 UNL     1     -37.783  22.775  -4.216  1.00  0.00    -0.368 OA
ATOM     54  H10 UNL     1     -37.351  23.523  -4.611  1.00  0.00     0.212 HD
ENDBRANCH  52  53
BRANCH  52  55
HETATM   55  O11 UNL     1     -39.594  21.969  -3.047  1.00  0.00    -0.368 OA
ATOM     56  H11 UNL     1     -40.038  22.116  -2.220  1.00  0.00     0.212 HD
ENDBRANCH  52  55
ENDBRANCH   1  52
TORSDOF 22
ENDMDL