MODEL 3
REMARK VINA RESULT: -8.382682166      1.068      1.140
REMARK  16 active torsions:
REMARK  status: ('A' for Active; 'I' for Inactive)
REMARK       I    between atoms: N1_1  and  C1_5
REMARK       I    between atoms: C1_5  and  N2_6
REMARK       I    between atoms: C1_5  and  N3_10
REMARK    1  A    between atoms: C4_17  and  O2_18
REMARK    2  A    between atoms: C5_20  and  N5_21
REMARK    3  A    between atoms: N5_21  and  C6_23
REMARK    4  A    between atoms: C6_23  and  O3_24
REMARK    5  A    between atoms: C6_23  and  C7_26
REMARK    6  A    between atoms: C10_29  and  O4_30
REMARK    7  A    between atoms: N7_36  and  C12_37
REMARK    8  A    between atoms: C12_37  and  C13_38
REMARK    9  A    between atoms: C13_38  and  O6_39
REMARK   10  A    between atoms: C13_38  and  C14_41
REMARK       I    between atoms: C14_41  and  N8_43
REMARK   11  A    between atoms: N8_43  and  C15_45
REMARK   12  A    between atoms: C15_45  and  C16_46
REMARK   13  A    between atoms: C15_45  and  C23_53
REMARK   14  A    between atoms: C16_46  and  C17_47
REMARK   15  A    between atoms: C23_53  and  O8_54
REMARK   16  A    between atoms: C23_53  and  O9_56
ROOT
HETATM    1  N1  UNL     1     -47.414  22.067  -5.181  1.00  0.00    -0.033 N
ATOM      2  H11 UNL     1     -47.453  22.604  -4.314  1.00  0.00     0.278 HD
ATOM      3  H12 UNL     1     -46.923  21.182  -5.058  1.00  0.00     0.278 HD
ATOM      4  H13 UNL     1     -48.329  21.698  -5.440  1.00  0.00     0.278 HD
HETATM    5  C1  UNL     1     -46.827  22.873  -6.254  1.00  0.00     0.481 C
HETATM    6  N2  UNL     1     -46.773  22.110  -7.485  1.00  0.00    -0.033 N
ATOM      7  H21 UNL     1     -46.364  22.671  -8.232  1.00  0.00     0.278 HD
ATOM      8  H22 UNL     1     -47.687  21.741  -7.744  1.00  0.00     0.278 HD
ATOM      9  H23 UNL     1     -46.282  21.225  -7.362  1.00  0.00     0.278 HD
HETATM   10  N3  UNL     1     -45.656  23.482  -5.826  1.00  0.00    -0.322 N
ATOM     11  H3  UNL     1     -45.710  24.484  -6.011  1.00  0.00     0.165 HD
HETATM   12  C2  UNL     1     -44.576  23.220  -5.300  1.00  0.00     0.179 C
HETATM   13  C3  UNL     1     -44.298  21.911  -4.965  1.00  0.00     0.291 C
HETATM   14  O1  UNL     1     -44.719  20.982  -5.685  1.00  0.00    -0.264 OA
HETATM   15  N4  UNL     1     -43.581  21.453  -3.888  1.00  0.00    -0.299 N
ATOM     16  H4  UNL     1     -43.659  20.457  -3.683  1.00  0.00     0.171 HD
HETATM   17  C4  UNL     1     -42.775  22.185  -3.061  1.00  0.00     0.175 C
HETATM   18  C5  UNL     1     -42.159  23.364  -3.432  1.00  0.00     0.151 C
HETATM   19  C11 UNL     1     -42.704  24.323  -4.285  1.00  0.00     0.280 C
HETATM   20  O5  UNL     1     -42.063  25.403  -4.269  1.00  0.00    -0.265 OA
HETATM   21  N7  UNL     1     -43.766  24.309  -5.106  1.00  0.00    -0.291 N
ENDROOT
BRANCH  21  22
HETATM   22  C12 UNL     1     -44.053  25.532  -5.801  1.00  0.00     0.175 C
BRANCH  22  23
HETATM   23  C13 UNL     1     -43.487  25.589  -7.201  1.00  0.00     0.228 C
BRANCH  23  24
HETATM   24  O6  UNL     1     -44.464  25.696  -8.158  1.00  0.00    -0.384 OA
ATOM     25  H6  UNL     1     -44.169  26.168  -8.927  1.00  0.00     0.210 HD
ENDBRANCH  23  24
BRANCH  23  26
HETATM   26  C14 UNL     1     -42.625  26.804  -7.271  1.00  0.00     0.248 C
HETATM   27  O7  UNL     1     -42.941  27.857  -6.666  1.00  0.00    -0.271 OA
HETATM   28  N8  UNL     1     -41.423  26.810  -8.022  1.00  0.00    -0.349 N
ATOM     29  H8  UNL     1     -41.165  25.958  -8.518  1.00  0.00     0.163 HD
BRANCH  28  30
HETATM   30  C15 UNL     1     -40.533  27.961  -8.129  1.00  0.00     0.143 C
BRANCH  30  31
HETATM   31  C16 UNL     1     -40.043  27.981  -9.532  1.00  0.00     0.068 C
BRANCH  31  32
HETATM   32  C17 UNL     1     -41.047  28.121 -10.592  1.00  0.00    -0.056 A
HETATM   33  C18 UNL     1     -42.033  29.091 -10.588  1.00  0.00     0.007 A
HETATM   34  C19 UNL     1     -42.971  29.202 -11.588  1.00  0.00     0.001 A
HETATM   35  C20 UNL     1     -42.909  28.296 -12.632  1.00  0.00     0.000 A
HETATM   36  C21 UNL     1     -41.949  27.315 -12.679  1.00  0.00     0.001 A
HETATM   37  C22 UNL     1     -41.029  27.239 -11.657  1.00  0.00     0.007 A
ENDBRANCH  31  32
ENDBRANCH  30  31
BRANCH  30  38
HETATM   38  C23 UNL     1     -39.492  27.943  -7.068  1.00  0.00     0.276 C
BRANCH  38  39
HETATM   39  O8  UNL     1     -40.026  28.092  -5.785  1.00  0.00    -0.369 OA
ATOM     40  H8  UNL     1     -40.897  28.471  -5.791  1.00  0.00     0.212 HD
ENDBRANCH  38  39
BRANCH  38  41
HETATM   41  O9  UNL     1     -38.707  26.802  -7.068  1.00  0.00    -0.369 OA
ATOM     42  H9  UNL     1     -38.618  26.394  -6.215  1.00  0.00     0.212 HD
ENDBRANCH  38  41
ENDBRANCH  30  38
ENDBRANCH  28  30
ENDBRANCH  23  26
ENDBRANCH  22  23
ENDBRANCH  21  22
BRANCH  18  43
HETATM   43  N5  UNL     1     -40.885  23.611  -2.909  1.00  0.00    -0.351 N
ATOM     44  H5  UNL     1     -40.842  24.062  -1.995  1.00  0.00     0.163 HD
BRANCH  43  45
HETATM   45  C6  UNL     1     -39.650  23.296  -3.525  1.00  0.00     0.269 C
BRANCH  45  46
HETATM   46  O3  UNL     1     -39.731  23.044  -4.904  1.00  0.00    -0.371 OA
ATOM     47  H3  UNL     1     -39.208  23.624  -5.444  1.00  0.00     0.212 HD
ENDBRANCH  45  46
BRANCH  45  48
HETATM   48  C7  UNL     1     -38.736  24.504  -3.418  1.00  0.00     0.060 A
HETATM   49  C8  UNL     1     -37.714  24.597  -2.497  1.00  0.00     0.034 A
HETATM   50  C9  UNL     1     -37.106  25.841  -2.698  1.00  0.00     0.058 A
HETATM   51  C10 UNL     1     -37.782  26.455  -3.732  1.00  0.00     0.140 A
HETATM   52  N6  UNL     1     -38.753  25.630  -4.144  1.00  0.00    -0.337 N
ATOM     53  H6  UNL     1     -39.409  25.830  -4.900  1.00  0.00     0.168 HD
BRANCH  51  54
HETATM   54  O4  UNL     1     -37.503  27.701  -4.251  1.00  0.00    -0.346 OA
ATOM     55  H4  UNL     1     -38.009  28.152  -4.917  1.00  0.00     0.219 HD
ENDBRANCH  51  54
ENDBRANCH  45  48
ENDBRANCH  43  45
ENDBRANCH  18  43
BRANCH  17  56
HETATM   56  O2  UNL     1     -42.568  21.719  -1.783  1.00  0.00    -0.344 OA
ATOM     57  H2  UNL     1     -43.066  20.961  -1.500  1.00  0.00     0.219 HD
ENDBRANCH  17  56
TORSDOF 16
ENDMDL