MODEL 2
REMARK VINA RESULT: -7.722458044      3.277      8.181
REMARK  18 active torsions:
REMARK  status: ('A' for Active; 'I' for Inactive)
REMARK    1  A    between atoms: N1_1  and  C1_4
REMARK    2  A    between atoms: C7_13  and  C8_14
REMARK    3  A    between atoms: C8_14  and  C9_15
REMARK    4  A    between atoms: C9_15  and  C10_16
REMARK    5  A    between atoms: C10_16  and  N4_17
REMARK    6  A    between atoms: C10_16  and  C11_21
REMARK    7  A    between atoms: C11_21  and  N5_22
REMARK    8  A    between atoms: C11_21  and  C12_26
REMARK    9  A    between atoms: C12_26  and  O1_27
REMARK   10  A    between atoms: C12_26  and  C13_29
REMARK   11  A    between atoms: C13_29  and  O2_30
REMARK   12  A    between atoms: C14_34  and  N7_35
REMARK   13  A    between atoms: C17_44  and  S1_45
REMARK   14  A    between atoms: S1_45  and  C18_46
REMARK   15  A    between atoms: C18_46  and  C19_47
REMARK   16  A    between atoms: C19_47  and  O3_48
REMARK   17  A    between atoms: C19_47  and  C20_50
REMARK   18  A    between atoms: C20_50  and  O4_51
ROOT
HETATM    1  C1  UNL     1     -42.604  23.515  -4.321  1.00  0.00     0.116 A
HETATM    2  C2  UNL     1     -42.498  24.728  -4.953  1.00  0.00     0.082 A
HETATM    3  C3  UNL     1     -41.263  25.265  -4.654  1.00  0.00     0.074 A
HETATM    4  N2  UNL     1     -40.667  24.366  -3.855  1.00  0.00    -0.252 N
HETATM    5  N3  UNL     1     -41.460  23.332  -3.659  1.00  0.00    -0.278 N
ATOM      6  H3  UNL     1     -41.234  22.518  -3.089  1.00  0.00     0.189 HD
HETATM    7  C4  UNL     1     -39.537  25.212  -3.784  1.00  0.00     0.088 A
HETATM    8  C5  UNL     1     -40.112  26.156  -4.597  1.00  0.00     0.037 A
HETATM    9  C6  UNL     1     -39.434  27.310  -4.925  1.00  0.00     0.032 A
HETATM   10  C7  UNL     1     -39.974  28.262  -5.746  1.00  0.00     0.040 A
HETATM   11  N6  UNL     1     -39.231  29.371  -6.043  1.00  0.00    -0.195 N
ATOM     12  H6  UNL     1     -39.622  30.088  -6.655  1.00  0.00     0.184 HD
HETATM   13  C14 UNL     1     -38.009  29.530  -5.547  1.00  0.00     0.676 A
HETATM   14  N8  UNL     1     -37.427  28.629  -4.732  1.00  0.00    -0.189 N
ATOM     15  H8  UNL     1     -36.487  28.769  -4.360  1.00  0.00     0.184 HD
HETATM   16  C15 UNL     1     -38.145  27.541  -4.438  1.00  0.00     0.090 A
HETATM   17  C16 UNL     1     -37.576  26.588  -3.623  1.00  0.00     0.081 A
HETATM   18  N9  UNL     1     -36.334  26.761  -3.128  1.00  0.00    -0.334 N
ATOM     19  H9  UNL     1     -35.807  27.605  -3.353  1.00  0.00     0.168 HD
HETATM   20  C17 UNL     1     -35.794  25.819  -2.338  1.00  0.00     0.147 A
HETATM   21  N10 UNL     1     -36.441  24.691  -2.007  1.00  0.00    -0.303 N
ATOM     22  H10 UNL     1     -35.997  23.999  -1.403  1.00  0.00     0.171 HD
HETATM   23  C21 UNL     1     -37.682  24.485  -2.483  1.00  0.00     0.262 A
HETATM   24  O5  UNL     1     -38.309  23.454  -2.198  1.00  0.00    -0.267 OA
HETATM   25  C22 UNL     1     -38.261  25.441  -3.299  1.00  0.00     0.091 A
ENDROOT
BRANCH  10  26
HETATM   26  C8  UNL     1     -41.332  28.131  -6.271  1.00  0.00     0.060 C
BRANCH  26  27
HETATM   27  C9  UNL     1     -41.559  28.789  -7.620  1.00  0.00     0.041 C
BRANCH  27  28
HETATM   28  C10 UNL     1     -41.814  27.680  -8.590  1.00  0.00     0.216 C
BRANCH  28  29
HETATM   29  N4  UNL     1     -42.328  26.501  -7.910  1.00  0.00    -0.073 N
ATOM     30  H43 UNL     1     -42.627  26.716  -6.959  1.00  0.00     0.274 HD
ATOM     31  H42 UNL     1     -43.227  26.208  -8.293  1.00  0.00     0.274 HD
ATOM     32  H41 UNL     1     -41.646  25.743  -7.928  1.00  0.00     0.274 HD
ENDBRANCH  28  29
BRANCH  28  33
HETATM   33  C11 UNL     1     -40.746  27.337  -9.545  1.00  0.00     0.244 C
BRANCH  33  34
HETATM   34  N5  UNL     1     -41.086  27.605 -10.927  1.00  0.00    -0.070 N
ATOM     35  H53 UNL     1     -41.758  26.919 -11.270  1.00  0.00     0.274 HD
ATOM     36  H52 UNL     1     -41.650  28.451 -11.000  1.00  0.00     0.274 HD
ATOM     37  H51 UNL     1     -40.278  27.658 -11.549  1.00  0.00     0.274 HD
ENDBRANCH  33  34
BRANCH  33  38
HETATM   38  C12 UNL     1     -39.338  27.676  -9.181  1.00  0.00     0.174 C
BRANCH  38  39
HETATM   39  O1  UNL     1     -38.792  26.552  -8.477  1.00  0.00    -0.391 OA
ATOM     40  H1  UNL     1     -38.067  26.218  -8.991  1.00  0.00     0.210 HD
ENDBRANCH  38  39
BRANCH  38  41
HETATM   41  C13 UNL     1     -38.421  27.781 -10.405  1.00  0.00     0.197 C
BRANCH  41  42
HETATM   42  O2  UNL     1     -38.011  26.470 -10.685  1.00  0.00    -0.398 OA
ATOM     43  H2  UNL     1     -37.616  26.503 -11.548  1.00  0.00     0.209 HD
ENDBRANCH  41  42
ENDBRANCH  38  41
ENDBRANCH  33  38
ENDBRANCH  28  33
ENDBRANCH  27  28
ENDBRANCH  26  27
ENDBRANCH  10  26
BRANCH  13  44
HETATM   44  N7  UNL     1     -37.328  30.600  -5.849  1.00  0.00    -0.234 N
ATOM     45  H72 UNL     1     -37.133  30.773  -6.836  1.00  0.00     0.174 HD
ATOM     46  H71 UNL     1     -37.015  31.223  -5.105  1.00  0.00     0.174 HD
ENDBRANCH  13  44
BRANCH   1  47
HETATM   47  N1  UNL     1     -43.636  22.702  -4.366  1.00  0.00    -0.384 N
ATOM     48  H12 UNL     1     -44.622  22.951  -4.289  1.00  0.00     0.157 HD
ATOM     49  H11 UNL     1     -43.602  21.690  -4.485  1.00  0.00     0.157 HD
ENDBRANCH   1  47
BRANCH  20  50
HETATM   50  S1  UNL     1     -34.153  26.075  -1.709  1.00  0.00    -0.091 SA
BRANCH  50  51
HETATM   51  C18 UNL     1     -32.907  25.255  -2.737  1.00  0.00     0.116 C
BRANCH  51  52
HETATM   52  C19 UNL     1     -33.122  23.775  -2.782  1.00  0.00     0.151 C
BRANCH  52  53
HETATM   53  O3  UNL     1     -31.948  23.097  -2.465  1.00  0.00    -0.393 OA
ATOM     54  H3  UNL     1     -31.524  22.771  -3.250  1.00  0.00     0.210 HD
ENDBRANCH  52  53
BRANCH  52  55
HETATM   55  C20 UNL     1     -33.502  23.344  -4.183  1.00  0.00     0.196 C
BRANCH  55  56
HETATM   56  O4  UNL     1     -34.878  23.295  -4.372  1.00  0.00    -0.398 OA
ATOM     57  H4  UNL     1     -35.192  23.979  -4.952  1.00  0.00     0.209 HD
ENDBRANCH  55  56
ENDBRANCH  52  55
ENDBRANCH  51  52
ENDBRANCH  50  51
ENDBRANCH  20  50
TORSDOF 18
ENDMDL