MODEL 1
REMARK VINA RESULT: -8.178361468      0.000      0.000
REMARK  18 active torsions:
REMARK  status: ('A' for Active; 'I' for Inactive)
REMARK    1  A    between atoms: C5_10  and  C6_11
REMARK    2  A    between atoms: C6_11  and  N4_12
REMARK    3  A    between atoms: N4_12  and  C7_14
REMARK    4  A    between atoms: C9_16  and  N5_17
REMARK    5  A    between atoms: N5_17  and  C10_19
REMARK    6  A    between atoms: C10_19  and  C11_20
REMARK    7  A    between atoms: C11_20  and  O1_21
REMARK    8  A    between atoms: C11_20  and  C12_23
REMARK    9  A    between atoms: C12_23  and  O2_24
REMARK   10  A    between atoms: C14_27  and  N6_28
REMARK   11  A    between atoms: N6_28  and  C15_30
REMARK   12  A    between atoms: C15_30  and  O3_31
REMARK   13  A    between atoms: C15_30  and  C16_33
REMARK   14  A    between atoms: C16_33  and  C17_34
REMARK   15  A    between atoms: C17_34  and  O4_35
REMARK   16  A    between atoms: C17_34  and  C18_37
REMARK   17  A    between atoms: C19_40  and  N8_41
REMARK   18  A    between atoms: C22_50  and  N11_51
ROOT
HETATM    1  N1  UNL     1     -42.543  21.825  -2.693  1.00  0.00    -0.188 NA
HETATM    2  C1  UNL     1     -42.083  22.752  -3.218  1.00  0.00     0.139 C
HETATM    3  C2  UNL     1     -41.502  23.901  -3.849  1.00  0.00     0.211 A
HETATM    4  N2  UNL     1     -41.958  24.626  -4.881  1.00  0.00    -0.275 N
ATOM      5  H2  UNL     1     -42.827  24.445  -5.381  1.00  0.00     0.189 HD
HETATM    6  N3  UNL     1     -41.118  25.613  -5.158  1.00  0.00    -0.283 N
ATOM      7  H3  UNL     1     -41.236  26.305  -5.898  1.00  0.00     0.188 HD
HETATM    8  C3  UNL     1     -40.083  25.547  -4.299  1.00  0.00     0.129 A
HETATM    9  C4  UNL     1     -38.892  26.152  -3.945  1.00  0.00     0.060 A
HETATM   10  C5  UNL     1     -38.391  25.432  -2.884  1.00  0.00    -0.021 A
HETATM   11  C23 UNL     1     -39.297  24.423  -2.637  1.00  0.00     0.110 A
HETATM   12  N13 UNL     1     -40.325  24.497  -3.501  1.00  0.00    -0.282 N
ENDROOT
BRANCH  10  13
HETATM   13  C6  UNL     1     -37.120  25.663  -2.113  1.00  0.00     0.161 C
BRANCH  13  14
HETATM   14  N4  UNL     1     -36.036  25.817  -3.030  1.00  0.00    -0.372 N
ATOM     15  H4  UNL     1     -36.269  26.193  -3.949  1.00  0.00     0.161 HD
BRANCH  14  16
HETATM   16  C7  UNL     1     -34.805  25.538  -2.826  1.00  0.00     0.104 C
HETATM   17  C8  UNL     1     -34.060  26.641  -2.411  1.00  0.00     0.077 C
HETATM   18  C9  UNL     1     -32.768  26.661  -1.933  1.00  0.00     0.033 C
HETATM   19  C13 UNL     1     -31.956  25.544  -1.700  1.00  0.00     0.062 C
HETATM   20  C14 UNL     1     -32.067  24.259  -2.148  1.00  0.00     0.076 C
HETATM   21  C22 UNL     1     -33.182  23.759  -2.801  1.00  0.00     0.127 C
HETATM   22  N12 UNL     1     -34.394  24.295  -3.019  1.00  0.00    -0.327 N
ATOM     23  H12 UNL     1     -35.097  23.653  -3.386  1.00  0.00     0.169 HD
BRANCH  18  24
HETATM   24  N5  UNL     1     -32.210  27.932  -1.651  1.00  0.00    -0.387 N
ATOM     25  H5  UNL     1     -31.433  28.259  -2.225  1.00  0.00     0.159 HD
BRANCH  24  26
HETATM   26  C10 UNL     1     -32.687  28.780  -0.596  1.00  0.00     0.153 C
BRANCH  26  27
HETATM   27  C11 UNL     1     -31.713  28.849   0.546  1.00  0.00     0.159 C
BRANCH  27  28
HETATM   28  O1  UNL     1     -32.087  28.073   1.623  1.00  0.00    -0.392 OA
ATOM     29  H1  UNL     1     -31.361  27.596   2.009  1.00  0.00     0.210 HD
ENDBRANCH  27  28
BRANCH  27  30
HETATM   30  C12 UNL     1     -30.350  28.395   0.067  1.00  0.00     0.197 C
BRANCH  30  31
HETATM   31  O2  UNL     1     -30.005  27.161   0.620  1.00  0.00    -0.398 OA
ATOM     32  H2  UNL     1     -30.531  26.460   0.252  1.00  0.00     0.209 HD
ENDBRANCH  30  31
ENDBRANCH  27  30
ENDBRANCH  26  27
ENDBRANCH  24  26
ENDBRANCH  18  24
BRANCH  20  33
HETATM   33  N6  UNL     1     -31.011  23.376  -1.942  1.00  0.00    -0.358 N
ATOM     34  H6  UNL     1     -31.265  22.453  -1.593  1.00  0.00     0.162 HD
BRANCH  33  35
HETATM   35  C15 UNL     1     -29.589  23.604  -2.162  1.00  0.00     0.245 C
BRANCH  35  36
HETATM   36  O3  UNL     1     -29.004  22.770  -3.063  1.00  0.00    -0.373 OA
ATOM     37  H3  UNL     1     -28.054  22.761  -3.046  1.00  0.00     0.212 HD
ENDBRANCH  35  36
BRANCH  35  38
HETATM   38  C16 UNL     1     -28.958  23.734  -0.825  1.00  0.00     0.065 C
BRANCH  38  39
HETATM   39  C17 UNL     1     -29.515  23.147   0.358  1.00  0.00     0.095 C
BRANCH  39  40
HETATM   40  O4  UNL     1     -29.597  21.822   0.277  1.00  0.00    -0.358 OA
ATOM     41  H4  UNL     1     -30.431  21.530  -0.074  1.00  0.00     0.217 HD
ENDBRANCH  39  40
BRANCH  39  42
HETATM   42  C18 UNL     1     -30.001  23.671   1.603  1.00  0.00     0.112 A
HETATM   43  N7  UNL     1     -31.097  24.419   1.779  1.00  0.00    -0.187 N
HETATM   44  C19 UNL     1     -31.486  24.859   3.014  1.00  0.00     0.679 A
ATOM     45  H7  UNL     1     -31.660  24.669   0.966  1.00  0.00     0.184 HD
HETATM   46  N9  UNL     1     -30.801  24.577   4.136  1.00  0.00    -0.155 N
HETATM   47  C20 UNL     1     -29.695  23.830   4.013  1.00  0.00     0.286 A
ATOM     48  H9  UNL     1     -31.111  24.917   5.046  1.00  0.00     0.187 HD
HETATM   49  O5  UNL     1     -29.026  23.548   5.067  1.00  0.00    -0.266 OA
HETATM   50  C21 UNL     1     -29.299  23.386   2.792  1.00  0.00     0.144 A
HETATM   51  N10 UNL     1     -28.114  22.595   2.705  1.00  0.00    -0.094 NA
BRANCH  44  52
HETATM   52  N8  UNL     1     -32.554  25.576   3.103  1.00  0.00    -0.234 N
ATOM     53  H82 UNL     1     -32.882  26.074   2.275  1.00  0.00     0.174 HD
ATOM     54  H81 UNL     1     -33.036  25.621   4.000  1.00  0.00     0.174 HD
ENDBRANCH  44  52
ENDBRANCH  39  42
ENDBRANCH  38  39
ENDBRANCH  35  38
ENDBRANCH  33  35
ENDBRANCH  20  33
BRANCH  21  55
HETATM   55  N11 UNL     1     -33.006  22.577  -3.271  1.00  0.00    -0.384 N
ATOM     56 2H11 UNL     1     -32.195  22.075  -2.908  1.00  0.00     0.157 HD
ATOM     57 1H11 UNL     1     -33.716  22.305  -3.952  1.00  0.00     0.157 HD
ENDBRANCH  21  55
ENDBRANCH  14  16
ENDBRANCH  13  14
ENDBRANCH  10  13
TORSDOF 18
ENDMDL