MODEL 5
REMARK VINA RESULT: -8.016528852      2.324      5.191
REMARK  9 active torsions:
REMARK  status: ('A' for Active; 'I' for Inactive)
REMARK    1  A    between atoms: C2_2  and  C4_4
REMARK    2  A    between atoms: C5_5  and  C6_6
REMARK    3  A    between atoms: C6_6  and  O1_7
REMARK    4  A    between atoms: C8_10  and  O2_11
REMARK    5  A    between atoms: O2_11  and  C9_12
REMARK    6  A    between atoms: C9_12  and  C10_13
REMARK    7  A    between atoms: C10_13  and  O3_14
REMARK    8  A    between atoms: O3_14  and  N1_15
REMARK    9  A    between atoms: C20_27  and  O4_28
ROOT
HETATM    1  C6  UNL     1      10.967 159.704  32.649  1.00  0.00     0.082 C
HETATM    2  C7  UNL     1      10.452 158.510  31.902  1.00  0.00     0.075 C
HETATM    3  C8  UNL     1       9.532 159.060  30.788  1.00  0.00     0.133 C
HETATM    4  C11 UNL     1      10.221 160.361  30.481  1.00  0.00    -0.011 C
HETATM    5  C12 UNL     1      11.463 160.053  29.714  1.00  0.00     0.018 C
HETATM    6  C13 UNL     1       9.308 161.323  29.748  1.00  0.00     0.012 C
HETATM    7  C14 UNL     1      10.008 162.530  29.204  1.00  0.00     0.006 C
HETATM    8  C15 UNL     1       9.713 163.828  29.820  1.00  0.00    -0.001 C
HETATM    9  C16 UNL     1       8.250 164.127  30.024  1.00  0.00     0.010 C
HETATM   10  C17 UNL     1       8.412 165.598  30.473  1.00  0.00     0.035 C
HETATM   11  C18 UNL     1       9.518 165.423  31.468  1.00  0.00    -0.072 C
HETATM   12  C19 UNL     1       9.879 166.026  32.591  1.00  0.00     0.008 C
HETATM   13  C20 UNL     1      11.076 165.571  33.353  1.00  0.00     0.141 C
HETATM   14  C21 UNL     1      11.030 164.095  33.443  1.00  0.00     0.041 C
HETATM   15  C22 UNL     1      10.473 163.381  32.215  1.00  0.00     0.001 C
HETATM   16  C23 UNL     1      11.279 162.110  31.992  1.00  0.00     0.014 C
HETATM   17  C24 UNL     1      10.426 160.906  31.850  1.00  0.00     0.035 C
HETATM   18  C25 UNL     1      10.387 164.282  31.033  1.00  0.00    -0.013 C
HETATM   19  C26 UNL     1      11.733 164.859  30.638  1.00  0.00     0.021 C
ENDROOT
BRANCH   1  20
HETATM   20  C5  UNL     1      12.417 159.753  32.729  1.00  0.00     0.012 C
HETATM   21  C4  UNL     1      13.248 160.203  33.593  1.00  0.00     0.005 C
BRANCH  21  22
HETATM   22  C2  UNL     1      13.135 160.853  34.857  1.00  0.00    -0.072 C
HETATM   23  C1  UNL     1      13.706 162.093  34.937  1.00  0.00     0.018 C
HETATM   24  C3  UNL     1      12.490 160.370  36.083  1.00  0.00     0.047 C
ENDBRANCH  21  22
ENDBRANCH   1  20
BRANCH   1  25
HETATM   25  O1  UNL     1      10.399 159.766  33.907  1.00  0.00    -0.385 OA
ATOM     26  H1  UNL     1       9.561 160.213  33.881  1.00  0.00     0.211 HD
ENDBRANCH   1  25
BRANCH   3  27
HETATM   27  O2  UNL     1       9.517 158.238  29.733  1.00  0.00    -0.383 OA
BRANCH  27  28
HETATM   28  C9  UNL     1       8.444 157.746  29.134  1.00  0.00     0.197 C
BRANCH  28  29
HETATM   29  C10 UNL     1       7.123 157.840  29.827  1.00  0.00     0.226 C
BRANCH  29  30
HETATM   30  O3  UNL     1       7.019 156.952  30.860  1.00  0.00    -0.285 OA
BRANCH  30  31
HETATM   31  N1  UNL     1       6.258 157.361  31.874  1.00  0.00    -0.311 N
ATOM     32  H12 UNL     1       6.319 158.311  32.241  1.00  0.00     0.184 HD
ATOM     33  H11 UNL     1       5.622 156.655  32.244  1.00  0.00     0.184 HD
ENDBRANCH  30  31
ENDBRANCH  29  30
ENDBRANCH  28  29
ENDBRANCH  27  28
ENDBRANCH   3  27
BRANCH  13  34
HETATM   34  O4  UNL     1      10.886 166.088  34.661  1.00  0.00    -0.392 OA
ATOM     35  H4  UNL     1      11.106 167.010  34.588  1.00  0.00     0.210 HD
ENDBRANCH  13  34
TORSDOF 9
ENDMDL