MODEL 4
REMARK VINA RESULT: -7.598366402      2.130      6.034
REMARK  11 active torsions:
REMARK  status: ('A' for Active; 'I' for Inactive)
REMARK    1  A    between atoms: C2_2  and  C3_3
REMARK    2  A    between atoms: C2_2  and  C24_30
REMARK    3  A    between atoms: C4_4  and  C5_5
REMARK    4  A    between atoms: C5_5  and  O1_7
REMARK    5  A    between atoms: C5_5  and  C12_15
REMARK    6  A    between atoms: O1_7  and  C7_8
REMARK    7  A    between atoms: C7_8  and  O3_10
REMARK    8  A    between atoms: O3_10  and  C8_11
REMARK    9  A    between atoms: C12_15  and  C13_17
REMARK   10  A    between atoms: C20_24  and  O5_25
REMARK   11  A    between atoms: C24_30  and  O6_31
ROOT
HETATM    1  C5  UNL     1      10.284 162.591  30.754  1.00  0.00     0.148 C
HETATM    2  C6  UNL     1       9.849 163.778  29.907  1.00  0.00     0.060 C
ENDROOT
BRANCH   1   3
HETATM    3  C4  UNL     1      10.465 161.499  29.721  1.00  0.00     0.015 C
HETATM    4  C3  UNL     1      10.775 161.780  28.472  1.00  0.00    -0.021 C
BRANCH   4   5
HETATM    5  C2  UNL     1      10.971 160.790  27.403  1.00  0.00     0.027 C
HETATM    6  C1  UNL     1      12.421 160.409  27.282  1.00  0.00     0.016 C
BRANCH   5   7
HETATM    7  C24 UNL     1      10.071 159.592  27.501  1.00  0.00     0.172 C
BRANCH   7   8
HETATM    8  O6  UNL     1       8.844 159.761  26.889  1.00  0.00    -0.400 OA
ATOM      9  H6  UNL     1       8.122 159.356  27.355  1.00  0.00     0.209 HD
ENDBRANCH   7   8
ENDBRANCH   5   7
ENDBRANCH   4   5
ENDBRANCH   1   3
BRANCH   1  10
HETATM   10  O1  UNL     1       9.279 162.154  31.614  1.00  0.00    -0.275 OA
BRANCH  10  11
HETATM   11  C7  UNL     1       8.013 161.786  31.243  1.00  0.00     0.408 C
HETATM   12  O2  UNL     1       7.073 162.559  31.492  1.00  0.00    -0.229 OA
BRANCH  11  13
HETATM   13  O3  UNL     1       7.745 160.600  30.608  1.00  0.00    -0.288 OA
BRANCH  13  14
HETATM   14  C8  UNL     1       7.798 159.362  31.284  1.00  0.00     0.062 C
HETATM   15  C9  UNL     1       8.544 158.303  30.538  1.00  0.00     0.046 C
HETATM   16  C10 UNL     1       8.360 159.594  32.678  1.00  0.00     0.046 C
HETATM   17  C11 UNL     1       6.371 158.857  31.481  1.00  0.00     0.046 C
ENDBRANCH  13  14
ENDBRANCH  11  13
ENDBRANCH  10  11
ENDBRANCH   1  10
BRANCH   1  18
HETATM   18  C12 UNL     1      11.560 162.931  31.377  1.00  0.00     0.174 C
HETATM   19  O4  UNL     1      12.199 163.727  30.690  1.00  0.00    -0.293 OA
BRANCH  18  20
HETATM   20  C13 UNL     1      12.164 162.484  32.640  1.00  0.00     0.025 C
HETATM   21  C14 UNL     1      11.783 163.499  33.709  1.00  0.00     0.024 C
HETATM   22  C15 UNL     1      13.673 162.509  32.643  1.00  0.00     0.017 C
HETATM   23  C16 UNL     1      14.272 161.283  31.972  1.00  0.00     0.002 C
HETATM   24  C17 UNL     1      13.879 160.128  32.854  1.00  0.00     0.012 C
HETATM   25  C18 UNL     1      12.413 159.952  32.736  1.00  0.00    -0.013 C
HETATM   26  C19 UNL     1      12.096 159.339  31.375  1.00  0.00     0.018 C
HETATM   27  C20 UNL     1      11.860 158.942  33.736  1.00  0.00     0.126 C
HETATM   28  C23 UNL     1      11.619 161.153  33.066  1.00  0.00     0.012 C
HETATM   29  C21 UNL     1      11.752 159.698  35.005  1.00  0.00     0.033 C
HETATM   30  C22 UNL     1      11.256 161.061  34.508  1.00  0.00     0.009 C
BRANCH  27  31
HETATM   31  O5  UNL     1      12.596 157.789  33.799  1.00  0.00    -0.395 OA
ATOM     32  H5  UNL     1      13.530 157.946  33.883  1.00  0.00     0.210 HD
ENDBRANCH  27  31
ENDBRANCH  18  20
ENDBRANCH   1  18
TORSDOF 11
ENDMDL