MODEL 4
REMARK VINA RESULT: -8.270903941      3.005      4.516
REMARK  7 active torsions:
REMARK  status: ('A' for Active; 'I' for Inactive)
REMARK    1  A    between atoms: C3_6  and  N3_7
REMARK       I    between atoms: N3_7  and  C4_9
REMARK    2  A    between atoms: C4_9  and  O2_11
REMARK    3  A    between atoms: O2_11  and  C5_12
REMARK    4  A    between atoms: C12_19  and  C13_20
REMARK    5  A    between atoms: C13_20  and  C14_21
REMARK    6  A    between atoms: C14_21  and  C15_22
REMARK    7  A    between atoms: C22_30  and  C23_31
ROOT
HETATM    1  C5  UNL     1      12.949 160.073  32.766  1.00  0.00     0.097 C
HETATM    2  C6  UNL     1      14.061 159.457  33.581  1.00  0.00     0.044 C
HETATM    3  C7  UNL     1      13.635 159.224  34.997  1.00  0.00     0.035 C
HETATM    4  C8  UNL     1      12.438 159.979  35.455  1.00  0.00     0.122 C
HETATM    5  C9  UNL     1      12.763 161.290  36.108  1.00  0.00     0.036 C
HETATM    6  C10 UNL     1      12.737 162.475  35.166  1.00  0.00    -0.011 C
HETATM    7  C11 UNL     1      11.379 162.996  34.890  1.00  0.00     0.009 C
HETATM    8  C12 UNL     1      11.019 163.181  33.458  1.00  0.00    -0.014 C
HETATM    9  C18 UNL     1      11.527 162.130  32.526  1.00  0.00     0.012 C
HETATM   10  C19 UNL     1      12.880 161.565  32.800  1.00  0.00     0.024 C
HETATM   11  C20 UNL     1      13.583 162.217  33.962  1.00  0.00     0.012 C
HETATM   12  O3  UNL     1      11.441 160.147  34.528  1.00  0.00    -0.383 OA
HETATM   13  C21 UNL     1      11.690 159.436  33.395  1.00  0.00     0.207 C
ENDROOT
BRANCH   1  14
HETATM   14  O2  UNL     1      12.960 159.552  31.455  1.00  0.00    -0.290 OA
BRANCH  14  15
HETATM   15  C4  UNL     1      11.915 158.830  30.882  1.00  0.00     0.366 C
HETATM   16  N3  UNL     1      10.871 159.448  30.164  1.00  0.00    -0.299 N
ATOM     17  H3  UNL     1      10.918 160.464  30.084  1.00  0.00     0.171 HD
HETATM   18  O1  UNL     1      11.966 157.602  31.046  1.00  0.00    -0.238 OA
BRANCH  16  19
HETATM   19  C3  UNL     1       9.775 158.828  29.549  1.00  0.00     0.089 A
HETATM   20  C2  UNL     1       8.641 158.421  30.215  1.00  0.00     0.139 A
HETATM   21  N2  UNL     1       7.837 157.874  29.258  1.00  0.00    -0.307 N
HETATM   22  N1  UNL     1       8.427 157.939  28.092  1.00  0.00    -0.289 N
ATOM     23  H2  UNL     1       6.914 157.475  29.426  1.00  0.00     0.186 HD
HETATM   24  C1  UNL     1       7.878 157.454  26.819  1.00  0.00     0.178 C
HETATM   25  C22 UNL     1       9.647 158.526  28.202  1.00  0.00     0.155 A
BRANCH  25  26
HETATM   26  C23 UNL     1      10.585 158.763  27.100  1.00  0.00     0.230 C
HETATM   27  O4  UNL     1      11.697 158.149  27.135  1.00  0.00    -0.643 OA
HETATM   28  O5  UNL     1      10.330 159.604  26.040  1.00  0.00    -0.643 OA
ENDBRANCH  25  26
ENDBRANCH  16  19
ENDBRANCH  14  15
ENDBRANCH   1  14
BRANCH   8  29
HETATM   29  C13 UNL     1      11.328 164.535  32.899  1.00  0.00     0.005 C
BRANCH  29  30
HETATM   30  C14 UNL     1      10.160 165.392  32.559  1.00  0.00     0.005 C
BRANCH  30  31
HETATM   31  C15 UNL     1      10.164 165.924  31.148  1.00  0.00    -0.014 A
HETATM   32  C16 UNL     1      10.688 164.963  30.126  1.00  0.00     0.005 A
HETATM   33  C17 UNL     1       9.251 165.241  30.118  1.00  0.00     0.005 A
ENDBRANCH  30  31
ENDBRANCH  29  30
ENDBRANCH   8  29
TORSDOF 7
ENDMDL