MODEL 2
REMARK VINA RESULT: -8.805121024      1.193      2.727
REMARK  7 active torsions:
REMARK  status: ('A' for Active; 'I' for Inactive)
REMARK    1  A    between atoms: C2_2  and  C3_3
REMARK    2  A    between atoms: C3_3  and  C4_4
REMARK    3  A    between atoms: C4_4  and  N1_5
REMARK    4  A    between atoms: N1_5  and  C5_7
REMARK    5  A    between atoms: C9_15  and  S1_16
REMARK    6  A    between atoms: S1_16  and  C10_17
REMARK    7  A    between atoms: C10_17  and  C11_18
ROOT
HETATM    1  C5  UNL     1      12.627 160.564  35.589  1.00  0.00     0.680 A
HETATM    2  N2  UNL     1      13.485 159.629  35.151  1.00  0.00    -0.177 N
ATOM      3  H2  UNL     1      14.374 159.506  35.637  1.00  0.00     0.185 HD
HETATM    4  C6  UNL     1      13.208 158.854  34.094  1.00  0.00     0.155 A
HETATM    5  N3  UNL     1      14.149 157.894  33.689  1.00  0.00    -0.080 NA
HETATM    6  C7  UNL     1      11.985 159.058  33.464  1.00  0.00     0.120 A
HETATM    7  C8  UNL     1      11.675 158.250  32.348  1.00  0.00     0.106 C
HETATM    8  N4  UNL     1      11.437 157.594  31.429  1.00  0.00    -0.191 NA
HETATM    9  C9  UNL     1      11.098 160.005  33.894  1.00  0.00     0.110 A
HETATM   10  N5  UNL     1      11.442 160.746  34.958  1.00  0.00    -0.184 N
ATOM     11  H5  UNL     1      10.798 161.460  35.299  1.00  0.00     0.185 HD
ENDROOT
BRANCH   9  12
HETATM   12  S1  UNL     1       9.535 160.264  33.086  1.00  0.00    -0.109 SA
BRANCH  12  13
HETATM   13  C10 UNL     1       9.897 160.787  31.382  1.00  0.00     0.093 C
BRANCH  13  14
HETATM   14  C11 UNL     1       9.687 162.276  31.212  1.00  0.00     0.001 C
HETATM   15  C12 UNL     1      10.579 162.937  32.272  1.00  0.00     0.018 C
HETATM   16  C13 UNL     1      10.493 164.431  32.166  1.00  0.00    -0.013 C
HETATM   17  C14 UNL     1       9.068 164.836  32.418  1.00  0.00     0.009 C
HETATM   18  C18 UNL     1      10.957 164.834  30.776  1.00  0.00     0.012 C
HETATM   19  C15 UNL     1       8.172 164.186  31.391  1.00  0.00    -0.013 C
HETATM   20  C16 UNL     1       8.611 164.662  30.035  1.00  0.00     0.012 C
HETATM   21  C23 UNL     1       8.262 162.677  31.412  1.00  0.00     0.018 C
HETATM   22  C17 UNL     1      10.030 164.238  29.772  1.00  0.00     0.022 C
HETATM   23  C19 UNL     1      10.169 162.712  29.844  1.00  0.00     0.073 C
HETATM   24  C20 UNL     1       9.366 162.084  28.760  1.00  0.00     0.041 C
HETATM   25  O1  UNL     1      11.504 162.434  29.654  1.00  0.00    -0.379 OA
HETATM   26  C21 UNL     1      10.402 161.556  27.807  1.00  0.00     0.029 C
HETATM   27  C22 UNL     1      11.637 161.533  28.639  1.00  0.00     0.169 C
ENDBRANCH  13  14
ENDBRANCH  12  13
ENDBRANCH   9  12
BRANCH   1  28
HETATM   28  N1  UNL     1      12.908 161.311  36.617  1.00  0.00    -0.226 N
ATOM     29  H1  UNL     1      12.764 160.971  37.567  1.00  0.00     0.177 HD
BRANCH  28  30
HETATM   30  C4  UNL     1      13.432 162.640  36.374  1.00  0.00     0.138 C
BRANCH  30  31
HETATM   31  C3  UNL     1      12.891 163.604  37.421  1.00  0.00     0.020 C
BRANCH  31  32
HETATM   32  C2  UNL     1      12.583 164.951  36.810  1.00  0.00    -0.003 C
HETATM   33  C1  UNL     1      12.169 164.854  35.379  1.00  0.00     0.005 C
ENDBRANCH  31  32
ENDBRANCH  30  31
ENDBRANCH  28  30
ENDBRANCH   1  28
TORSDOF 7
ENDMDL