MODEL 1
REMARK VINA RESULT: -9.245532464      0.000      0.000
REMARK  8 active torsions:
REMARK  status: ('A' for Active; 'I' for Inactive)
REMARK    1  A    between atoms: C2_2  and  C3_3
REMARK    2  A    between atoms: C2_2  and  C25_31
REMARK    3  A    between atoms: C3_3  and  C4_4
REMARK    4  A    between atoms: C7_7  and  O1_8
REMARK    5  A    between atoms: O1_8  and  C8_9
REMARK    6  A    between atoms: C8_9  and  C9_11
REMARK    7  A    between atoms: C21_24  and  C22_25
REMARK    8  A    between atoms: C24_28  and  O5_29
ROOT
HETATM    1  C4  UNL     1      12.408 163.997  36.343  1.00  0.00    -0.019 A
HETATM    2  C5  UNL     1      12.612 162.658  36.517  1.00  0.00     0.013 A
HETATM    3  C6  UNL     1      12.466 161.753  35.494  1.00  0.00     0.039 A
HETATM    4  C7  UNL     1      12.093 162.221  34.225  1.00  0.00     0.095 A
HETATM    5  C21 UNL     1      11.874 163.558  33.995  1.00  0.00     0.077 A
HETATM    6  C24 UNL     1      12.031 164.445  35.051  1.00  0.00     0.088 A
ENDROOT
BRANCH   4   7
HETATM    7  O1  UNL     1      11.962 161.232  33.208  1.00  0.00    -0.277 OA
BRANCH   7   8
HETATM    8  C8  UNL     1      10.825 160.433  33.201  1.00  0.00     0.274 C
HETATM    9  O2  UNL     1      10.628 159.828  34.312  1.00  0.00    -0.264 OA
BRANCH   8  10
HETATM   10  C9  UNL     1       9.856 160.213  32.125  1.00  0.00     0.061 C
HETATM   11  C10 UNL     1       8.658 159.515  32.797  1.00  0.00     0.025 C
HETATM   12  C11 UNL     1       7.501 159.329  31.887  1.00  0.00    -0.008 C
HETATM   13  C12 UNL     1       7.046 160.675  31.374  1.00  0.00     0.037 C
HETATM   14  C17 UNL     1       7.991 158.479  30.718  1.00  0.00     0.043 C
HETATM   15  C13 UNL     1       8.224 161.265  30.626  1.00  0.00     0.124 C
HETATM   16  C14 UNL     1       9.310 161.558  31.614  1.00  0.00     0.052 C
HETATM   17  O3  UNL     1       8.650 160.441  29.587  1.00  0.00    -0.374 OA
HETATM   18  C15 UNL     1       9.091 159.217  30.028  1.00  0.00     0.066 C
HETATM   19  C16 UNL     1       9.497 158.400  28.812  1.00  0.00     0.047 C
HETATM   20  C18 UNL     1      10.307 159.463  30.926  1.00  0.00     0.000 C
HETATM   21  C19 UNL     1      11.024 158.175  31.200  1.00  0.00     0.019 C
HETATM   22  C20 UNL     1      11.208 160.361  30.085  1.00  0.00     0.019 C
ENDBRANCH   8  10
ENDBRANCH   7   8
ENDBRANCH   4   7
BRANCH   5  23
HETATM   23  C22 UNL     1      11.473 163.974  32.676  1.00  0.00     0.161 C
HETATM   24  C23 UNL     1      12.136 163.753  31.395  1.00  0.00     0.097 C
HETATM   25  O4  UNL     1      10.379 164.634  32.609  1.00  0.00    -0.293 OA
ENDBRANCH   5  23
BRANCH   6  26
HETATM   26  O5  UNL     1      11.847 165.752  34.940  1.00  0.00    -0.359 OA
ATOM     27  H5  UNL     1      11.165 166.013  34.332  1.00  0.00     0.217 HD
ENDBRANCH   6  26
BRANCH   1  28
HETATM   28  C3  UNL     1      12.542 165.019  37.404  1.00  0.00     0.086 C
BRANCH  28  29
HETATM   29  C2  UNL     1      13.900 165.533  37.599  1.00  0.00     0.013 C
HETATM   30  C1  UNL     1      14.932 164.831  37.191  1.00  0.00     0.026 C
BRANCH  29  31
HETATM   31  C25 UNL     1      14.129 166.802  38.230  1.00  0.00     0.204 C
HETATM   32  O6  UNL     1      13.230 167.353  38.893  1.00  0.00    -0.644 OA
HETATM   33  O7  UNL     1      15.347 167.432  38.110  1.00  0.00    -0.644 OA
ENDBRANCH  29  31
ENDBRANCH  28  29
ENDBRANCH   1  28
TORSDOF 8
ENDMDL