MODEL 5
REMARK VINA RESULT: -7.679892671      2.170      5.405
REMARK  9 active torsions:
REMARK  status: ('A' for Active; 'I' for Inactive)
REMARK    1  A    between atoms: O1_2  and  C2_3
REMARK    2  A    between atoms: C2_3  and  C3_4
REMARK    3  A    between atoms: C3_4  and  C4_5
REMARK    4  A    between atoms: C4_5  and  C5_6
REMARK    5  A    between atoms: C5_6  and  C6_7
REMARK    6  A    between atoms: C6_7  and  O2_8
REMARK    7  A    between atoms: C6_7  and  C7_10
REMARK    8  A    between atoms: C7_10  and  C8_11
REMARK    9  A    between atoms: N1_31  and  O5_33
ROOT
HETATM    1  C8  UNL     1      11.152 163.875  33.535  1.00  0.00    -0.009 C
HETATM    2  C9  UNL     1      12.207 163.160  32.671  1.00  0.00     0.013 C
HETATM    3  C10 UNL     1      11.814 161.783  32.324  1.00  0.00     0.028 C
HETATM    4  C11 UNL     1      13.106 161.056  31.905  1.00  0.00    -0.012 C
HETATM    5  C12 UNL     1      14.352 161.853  32.236  1.00  0.00     0.010 C
HETATM    6  C13 UNL     1      13.209 160.786  30.427  1.00  0.00     0.005 C
HETATM    7  C14 UNL     1      12.024 159.976  29.874  1.00  0.00     0.008 C
HETATM    8  C15 UNL     1      11.021 160.063  30.932  1.00  0.00     0.028 C
HETATM    9  C16 UNL     1       9.679 159.446  30.758  1.00  0.00    -0.011 C
HETATM   10  C17 UNL     1       9.066 159.567  29.417  1.00  0.00     0.010 C
HETATM   11  C18 UNL     1       8.914 160.258  31.843  1.00  0.00     0.013 C
HETATM   12  C19 UNL     1       9.395 161.598  31.381  1.00  0.00     0.031 C
HETATM   13  C20 UNL     1       8.823 162.827  31.907  1.00  0.00     0.026 C
HETATM   14  C21 UNL     1       7.415 163.034  31.336  1.00  0.00     0.014 C
HETATM   15  C22 UNL     1       9.788 163.910  31.396  1.00  0.00     0.097 C
HETATM   16  C23 UNL     1       8.865 164.976  30.747  1.00  0.00     0.050 C
HETATM   17  C24 UNL     1      10.259 164.616  32.649  1.00  0.00     0.046 C
HETATM   18  O3  UNL     1      10.653 163.591  30.459  1.00  0.00    -0.229 OA
HETATM   19  O4  UNL     1      11.163 162.433  30.267  1.00  0.00    -0.228 OA
HETATM   20  C25 UNL     1      10.860 161.525  31.269  1.00  0.00     0.108 C
ENDROOT
BRANCH   1  21
HETATM   21  C7  UNL     1      11.827 164.745  34.549  1.00  0.00     0.036 C
BRANCH  21  22
HETATM   22  C6  UNL     1      11.984 164.051  35.857  1.00  0.00     0.118 C
BRANCH  22  23
HETATM   23  C5  UNL     1      13.349 163.314  35.916  1.00  0.00     0.032 C
BRANCH  23  24
HETATM   24  C4  UNL     1      13.160 162.019  36.691  1.00  0.00     0.010 C
BRANCH  24  25
HETATM   25  C3  UNL     1      12.105 161.220  35.955  1.00  0.00     0.086 C
BRANCH  25  26
HETATM   26  C2  UNL     1      12.700 160.020  35.303  1.00  0.00     0.137 C
HETATM   27  N1  UNL     1      11.921 159.130  34.821  1.00  0.00    -0.251 N
ATOM     28  H1  UNL     1      12.343 158.314  34.377  1.00  0.00     0.196 HD
BRANCH  26  29
HETATM   29  O1  UNL     1      14.073 159.886  35.228  1.00  0.00    -0.343 OA
HETATM   30  C1  UNL     1      14.574 158.814  34.431  1.00  0.00     0.211 C
ENDBRANCH  26  29
BRANCH  27  31
HETATM   31  O5  UNL     1      10.566 159.203  34.863  1.00  0.00    -0.288 OA
ATOM     32  H5  UNL     1       9.990 158.730  34.274  1.00  0.00     0.244 HD
ENDBRANCH  27  31
ENDBRANCH  25  26
ENDBRANCH  24  25
ENDBRANCH  23  24
ENDBRANCH  22  23
BRANCH  22  33
HETATM   33  O2  UNL     1      12.108 165.039  36.859  1.00  0.00    -0.396 OA
ATOM     34  H2  UNL     1      11.835 164.584  37.646  1.00  0.00     0.210 HD
ENDBRANCH  22  33
ENDBRANCH  21  22
ENDBRANCH   1  21
TORSDOF 9
ENDMDL