MODEL 5
REMARK VINA RESULT: -7.655950355      3.771      6.286
REMARK  7 active torsions:
REMARK  status: ('A' for Active; 'I' for Inactive)
REMARK    1  A    between atoms: C2_2  and  N1_3
REMARK    2  A    between atoms: C3_5  and  C4_6
REMARK    3  A    between atoms: C4_6  and  C5_7
REMARK    4  A    between atoms: C5_7  and  C6_8
REMARK    5  A    between atoms: C7_9  and  O1_10
REMARK    6  A    between atoms: C9_13  and  C10_14
REMARK    7  A    between atoms: C14_18  and  O2_19
ROOT
HETATM    1  C6  UNL     1      10.259 164.778  31.215  1.00  0.00     0.026 C
HETATM    2  C7  UNL     1      10.771 163.433  30.679  1.00  0.00     0.151 C
HETATM    3  C8  UNL     1      11.752 162.760  31.570  1.00  0.00    -0.050 C
HETATM    4  C9  UNL     1      12.663 161.986  31.037  1.00  0.00     0.017 C
HETATM    5  C22 UNL     1      11.683 162.931  33.039  1.00  0.00     0.051 C
HETATM    6  C23 UNL     1      11.737 164.416  33.238  1.00  0.00     0.096 C
HETATM    7  C24 UNL     1      11.595 164.866  34.637  1.00  0.00     0.263 C
HETATM    8  O4  UNL     1      11.918 164.309  35.720  1.00  0.00    -0.265 OA
HETATM    9  O5  UNL     1      10.996 166.116  34.539  1.00  0.00    -0.321 OA
HETATM   10  C25 UNL     1      10.532 166.347  33.194  1.00  0.00     0.184 C
HETATM   11  C26 UNL     1      10.402 164.951  32.678  1.00  0.00     0.031 C
ENDROOT
BRANCH   2  12
HETATM   12  O1  UNL     1      11.311 163.603  29.385  1.00  0.00    -0.391 OA
ATOM     13  H1  UNL     1      11.880 164.363  29.367  1.00  0.00     0.210 HD
ENDBRANCH   2  12
BRANCH   4  14
HETATM   14  C10 UNL     1      13.684 161.266  31.736  1.00  0.00    -0.032 A
HETATM   15  C11 UNL     1      14.922 161.136  31.103  1.00  0.00     0.026 A
HETATM   16  C12 UNL     1      15.952 160.483  31.753  1.00  0.00     0.001 A
HETATM   17  C13 UNL     1      15.775 159.964  33.010  1.00  0.00     0.113 A
HETATM   18  C21 UNL     1      17.221 160.340  31.064  1.00  0.00     0.013 A
HETATM   19  C14 UNL     1      14.552 160.084  33.657  1.00  0.00     0.103 A
HETATM   20  O3  UNL     1      16.843 159.324  33.609  1.00  0.00    -0.333 OA
HETATM   21  C16 UNL     1      13.521 160.747  32.983  1.00  0.00     0.051 A
HETATM   22  C17 UNL     1      18.098 159.108  33.008  1.00  0.00     0.078 A
HETATM   23  C18 UNL     1      18.247 157.594  32.874  1.00  0.00     0.051 C
HETATM   24  C19 UNL     1      19.249 159.658  33.843  1.00  0.00     0.051 C
HETATM   25  C20 UNL     1      18.205 159.702  31.659  1.00  0.00     0.011 A
BRANCH  19  26
HETATM   26  O2  UNL     1      14.387 159.558  34.919  1.00  0.00    -0.353 OA
HETATM   27  C15 UNL     1      13.214 159.801  35.635  1.00  0.00     0.210 C
ENDBRANCH  19  26
ENDBRANCH   4  14
BRANCH   1  28
HETATM   28  C5  UNL     1       8.848 164.854  30.712  1.00  0.00     0.013 C
BRANCH  28  29
HETATM   29  C4  UNL     1       8.105 163.635  30.418  1.00  0.00     0.044 C
BRANCH  29  30
HETATM   30  C3  UNL     1       7.281 163.115  31.542  1.00  0.00     0.055 C
HETATM   31  N1  UNL     1       7.255 161.891  31.911  1.00  0.00    -0.403 N
ATOM     32  H1  UNL     1       6.657 161.633  32.696  1.00  0.00     0.158 HD
BRANCH  31  33
HETATM   33  C2  UNL     1       8.029 160.862  31.273  1.00  0.00     0.114 C
HETATM   34  C1  UNL     1       9.019 160.339  32.291  1.00  0.00     0.026 C
ENDBRANCH  31  33
ENDBRANCH  29  30
ENDBRANCH  28  29
ENDBRANCH   1  28
TORSDOF 7
ENDMDL