MODEL 1
REMARK VINA RESULT: -8.086253866      0.000      0.000
REMARK  9 active torsions:
REMARK  status: ('A' for Active; 'I' for Inactive)
REMARK    1  A    between atoms: O1_1  and  N1_3
REMARK    2  A    between atoms: C5_8  and  C6_9
REMARK    3  A    between atoms: C6_9  and  N5_25
REMARK    4  A    between atoms: N2_10  and  N3_12
REMARK    5  A    between atoms: N3_12  and  C7_14
REMARK    6  A    between atoms: C8_17  and  C9_18
REMARK    7  A    between atoms: N5_25  and  N6_27
REMARK    8  A    between atoms: C14_29  and  C15_30
REMARK    9  A    between atoms: C16_31  and  C17_32
ROOT
HETATM    1  C6  UNL     1       9.454 158.916  30.172  1.00  0.00     0.164 C
HETATM    2  N2  UNL     1      10.311 158.476  31.030  1.00  0.00    -0.281 N
ATOM      3  H2  UNL     1      10.062 157.666  31.599  1.00  0.00     0.188 HD
ENDROOT
BRANCH   1   4
HETATM    4  C5  UNL     1       8.186 158.238  30.062  1.00  0.00     0.108 A
HETATM    5  N1  UNL     1       7.711 157.731  28.907  1.00  0.00    -0.232 N
HETATM    6  C1  UNL     1       6.525 157.102  28.824  1.00  0.00     0.123 A
HETATM    7  C2  UNL     1       5.769 156.972  29.970  1.00  0.00     0.020 A
HETATM    8  C3  UNL     1       6.201 157.472  31.189  1.00  0.00     0.004 A
HETATM    9  C4  UNL     1       7.422 158.109  31.225  1.00  0.00     0.036 A
BRANCH   5  10
HETATM   10  O1  UNL     1       8.522 157.894  27.786  1.00  0.00    -0.283 OA
ATOM     11  H1  UNL     1       9.317 158.411  27.824  1.00  0.00     0.245 HD
ENDBRANCH   5  10
ENDBRANCH   1   4
BRANCH   1  12
HETATM   12  N5  UNL     1       9.837 160.047  29.399  1.00  0.00    -0.283 N
ATOM     13  H5  UNL     1      10.225 159.884  28.470  1.00  0.00     0.188 HD
BRANCH  12  14
HETATM   14  N6  UNL     1       9.712 161.356  29.835  1.00  0.00    -0.310 N
HETATM   15  C14 UNL     1       9.515 162.364  29.084  1.00  0.00     0.107 C
ATOM     16  H6  UNL     1       9.783 161.525  30.838  1.00  0.00     0.186 HD
BRANCH  15  17
HETATM   17  C15 UNL     1       9.401 163.694  29.665  1.00  0.00     0.019 C
HETATM   18  C16 UNL     1      10.049 163.987  30.760  1.00  0.00     0.013 C
BRANCH  18  19
HETATM   19  C17 UNL     1       9.998 165.284  31.414  1.00  0.00    -0.036 A
HETATM   20  C18 UNL     1      10.959 166.228  31.141  1.00  0.00     0.011 A
HETATM   21  C19 UNL     1      10.892 167.473  31.782  1.00  0.00     0.001 A
HETATM   22  C20 UNL     1       9.899 167.765  32.664  1.00  0.00     0.000 A
HETATM   23  C21 UNL     1       8.945 166.802  32.923  1.00  0.00     0.001 A
HETATM   24  C22 UNL     1       8.977 165.578  32.319  1.00  0.00     0.011 A
ENDBRANCH  18  19
ENDBRANCH  15  17
ENDBRANCH  12  14
ENDBRANCH   1  12
BRANCH   2  25
HETATM   25  N3  UNL     1      11.578 159.068  31.214  1.00  0.00    -0.278 N
ATOM     26  H3  UNL     1      12.238 159.137  30.439  1.00  0.00     0.189 HD
BRANCH  25  27
HETATM   27  C7  UNL     1      11.894 159.530  32.407  1.00  0.00     0.164 A
HETATM   28  N4  UNL     1      11.831 160.795  32.808  1.00  0.00    -0.333 N
HETATM   29  C8  UNL     1      12.184 161.079  34.030  1.00  0.00     0.075 A
ATOM     30  H4  UNL     1      11.513 161.528  32.174  1.00  0.00     0.168 HD
HETATM   31  C13 UNL     1      12.601 160.045  34.831  1.00  0.00     0.085 A
HETATM   32  S1  UNL     1      12.465 158.708  33.783  1.00  0.00    -0.062 SA
BRANCH  29  33
HETATM   33  C9  UNL     1      12.155 162.464  34.591  1.00  0.00     0.102 A
HETATM   34  C10 UNL     1      11.894 163.641  33.927  1.00  0.00     0.041 A
HETATM   35  C11 UNL     1      11.975 164.674  34.832  1.00  0.00     0.027 A
HETATM   36  C12 UNL     1      12.286 164.083  36.031  1.00  0.00     0.142 A
HETATM   37  O2  UNL     1      12.378 162.802  35.827  1.00  0.00    -0.320 OA
ENDBRANCH  29  33
ENDBRANCH  25  27
ENDBRANCH   2  25
TORSDOF 9
ENDMDL