MODEL 5
REMARK VINA RESULT: -7.237133474      1.043      1.406
REMARK  8 active torsions:
REMARK  status: ('A' for Active; 'I' for Inactive)
REMARK    1  A    between atoms: N1_1  and  S1_4
REMARK    2  A    between atoms: S1_4  and  C1_7
REMARK    3  A    between atoms: C4_10  and  N2_11
REMARK       I    between atoms: N2_11  and  C5_13
REMARK    4  A    between atoms: C5_13  and  C6_15
REMARK    5  A    between atoms: C7_19  and  N3_20
REMARK    6  A    between atoms: N3_20  and  C8_22
REMARK    7  A    between atoms: C9_26  and  N6_27
REMARK    8  A    between atoms: N6_27  and  N7_29
ROOT
HETATM    1  C1  UNL     1     -21.357   5.351  11.238  1.00  0.00     0.081 A
HETATM    2  C2  UNL     1     -21.843   6.618  11.160  1.00  0.00     0.027 A
HETATM    3  C3  UNL     1     -23.015   7.003  11.808  1.00  0.00     0.033 A
HETATM    4  C4  UNL     1     -23.720   6.103  12.554  1.00  0.00     0.061 A
HETATM    5  C7  UNL     1     -23.228   4.755  12.657  1.00  0.00     0.058 A
HETATM    6  C10 UNL     1     -22.066   4.429  11.994  1.00  0.00     0.057 A
ENDROOT
BRANCH   5   7
HETATM    7  N3  UNL     1     -23.934   3.885  13.506  1.00  0.00    -0.362 N
ATOM      8  H3  UNL     1     -23.595   3.832  14.466  1.00  0.00     0.162 HD
BRANCH   7   9
HETATM    9  C8  UNL     1     -25.056   3.073  13.203  1.00  0.00     0.268 A
HETATM   10  N4  UNL     1     -25.464   2.915  11.855  1.00  0.00    -0.106 NA
HETATM   11  N5  UNL     1     -25.443   1.569  12.005  1.00  0.00    -0.286 N
HETATM   12  C9  UNL     1     -25.071   1.642  13.206  1.00  0.00     0.153 A
ATOM     13  H5  UNL     1     -25.650   0.790  11.380  1.00  0.00     0.184 HD
BRANCH  12  14
HETATM   14  N6  UNL     1     -24.788   0.618  14.185  1.00  0.00    -0.225 N
ATOM     15  H6  UNL     1     -24.396  -0.278  13.896  1.00  0.00     0.194 HD
BRANCH  14  16
HETATM   16  N7  UNL     1     -25.059   0.872  15.533  1.00  0.00    -0.037 N
HETATM   17  O4  UNL     1     -25.995   0.289  16.125  1.00  0.00    -0.516 OA
HETATM   18  O5  UNL     1     -24.299   1.769  16.231  1.00  0.00    -0.516 OA
ENDBRANCH  14  16
ENDBRANCH  12  14
ENDBRANCH   7   9
ENDBRANCH   5   7
BRANCH   4  19
HETATM   19  N2  UNL     1     -24.950   6.416  13.150  1.00  0.00    -0.318 N
HETATM   20  C5  UNL     1     -25.183   7.190  14.282  1.00  0.00     0.330 C
HETATM   21  O3  UNL     1     -24.286   7.722  14.941  1.00  0.00    -0.263 OA
ATOM     22  H2  UNL     1     -25.778   6.027  12.697  1.00  0.00     0.169 HD
BRANCH  20  23
HETATM   23  C6  UNL     1     -26.586   7.434  14.785  1.00  0.00     0.472 C
HETATM   24  F1  UNL     1     -26.916   6.372  15.626  1.00  0.00    -0.162 F
HETATM   25  F2  UNL     1     -27.506   7.414  13.763  1.00  0.00    -0.162 F
HETATM   26  F3  UNL     1     -26.690   8.632  15.434  1.00  0.00    -0.162 F
ENDBRANCH  20  23
ENDBRANCH   4  19
BRANCH   1  27
HETATM   27  S1  UNL     1     -19.880   4.917  10.402  1.00  0.00     0.256 S
HETATM   28  O1  UNL     1     -20.156   4.282   9.070  1.00  0.00    -0.201 OA
HETATM   29  O2  UNL     1     -19.109   3.931  11.234  1.00  0.00    -0.201 OA
BRANCH  27  30
HETATM   30  N1  UNL     1     -18.892   6.311  10.126  1.00  0.00    -0.324 N
ATOM     31  H12 UNL     1     -17.918   6.295   9.823  1.00  0.00     0.169 HD
ATOM     32  H11 UNL     1     -19.459   7.136  10.322  1.00  0.00     0.169 HD
ENDBRANCH  27  30
ENDBRANCH   1  27
TORSDOF 8
ENDMDL