MODEL 5
REMARK VINA RESULT: -7.163279622      3.879      6.777
REMARK  9 active torsions:
REMARK  status: ('A' for Active; 'I' for Inactive)
REMARK    1  A    between atoms: N1_1  and  C1_4
REMARK    2  A    between atoms: C2_7  and  N3_8
REMARK    3  A    between atoms: C4_10  and  C5_11
REMARK    4  A    between atoms: C5_11  and  C6_13
REMARK    5  A    between atoms: C6_13  and  N4_14
REMARK    6  A    between atoms: C9_24  and  C10_25
REMARK    7  A    between atoms: C10_25  and  O4_26
REMARK    8  A    between atoms: C10_25  and  C11_28
REMARK    9  A    between atoms: C13_32  and  C14_33
ROOT
HETATM    1  C1  UNL     1     -25.766   7.686  13.325  1.00  0.00     0.115 A
HETATM    2  N2  UNL     1     -25.809   6.348  13.291  1.00  0.00    -0.327 N
ATOM      3  H2  UNL     1     -26.715   5.881  13.257  1.00  0.00     0.169 HD
HETATM    4  C2  UNL     1     -24.650   5.578  13.301  1.00  0.00     0.130 A
HETATM    5  C9  UNL     1     -23.441   6.163  13.342  1.00  0.00     0.048 A
HETATM    6  C12 UNL     1     -23.423   7.605  13.382  1.00  0.00     0.038 A
HETATM    7  C13 UNL     1     -24.569   8.354  13.373  1.00  0.00     0.092 A
ENDROOT
BRANCH   4   8
HETATM    8  N3  UNL     1     -24.864   4.179  13.393  1.00  0.00    -0.258 N
HETATM    9  C3  UNL     1     -25.011   3.531  14.543  1.00  0.00     0.124 A
HETATM   10  C4  UNL     1     -25.124   2.145  14.561  1.00  0.00     0.096 A
HETATM   11  C7  UNL     1     -25.080   1.445  13.381  1.00  0.00     0.264 A
HETATM   12  O2  UNL     1     -25.178   0.182  13.334  1.00  0.00    -0.267 OA
HETATM   13  N5  UNL     1     -24.927   2.132  12.208  1.00  0.00    -0.274 N
HETATM   14  C8  UNL     1     -24.824   3.459  12.234  1.00  0.00     0.335 A
ATOM     15  H5  UNL     1     -24.893   1.631  11.320  1.00  0.00     0.173 HD
HETATM   16  O3  UNL     1     -24.681   4.082  11.141  1.00  0.00    -0.246 OA
BRANCH  10  17
HETATM   17  C5  UNL     1     -25.285   1.455  15.827  1.00  0.00     0.191 C
HETATM   18  O1  UNL     1     -24.252   0.853  16.292  1.00  0.00    -0.290 OA
BRANCH  17  19
HETATM   19  C6  UNL     1     -26.565   1.418  16.586  1.00  0.00     0.313 C
BRANCH  19  20
HETATM   20  N4  UNL     1     -26.459   0.463  17.685  1.00  0.00    -0.072 N
ATOM     21  H43 UNL     1     -27.074  -0.341  17.555  1.00  0.00     0.274 HD
ATOM     22  H42 UNL     1     -25.567  -0.032  17.679  1.00  0.00     0.274 HD
ATOM     23  H41 UNL     1     -26.629   0.937  18.571  1.00  0.00     0.274 HD
ENDBRANCH  19  20
ENDBRANCH  17  19
ENDBRANCH  10  17
ENDBRANCH   4   8
BRANCH   5  24
HETATM   24  C10 UNL     1     -22.168   5.524  13.198  1.00  0.00     0.145 C
BRANCH  24  25
HETATM   25  O4  UNL     1     -21.827   4.928  14.373  1.00  0.00    -0.355 OA
ATOM     26  H4  UNL     1     -21.684   4.001  14.226  1.00  0.00     0.218 HD
ENDBRANCH  24  25
BRANCH  24  27
HETATM   27  C11 UNL     1     -21.179   5.348  12.201  1.00  0.00     0.288 C
HETATM   28  N6  UNL     1     -21.250   4.092  11.436  1.00  0.00    -0.055 NA
HETATM   29  O5  UNL     1     -20.257   6.051  11.842  1.00  0.00    -0.269 OA
ENDBRANCH  24  27
ENDBRANCH   5  24
BRANCH   1  30
HETATM   30  N1  UNL     1     -26.873   8.349  13.312  1.00  0.00    -0.385 N
ATOM     31  H12 UNL     1     -27.721   7.931  13.693  1.00  0.00     0.157 HD
ATOM     32  H11 UNL     1     -26.882   9.290  12.919  1.00  0.00     0.157 HD
ENDBRANCH   1  30
BRANCH   7  33
HETATM   33  C14 UNL     1     -24.463   9.853  13.419  1.00  0.00     0.421 C
HETATM   34  F1  UNL     1     -25.076  10.409  14.496  1.00  0.00    -0.166 F
HETATM   35  F2  UNL     1     -24.970  10.386  12.258  1.00  0.00    -0.166 F
HETATM   36  F3  UNL     1     -23.116  10.197  13.510  1.00  0.00    -0.166 F
ENDBRANCH   7  33
TORSDOF 9
ENDMDL