MODEL 2
REMARK VINA RESULT: -6.923754834      5.307      6.052
REMARK  8 active torsions:
REMARK  status: ('A' for Active; 'I' for Inactive)
REMARK    1  A    between atoms: N1_1  and  C1_4
REMARK    2  A    between atoms: C3_10  and  N4_11
REMARK    3  A    between atoms: N4_11  and  N5_13
REMARK    4  A    between atoms: C4_15  and  C5_17
REMARK    5  A    between atoms: N8_21  and  C6_22
REMARK    6  A    between atoms: C9_25  and  C10_26
REMARK    7  A    between atoms: C10_26  and  N9_27
REMARK    8  A    between atoms: C10_26  and  C11_31
ROOT
HETATM    1  C5  UNL     1     -25.474   8.158  13.891  1.00  0.00     0.187 A
HETATM    2  N7  UNL     1     -25.863   9.298  13.300  1.00  0.00    -0.219 N
ATOM      3  H7  UNL     1     -26.752   9.461  12.829  1.00  0.00     0.198 HD
HETATM    4  O1  UNL     1     -24.901  10.151  13.437  1.00  0.00    -0.132 OA
HETATM    5  N8  UNL     1     -23.922   9.606  14.087  1.00  0.00    -0.135 N
HETATM    6  N10 UNL     1     -24.239   8.368  14.387  1.00  0.00    -0.252 N
ATOM      7  H10 UNL     1     -23.663   7.697  14.895  1.00  0.00     0.191 HD
ENDROOT
BRANCH   1   8
HETATM    8  C4  UNL     1     -26.282   6.952  13.952  1.00  0.00     0.178 C
HETATM    9  N5  UNL     1     -25.832   5.930  14.587  1.00  0.00    -0.283 N
ATOM     10  H5  UNL     1     -24.916   5.988  15.033  1.00  0.00     0.188 HD
HETATM   11  N6  UNL     1     -27.542   6.968  13.297  1.00  0.00    -0.077 NA
BRANCH   9  12
HETATM   12  N4  UNL     1     -26.549   4.758  14.681  1.00  0.00    -0.282 N
ATOM     13  H4  UNL     1     -27.559   4.824  14.813  1.00  0.00     0.188 HD
BRANCH  12  14
HETATM   14  C3  UNL     1     -26.020   3.578  14.610  1.00  0.00     0.152 A
HETATM   15  C2  UNL     1     -25.352   3.115  13.496  1.00  0.00     0.158 A
HETATM   16  N3  UNL     1     -24.828   1.874  13.498  1.00  0.00    -0.294 N
HETATM   17  N2  UNL     1     -24.918   1.053  14.530  1.00  0.00    -0.133 N
ATOM     18  H3  UNL     1     -24.338   1.552  12.662  1.00  0.00     0.186 HD
HETATM   19  C1  UNL     1     -25.568   1.499  15.619  1.00  0.00     0.692 A
ATOM     20  H2  UNL     1     -24.510   0.118  14.503  1.00  0.00     0.205 HD
HETATM   21  N11 UNL     1     -26.114   2.746  15.663  1.00  0.00    -0.173 N
ATOM     22  H11 UNL     1     -26.601   3.052  16.506  1.00  0.00     0.186 HD
BRANCH  19  23
HETATM   23  N1  UNL     1     -25.681   0.732  16.650  1.00  0.00    -0.233 N
ATOM     24  H12 UNL     1     -24.999  -0.014  16.786  1.00  0.00     0.174 HD
ATOM     25  H11 UNL     1     -26.445   0.885  17.309  1.00  0.00     0.174 HD
ENDBRANCH  19  23
ENDBRANCH  12  14
ENDBRANCH   9  12
ENDBRANCH   1   8
BRANCH   5  26
HETATM   26  C6  UNL     1     -22.710  10.315  14.392  1.00  0.00     0.084 A
HETATM   27  C7  UNL     1     -22.520  11.624  13.998  1.00  0.00     0.034 A
HETATM   28  C8  UNL     1     -21.352  12.314  14.290  1.00  0.00     0.012 A
HETATM   29  C9  UNL     1     -20.347  11.672  14.996  1.00  0.00    -0.019 A
HETATM   30  C12 UNL     1     -20.531  10.356  15.396  1.00  0.00     0.012 A
HETATM   31  C13 UNL     1     -21.710   9.678  15.095  1.00  0.00     0.034 A
BRANCH  29  32
HETATM   32  C10 UNL     1     -19.090  12.351  15.334  1.00  0.00     0.323 C
BRANCH  32  33
HETATM   33  N9  UNL     1     -18.641  13.279  14.337  1.00  0.00    -0.062 N
ATOM     34  H93 UNL     1     -19.299  14.053  14.246  1.00  0.00     0.275 HD
ATOM     35  H92 UNL     1     -17.820  13.788  14.665  1.00  0.00     0.275 HD
ATOM     36  H91 UNL     1     -18.459  12.857  13.426  1.00  0.00     0.275 HD
ENDBRANCH  32  33
BRANCH  32  37
HETATM   37  C11 UNL     1     -19.216  13.032  16.688  1.00  0.00     0.419 C
HETATM   38  F1  UNL     1     -19.509  12.104  17.660  1.00  0.00    -0.168 F
HETATM   39  F2  UNL     1     -20.211  13.985  16.674  1.00  0.00    -0.168 F
HETATM   40  F3  UNL     1     -17.981  13.620  16.973  1.00  0.00    -0.168 F
ENDBRANCH  32  37
ENDBRANCH  29  32
ENDBRANCH   5  26
TORSDOF 8
ENDMDL