MODEL 4
REMARK VINA RESULT: -6.918982864      1.060      1.794
REMARK  12 active torsions:
REMARK  status: ('A' for Active; 'I' for Inactive)
REMARK    1  A    between atoms: C2_3  and  C3_4
REMARK    2  A    between atoms: C3_4  and  O1_5
REMARK    3  A    between atoms: C3_4  and  C4_7
REMARK    4  A    between atoms: C4_7  and  N2_8
REMARK    5  A    between atoms: C4_7  and  C5_12
REMARK    6  A    between atoms: C5_12  and  N3_13
REMARK    7  A    between atoms: C5_12  and  O2_17
REMARK    8  A    between atoms: C6_23  and  N6_24
REMARK       I    between atoms: N6_24  and  C7_26
REMARK    9  A    between atoms: C7_26  and  C8_28
REMARK   10  A    between atoms: C8_28  and  N7_29
REMARK   11  A    between atoms: C8_28  and  C9_33
REMARK   12  A    between atoms: C12_36  and  C13_37
ROOT
HETATM    1  C1  UNL     1     -21.416   6.390   9.998  1.00  0.00     0.177 C
HETATM    2  N1  UNL     1     -21.322   5.211  10.875  1.00  0.00    -0.167 N
HETATM    3  C2  UNL     1     -20.159   4.622  11.187  1.00  0.00     0.169 A
HETATM    4  N4  UNL     1     -20.526   3.555  11.983  1.00  0.00    -0.269 N
ATOM      5  H4  UNL     1     -19.882   2.883  12.401  1.00  0.00     0.189 HD
HETATM    6  N5  UNL     1     -21.832   3.539  12.118  1.00  0.00    -0.130 N
ATOM      7  H5  UNL     1     -22.358   2.852  12.657  1.00  0.00     0.205 HD
HETATM    8  C6  UNL     1     -22.371   4.566  11.437  1.00  0.00     0.703 A
ENDROOT
BRANCH   8   9
HETATM    9  N6  UNL     1     -23.591   4.925  11.297  1.00  0.00    -0.156 N
HETATM   10  C7  UNL     1     -24.639   4.348  12.113  1.00  0.00     0.272 C
HETATM   11  O3  UNL     1     -25.344   3.436  11.669  1.00  0.00    -0.270 OA
ATOM     12  H6  UNL     1     -23.830   5.630  10.599  1.00  0.00     0.187 HD
BRANCH  10  13
HETATM   13  C8  UNL     1     -24.784   4.917  13.452  1.00  0.00     0.325 C
BRANCH  13  14
HETATM   14  N7  UNL     1     -25.657   6.150  13.335  1.00  0.00    -0.061 N
ATOM     15  H73 UNL     1     -26.478   6.114  13.940  1.00  0.00     0.275 HD
ATOM     16  H72 UNL     1     -25.227   6.981  13.741  1.00  0.00     0.275 HD
ATOM     17  H71 UNL     1     -25.895   6.268  12.350  1.00  0.00     0.275 HD
ENDBRANCH  13  14
BRANCH  13  18
HETATM   18  C9  UNL     1     -25.491   4.076  14.436  1.00  0.00     0.049 A
HETATM   19  C10 UNL     1     -26.709   4.334  15.001  1.00  0.00     0.028 A
HETATM   20  C11 UNL     1     -27.270   3.488  15.949  1.00  0.00     0.019 A
HETATM   21  C12 UNL     1     -26.640   2.346  16.381  1.00  0.00     0.063 A
HETATM   22  C14 UNL     1     -25.389   2.115  15.779  1.00  0.00     0.104 A
HETATM   23  N8  UNL     1     -24.864   2.930  14.867  1.00  0.00    -0.366 N
ATOM     24  H8  UNL     1     -23.955   2.694  14.469  1.00  0.00     0.165 HD
BRANCH  21  25
HETATM   25  C13 UNL     1     -27.181   1.471  17.450  1.00  0.00     0.418 C
HETATM   26  F1  UNL     1     -28.461   1.042  17.283  1.00  0.00    -0.166 F
HETATM   27  F2  UNL     1     -26.976   2.139  18.688  1.00  0.00    -0.166 F
HETATM   28  F3  UNL     1     -26.346   0.362  17.537  1.00  0.00    -0.166 F
ENDBRANCH  21  25
ENDBRANCH  13  18
ENDBRANCH  10  13
ENDBRANCH   8   9
BRANCH   3  29
HETATM   29  C3  UNL     1     -18.777   4.950  10.980  1.00  0.00     0.124 C
BRANCH  29  30
HETATM   30  O1  UNL     1     -18.152   5.531  11.965  1.00  0.00    -0.359 OA
ATOM     31  H1  UNL     1     -18.191   6.480  12.002  1.00  0.00     0.217 HD
ENDBRANCH  29  30
BRANCH  29  32
HETATM   32  C4  UNL     1     -17.974   4.721   9.792  1.00  0.00     0.298 C
BRANCH  32  33
HETATM   33  N2  UNL     1     -17.619   5.971   9.125  1.00  0.00    -0.065 N
ATOM     34  H23 UNL     1     -18.416   6.605   9.077  1.00  0.00     0.275 HD
ATOM     35  H22 UNL     1     -16.997   6.536   9.704  1.00  0.00     0.275 HD
ATOM     36  H21 UNL     1     -17.218   5.808   8.201  1.00  0.00     0.275 HD
ENDBRANCH  32  33
BRANCH  32  37
HETATM   37  C5  UNL     1     -18.917   4.051   8.735  1.00  0.00     0.353 C
BRANCH  37  38
HETATM   38  N3  UNL     1     -18.232   2.907   8.258  1.00  0.00    -0.051 N
ATOM     39  H33 UNL     1     -18.012   2.232   8.990  1.00  0.00     0.277 HD
ATOM     40  H32 UNL     1     -18.817   2.291   7.691  1.00  0.00     0.277 HD
ATOM     41  H31 UNL     1     -17.409   3.250   7.763  1.00  0.00     0.277 HD
ENDBRANCH  37  38
BRANCH  37  42
HETATM   42  O2  UNL     1     -19.201   4.987   7.778  1.00  0.00    -0.368 OA
ATOM     43  H2  UNL     1     -19.345   5.816   8.219  1.00  0.00     0.212 HD
ENDBRANCH  37  42
ENDBRANCH  32  37
ENDBRANCH  29  32
ENDBRANCH   3  29
TORSDOF 12
ENDMDL