MODEL 1
REMARK VINA RESULT: -7.886513367      0.000      0.000
REMARK  8 active torsions:
REMARK  status: ('A' for Active; 'I' for Inactive)
REMARK    1  A    between atoms: C4_6  and  C5_7
REMARK    2  A    between atoms: C7_9  and  N2_10
REMARK       I    between atoms: N2_10  and  C8_11
REMARK    3  A    between atoms: C8_11  and  C9_13
REMARK    4  A    between atoms: C9_13  and  C10_15
REMARK    5  A    between atoms: C10_15  and  C11_17
REMARK    6  A    between atoms: C11_17  and  N4_18
REMARK    7  A    between atoms: C11_17  and  O3_22
REMARK    8  A    between atoms: C12_26  and  C13_27
ROOT
HETATM    1  C5  UNL     1     -24.711   5.296  11.662  1.00  0.00     0.065 A
HETATM    2  C6  UNL     1     -24.569   4.059  12.184  1.00  0.00     0.096 A
HETATM    3  C7  UNL     1     -24.851   3.794  13.557  1.00  0.00     0.187 A
HETATM    4  N5  UNL     1     -25.258   4.876  14.309  1.00  0.00    -0.313 N
ATOM      5  H5  UNL     1     -25.461   4.742  15.300  1.00  0.00     0.170 HD
HETATM    6  C12 UNL     1     -25.396   6.115  13.768  1.00  0.00     0.193 A
HETATM    7  N6  UNL     1     -25.135   6.328  12.480  1.00  0.00    -0.337 N
ATOM      8  H6  UNL     1     -25.250   7.264  12.092  1.00  0.00     0.167 HD
ENDROOT
BRANCH   3   9
HETATM    9  N2  UNL     1     -24.970   2.703  13.946  1.00  0.00    -0.345 NA
HETATM   10  C8  UNL     1     -25.060   1.456  14.498  1.00  0.00     0.369 C
HETATM   11  O1  UNL     1     -25.071   0.422  13.855  1.00  0.00    -0.247 OA
BRANCH  10  12
HETATM   12  C9  UNL     1     -25.201   1.489  16.027  1.00  0.00     0.278 C
HETATM   13  O2  UNL     1     -24.265   1.907  16.668  1.00  0.00    -0.279 OA
BRANCH  12  14
HETATM   14  C10 UNL     1     -26.446   1.055  16.625  1.00  0.00     0.136 C
HETATM   15  N3  UNL     1     -26.460  -0.202  17.277  1.00  0.00    -0.098 NA
BRANCH  14  16
HETATM   16  C11 UNL     1     -27.367   2.105  17.140  1.00  0.00     0.369 C
BRANCH  16  17
HETATM   17  N4  UNL     1     -27.256   3.341  16.375  1.00  0.00    -0.048 N
ATOM     18  H43 UNL     1     -27.945   3.376  15.623  1.00  0.00     0.277 HD
ATOM     19  H42 UNL     1     -27.573   4.145  16.917  1.00  0.00     0.277 HD
ATOM     20  H41 UNL     1     -26.311   3.481  16.020  1.00  0.00     0.277 HD
ENDBRANCH  16  17
BRANCH  16  21
HETATM   21  O3  UNL     1     -26.935   2.462  18.454  1.00  0.00    -0.365 OA
ATOM     22  H3  UNL     1     -27.623   2.221  19.064  1.00  0.00     0.212 HD
ENDBRANCH  16  21
ENDBRANCH  14  16
ENDBRANCH  12  14
ENDBRANCH  10  12
ENDBRANCH   3   9
BRANCH   1  23
HETATM   23  C4  UNL     1     -24.598   5.600  10.238  1.00  0.00     0.063 A
HETATM   24  C3  UNL     1     -25.241   6.714   9.666  1.00  0.00     0.080 A
HETATM   25  C2  UNL     1     -25.084   6.950   8.318  1.00  0.00     0.103 A
HETATM   26  N1  UNL     1     -25.689   8.041   7.886  1.00  0.00    -0.381 N
HETATM   27  N8  UNL     1     -24.345   6.166   7.529  1.00  0.00    -0.339 N
HETATM   28  C1  UNL     1     -25.668   8.475   6.528  1.00  0.00     0.147 C
ATOM     29  H1  UNL     1     -26.201   8.607   8.563  1.00  0.00     0.160 HD
HETATM   30  C14 UNL     1     -23.684   5.046   8.077  1.00  0.00     0.182 A
ATOM     31  H8  UNL     1     -24.258   6.376   6.534  1.00  0.00     0.168 HD
HETATM   32  N7  UNL     1     -23.894   4.899   9.386  1.00  0.00    -0.350 N
ATOM     33  H7  UNL     1     -23.420   4.096   9.798  1.00  0.00     0.166 HD
ENDBRANCH   1  23
BRANCH   6  34
HETATM   34  C13 UNL     1     -25.889   7.209  14.677  1.00  0.00     0.449 C
HETATM   35  F1  UNL     1     -26.726   6.657  15.626  1.00  0.00    -0.163 F
HETATM   36  F2  UNL     1     -24.838   7.774  15.376  1.00  0.00    -0.163 F
HETATM   37  F3  UNL     1     -26.583   8.171  13.983  1.00  0.00    -0.163 F
ENDBRANCH   6  34
TORSDOF 8
ENDMDL