MODEL 4
REMARK VINA RESULT: -6.839536534      0.867      1.486
REMARK  8 active torsions:
REMARK  status: ('A' for Active; 'I' for Inactive)
REMARK    1  A    between atoms: N1_1  and  C1_4
REMARK    2  A    between atoms: N4_9  and  C2_10
REMARK    3  A    between atoms: C2_10  and  C3_11
REMARK    4  A    between atoms: N5_12  and  N6_14
REMARK       I    between atoms: N6_14  and  C4_16
REMARK    5  A    between atoms: C4_16  and  C5_18
REMARK    6  A    between atoms: C7_20  and  C8_21
REMARK    7  A    between atoms: C10_26  and  S1_27
REMARK    8  A    between atoms: S1_27  and  N7_28
ROOT
HETATM    1  N6  UNL     1     -24.526   4.691   9.812  1.00  0.00    -0.266 N
ATOM      2  H6  UNL     1     -25.526   4.887   9.770  1.00  0.00     0.190 HD
HETATM    3  C4  UNL     1     -23.893   4.471  11.058  1.00  0.00     0.270 C
HETATM    4  O1  UNL     1     -22.637   4.245  11.039  1.00  0.00    -0.266 OA
ENDROOT
BRANCH   3   5
HETATM    5  C5  UNL     1     -24.589   4.484  12.343  1.00  0.00     0.035 A
HETATM    6  C6  UNL     1     -25.175   5.627  12.811  1.00  0.00     0.033 A
HETATM    7  C7  UNL     1     -25.805   5.638  14.051  1.00  0.00     0.050 A
HETATM    8  C9  UNL     1     -25.835   4.461  14.815  1.00  0.00     0.041 A
HETATM    9  C10 UNL     1     -25.246   3.302  14.348  1.00  0.00     0.081 A
HETATM   10  C11 UNL     1     -24.624   3.344  13.095  1.00  0.00     0.042 A
BRANCH   7  11
HETATM   11  C8  UNL     1     -26.427   6.877  14.549  1.00  0.00     0.417 C
HETATM   12  F1  UNL     1     -25.535   7.918  14.415  1.00  0.00    -0.166 F
HETATM   13  F2  UNL     1     -26.899   6.763  15.824  1.00  0.00    -0.166 F
HETATM   14  F3  UNL     1     -27.538   7.231  13.768  1.00  0.00    -0.166 F
ENDBRANCH   7  11
BRANCH   9  15
HETATM   15  S1  UNL     1     -25.295   1.854  15.323  1.00  0.00     0.256 S
HETATM   16  O2  UNL     1     -26.644   1.697  15.990  1.00  0.00    -0.201 OA
HETATM   17  O3  UNL     1     -24.273   1.970  16.417  1.00  0.00    -0.201 OA
BRANCH  15  18
HETATM   18  N7  UNL     1     -24.948   0.467  14.366  1.00  0.00    -0.324 N
ATOM     19  H72 UNL     1     -24.069   0.325  13.868  1.00  0.00     0.169 HD
ATOM     20  H71 UNL     1     -25.737  -0.179  14.370  1.00  0.00     0.169 HD
ENDBRANCH  15  18
ENDBRANCH   9  15
ENDBRANCH   3   5
BRANCH   1  21
HETATM   21  N5  UNL     1     -23.772   4.639   8.648  1.00  0.00    -0.311 N
HETATM   22  C3  UNL     1     -23.222   5.681   8.106  1.00  0.00     0.103 C
ATOM     23  H5  UNL     1     -23.643   3.734   8.196  1.00  0.00     0.185 HD
BRANCH  22  24
HETATM   24  C2  UNL     1     -22.420   5.573   6.871  1.00  0.00     0.217 C
BRANCH  24  25
HETATM   25  N4  UNL     1     -21.137   4.955   7.152  1.00  0.00    -0.200 N
HETATM   26  N3  UNL     1     -20.340   5.200   8.189  1.00  0.00    -0.211 N
HETATM   27  N2  UNL     1     -19.253   4.468   8.117  1.00  0.00    -0.115 N
ATOM     28  H3  UNL     1     -20.546   5.864   8.936  1.00  0.00     0.210 HD
HETATM   29  C1  UNL     1     -19.336   3.724   7.010  1.00  0.00     0.707 A
ATOM     30  H2  UNL     1     -18.482   4.468   8.785  1.00  0.00     0.207 HD
HETATM   31  N8  UNL     1     -20.504   4.028   6.414  1.00  0.00    -0.113 N
ATOM     32  H8  UNL     1     -20.851   3.622   5.545  1.00  0.00     0.207 HD
BRANCH  29  33
HETATM   33  N1  UNL     1     -18.488   2.841   6.541  1.00  0.00    -0.232 N
ATOM     34  H12 UNL     1     -18.110   2.072   7.093  1.00  0.00     0.174 HD
ATOM     35  H11 UNL     1     -18.078   2.775   5.610  1.00  0.00     0.174 HD
ENDBRANCH  29  33
ENDBRANCH  24  25
ENDBRANCH  22  24
ENDBRANCH   1  21
TORSDOF 8
ENDMDL