MODEL 5
REMARK VINA RESULT: -6.842543526      1.886      2.629
REMARK  6 active torsions:
REMARK  status: ('A' for Active; 'I' for Inactive)
REMARK    1  A    between atoms: C5_12  and  N4_13
REMARK    2  A    between atoms: N4_13  and  C6_14
REMARK    3  A    between atoms: N4_13  and  C10_21
REMARK    4  A    between atoms: C6_14  and  C7_15
REMARK    5  A    between atoms: C7_15  and  C8_17
REMARK    6  A    between atoms: C11_26  and  N7_27
ROOT
HETATM    1  N4  UNL     1     -24.605   5.138  12.603  1.00  0.00    -0.158 N
ENDROOT
BRANCH   1   2
HETATM    2  C5  UNL     1     -23.558   5.114  11.646  1.00  0.00     0.688 A
HETATM    3  N3  UNL     1     -22.230   5.009  11.781  1.00  0.00    -0.182 N
HETATM    4  C4  UNL     1     -21.602   5.040  10.609  1.00  0.00     0.162 A
ATOM      5  H3  UNL     1     -21.756   4.917  12.679  1.00  0.00     0.184 HD
HETATM    6  C3  UNL     1     -20.270   4.967  10.286  1.00  0.00     0.280 A
HETATM    7  C13 UNL     1     -22.588   5.175   9.648  1.00  0.00     0.160 A
HETATM    8  N2  UNL     1     -19.931   5.027   8.986  1.00  0.00    -0.273 N
HETATM    9  O2  UNL     1     -19.384   4.844  11.168  1.00  0.00    -0.265 OA
HETATM   10  C2  UNL     1     -20.896   5.157   8.066  1.00  0.00     0.330 A
ATOM     11  H2  UNL     1     -18.953   4.975   8.704  1.00  0.00     0.173 HD
HETATM   12  N1  UNL     1     -22.206   5.231   8.375  1.00  0.00    -0.287 N
HETATM   13  O1  UNL     1     -20.597   5.217   6.840  1.00  0.00    -0.246 OA
HETATM   14  C1  UNL     1     -23.202   5.377   7.336  1.00  0.00     0.163 C
HETATM   15  N9  UNL     1     -23.773   5.216  10.320  1.00  0.00    -0.173 N
ATOM     16  H9  UNL     1     -24.689   5.310   9.882  1.00  0.00     0.186 HD
ENDBRANCH   1   2
BRANCH   1  17
HETATM   17  C6  UNL     1     -25.537   6.195  12.770  1.00  0.00     0.193 C
BRANCH  17  18
HETATM   18  C7  UNL     1     -25.229   7.261  13.753  1.00  0.00     0.260 C
HETATM   19  F1  UNL     1     -25.502   8.478  13.075  1.00  0.00    -0.241 F
BRANCH  18  20
HETATM   20  C8  UNL     1     -26.092   7.307  14.976  1.00  0.00     0.271 C
HETATM   21  C9  UNL     1     -27.150   8.378  14.914  1.00  0.00     0.093 C
HETATM   22  F2  UNL     1     -26.661   6.145  15.364  1.00  0.00    -0.204 F
HETATM   23  F3  UNL     1     -25.235   7.694  16.027  1.00  0.00    -0.204 F
ENDBRANCH  18  20
ENDBRANCH  17  18
ENDBRANCH   1  17
BRANCH   1  24
HETATM   24  C10 UNL     1     -24.701   3.979  13.459  1.00  0.00     0.207 A
HETATM   25  N5  UNL     1     -24.392   3.974  14.746  1.00  0.00    -0.266 N
HETATM   26  N6  UNL     1     -24.493   2.891  15.496  1.00  0.00    -0.131 N
ATOM     27  H5  UNL     1     -24.063   4.839  15.175  1.00  0.00     0.189 HD
HETATM   28  C11 UNL     1     -24.927   1.728  14.957  1.00  0.00     0.693 A
ATOM     29  H6  UNL     1     -24.244   2.931  16.485  1.00  0.00     0.205 HD
HETATM   30  N8  UNL     1     -25.258   1.671  13.643  1.00  0.00    -0.152 N
HETATM   31  C12 UNL     1     -25.146   2.786  12.907  1.00  0.00     0.305 A
ATOM     32  H8  UNL     1     -25.585   0.800  13.225  1.00  0.00     0.188 HD
HETATM   33  O3  UNL     1     -25.453   2.743  11.676  1.00  0.00    -0.263 OA
BRANCH  28  34
HETATM   34  N7  UNL     1     -25.046   0.642  15.646  1.00  0.00    -0.233 N
ATOM     35  H72 UNL     1     -24.696   0.654  16.604  1.00  0.00     0.174 HD
ATOM     36  H71 UNL     1     -25.470  -0.206  15.268  1.00  0.00     0.174 HD
ENDBRANCH  28  34
ENDBRANCH   1  24
TORSDOF 6
ENDMDL