MODEL 1
REMARK VINA RESULT: -7.958535921      0.000      0.000
REMARK  6 active torsions:
REMARK  status: ('A' for Active; 'I' for Inactive)
REMARK       I    between atoms: C1_2  and  N2_4
REMARK       I    between atoms: C2_6  and  N4_8
REMARK    1  A    between atoms: N4_8  and  N5_10
REMARK    2  A    between atoms: C3_12  and  C4_13
REMARK    3  A    between atoms: C3_12  and  C8_30
REMARK       I    between atoms: C4_13  and  N6_15
REMARK    4  A    between atoms: N6_15  and  N7_17
REMARK    5  A    between atoms: C5_24  and  C6_25
REMARK    6  A    between atoms: C6_25  and  C7_26
ROOT
HETATM    1  N5  UNL     1     -25.122   5.683  11.443  1.00  0.00    -0.291 N
ATOM      2  H5  UNL     1     -25.403   6.663  11.466  1.00  0.00     0.187 HD
HETATM    3  C3  UNL     1     -24.959   5.300  12.613  1.00  0.00     0.146 C
ENDROOT
BRANCH   3   4
HETATM    4  C4  UNL     1     -24.553   3.957  13.074  1.00  0.00     0.292 C
HETATM    5  O2  UNL     1     -23.511   3.531  12.562  1.00  0.00    -0.264 OA
HETATM    6  N6  UNL     1     -25.283   3.240  13.999  1.00  0.00    -0.240 N
ATOM      7  H6  UNL     1     -26.110   3.751  14.308  1.00  0.00     0.192 HD
BRANCH   6   8
HETATM    8  N7  UNL     1     -25.181   2.009  14.613  1.00  0.00    -0.164 N
HETATM    9  N8  UNL     1     -24.750   0.909  13.910  1.00  0.00    -0.205 N
HETATM   10  N9  UNL     1     -24.730  -0.113  14.667  1.00  0.00    -0.225 N
ATOM     11  H8  UNL     1     -24.485   0.912  12.925  1.00  0.00     0.212 HD
HETATM   12  N10 UNL     1     -25.120   0.215  15.853  1.00  0.00    -0.270 N
ATOM     13  H9  UNL     1     -24.447  -1.050  14.380  1.00  0.00     0.210 HD
HETATM   14  C5  UNL     1     -25.408   1.564  15.824  1.00  0.00     0.147 A
ATOM     15  H10 UNL     1     -25.201  -0.406  16.660  1.00  0.00     0.190 HD
BRANCH  14  16
HETATM   16  C6  UNL     1     -25.886   2.291  17.031  1.00  0.00     0.198 C
BRANCH  16  17
HETATM   17  C7  UNL     1     -27.109   1.513  17.577  1.00  0.00     0.394 C
HETATM   18  F1  UNL     1     -26.640   0.283  17.966  1.00  0.00    -0.171 F
HETATM   19  F2  UNL     1     -27.570   2.237  18.656  1.00  0.00    -0.171 F
HETATM   20  F3  UNL     1     -28.042   1.440  16.567  1.00  0.00    -0.171 F
ENDBRANCH  16  17
ENDBRANCH  14  16
ENDBRANCH   6   8
ENDBRANCH   3   4
BRANCH   3  21
HETATM   21  C8  UNL     1     -25.209   6.332  13.641  1.00  0.00     0.082 A
HETATM   22  C9  UNL     1     -24.423   6.787  14.625  1.00  0.00     0.121 A
HETATM   23  N11 UNL     1     -25.097   7.754  15.328  1.00  0.00    -0.360 N
HETATM   24  C10 UNL     1     -26.295   7.888  14.771  1.00  0.00     0.180 A
ATOM     25  H11 UNL     1     -24.743   8.275  16.131  1.00  0.00     0.166 HD
HETATM   26  N12 UNL     1     -26.374   7.032  13.748  1.00  0.00    -0.349 N
ATOM     27  H12 UNL     1     -27.184   6.919  13.139  1.00  0.00     0.166 HD
ENDBRANCH   3  21
BRANCH   1  28
HETATM   28  N4  UNL     1     -25.069   5.298  10.176  1.00  0.00    -0.273 N
HETATM   29  C2  UNL     1     -23.877   5.261   9.407  1.00  0.00     0.210 C
HETATM   30  N2  UNL     1     -23.876   5.208   8.119  1.00  0.00    -0.284 N
HETATM   31  N3  UNL     1     -22.615   5.283  10.059  1.00  0.00    -0.062 NA
HETATM   32  C1  UNL     1     -22.724   5.170   7.332  1.00  0.00     0.335 C
ATOM     33  H2  UNL     1     -24.778   5.192   7.643  1.00  0.00     0.172 HD
HETATM   34  N1  UNL     1     -22.741   5.724   6.035  1.00  0.00    -0.040 NA
HETATM   35  O1  UNL     1     -21.680   4.644   7.778  1.00  0.00    -0.251 OA
ATOM     36  H4  UNL     1     -25.938   5.010   9.726  1.00  0.00     0.189 HD
ENDBRANCH   1  28
TORSDOF 6
ENDMDL