MODEL 5
REMARK VINA RESULT: -7.030988561      3.950      5.032
REMARK  7 active torsions:
REMARK  status: ('A' for Active; 'I' for Inactive)
REMARK    1  A    between atoms: C2_2  and  N1_3
REMARK       I    between atoms: N1_3  and  C3_4
REMARK    2  A    between atoms: N1_3  and  N3_7
REMARK    3  A    between atoms: N3_7  and  C4_8
REMARK    4  A    between atoms: N3_7  and  N11_33
REMARK    5  A    between atoms: C7_13  and  C8_14
REMARK    6  A    between atoms: C9_20  and  N6_21
REMARK    7  A    between atoms: N8_26  and  O2_27
ROOT
HETATM    1  C4  UNL     1     -24.876   4.672  10.982  1.00  0.00     0.740 A
HETATM    2  N4  UNL     1     -25.626   5.747  10.776  1.00  0.00    -0.168 N
ATOM      3  H4  UNL     1     -26.297   6.126  11.445  1.00  0.00     0.186 HD
HETATM    4  C5  UNL     1     -25.371   6.280   9.532  1.00  0.00     0.169 A
HETATM    5  C6  UNL     1     -26.027   7.448   8.983  1.00  0.00     0.159 A
HETATM    6  C7  UNL     1     -25.765   8.021   7.775  1.00  0.00     0.167 A
HETATM    7  N5  UNL     1     -26.474   9.121   7.346  1.00  0.00    -0.183 N
ATOM      8  H5  UNL     1     -26.258   9.530   6.437  1.00  0.00     0.184 HD
HETATM    9  C9  UNL     1     -27.435   9.664   8.090  1.00  0.00     0.693 A
HETATM   10  N7  UNL     1     -27.684   9.094   9.276  1.00  0.00    -0.105 N
ATOM     11  H7  UNL     1     -28.416   9.493   9.863  1.00  0.00     0.208 HD
HETATM   12  N8  UNL     1     -27.026   8.040   9.718  1.00  0.00    -0.143 N
HETATM   13  N9  UNL     1     -24.447   5.460   9.045  1.00  0.00    -0.269 N
ATOM     14  H9  UNL     1     -24.029   5.569   8.121  1.00  0.00     0.189 HD
HETATM   15  N10 UNL     1     -24.124   4.489   9.877  1.00  0.00    -0.127 N
ATOM     16  H10 UNL     1     -23.441   3.748   9.717  1.00  0.00     0.206 HD
ENDROOT
BRANCH   1  17
HETATM   17  N3  UNL     1     -24.809   3.812  12.122  1.00  0.00     0.048 N
BRANCH  17  18
HETATM   18  N1  UNL     1     -24.331   4.257  13.366  1.00  0.00    -0.204 N
HETATM   19  C3  UNL     1     -22.910   4.409  13.524  1.00  0.00     0.351 C
HETATM   20  N2  UNL     1     -22.033   4.122  12.464  1.00  0.00    -0.038 NA
HETATM   21  O1  UNL     1     -22.474   4.807  14.640  1.00  0.00    -0.249 OA
BRANCH  18  22
HETATM   22  C2  UNL     1     -25.232   4.550  14.445  1.00  0.00     0.152 C
HETATM   23  C1  UNL     1     -25.819   5.961  14.302  1.00  0.00     0.029 C
ENDBRANCH  18  22
ENDBRANCH  17  18
BRANCH  17  24
HETATM   24  N11 UNL     1     -25.221   2.483  12.051  1.00  0.00    -0.001 N
HETATM   25  O3  UNL     1     -26.111   2.183  11.239  1.00  0.00    -0.515 OA
HETATM   26  O4  UNL     1     -24.689   1.494  12.834  1.00  0.00    -0.515 OA
ENDBRANCH  17  24
ENDBRANCH   1  17
BRANCH   6  27
HETATM   27  C8  UNL     1     -24.702   7.496   6.900  1.00  0.00     0.435 C
HETATM   28  F1  UNL     1     -23.434   7.599   7.387  1.00  0.00    -0.165 F
HETATM   29  F2  UNL     1     -24.704   8.300   5.729  1.00  0.00    -0.165 F
HETATM   30  F3  UNL     1     -25.027   6.238   6.402  1.00  0.00    -0.165 F
ENDBRANCH   6  27
BRANCH  12  31
HETATM   31  O2  UNL     1     -27.282   7.533  10.825  1.00  0.00    -0.267 OA
ATOM     32  H2  UNL     1     -27.864   8.022  11.395  1.00  0.00     0.247 HD
ENDBRANCH  12  31
BRANCH   9  33
HETATM   33  N6  UNL     1     -28.105  10.708   7.680  1.00  0.00    -0.233 N
ATOM     34  H62 UNL     1     -28.979  10.611   7.164  1.00  0.00     0.174 HD
ATOM     35  H61 UNL     1     -27.775  11.656   7.864  1.00  0.00     0.174 HD
ENDBRANCH   9  33
TORSDOF 7
ENDMDL