MODEL 4
REMARK VINA RESULT: -7.180435847      1.672      2.379
REMARK  7 active torsions:
REMARK  status: ('A' for Active; 'I' for Inactive)
REMARK    1  A    between atoms: C2_2  and  N1_3
REMARK    2  A    between atoms: C2_2  and  C13_25
REMARK    3  A    between atoms: C2_2  and  C14_32
REMARK    4  A    between atoms: N1_3  and  C3_5
REMARK    5  A    between atoms: C7_11  and  C8_12
REMARK    6  A    between atoms: C9_13  and  N3_14
REMARK       I    between atoms: C13_25  and  N6_27
REMARK    7  A    between atoms: N6_27  and  N7_29
ROOT
HETATM    1  C3  UNL     1     -25.263   6.891  12.741  1.00  0.00     0.112 A
HETATM    2  N2  UNL     1     -25.112   8.147  12.302  1.00  0.00    -0.352 N
ATOM      3  H2  UNL     1     -24.828   8.281  11.331  1.00  0.00     0.166 HD
HETATM    4  C4  UNL     1     -25.307   9.230  13.044  1.00  0.00     0.089 A
HETATM    5  C5  UNL     1     -25.696   9.096  14.371  1.00  0.00     0.018 A
HETATM    6  C6  UNL     1     -25.856   7.823  14.852  1.00  0.00     0.016 A
HETATM    7  C7  UNL     1     -25.638   6.688  14.040  1.00  0.00     0.009 A
ENDROOT
BRANCH   1   8
HETATM    8  N1  UNL     1     -25.176   5.863  11.779  1.00  0.00    -0.351 N
ATOM      9  H1  UNL     1     -25.970   5.688  11.163  1.00  0.00     0.162 HD
BRANCH   8  10
HETATM   10  C2  UNL     1     -23.960   5.036  11.643  1.00  0.00     0.209 C
HETATM   11  C1  UNL     1     -22.949   5.599  12.604  1.00  0.00     0.059 C
BRANCH  10  12
HETATM   12  C13 UNL     1     -24.212   3.629  11.976  1.00  0.00     0.272 C
HETATM   13  O4  UNL     1     -23.416   3.058  12.792  1.00  0.00    -0.269 OA
HETATM   14  N6  UNL     1     -25.250   2.837  11.482  1.00  0.00    -0.274 N
ATOM     15  H6  UNL     1     -25.903   3.268  10.827  1.00  0.00     0.189 HD
BRANCH  14  16
HETATM   16  N7  UNL     1     -25.462   1.499  11.819  1.00  0.00    -0.343 N
ATOM     17  H72 UNL     1     -24.740   0.838  11.533  1.00  0.00     0.176 HD
ATOM     18  H71 UNL     1     -26.276   1.148  12.323  1.00  0.00     0.176 HD
ENDBRANCH  14  16
ENDBRANCH  10  12
BRANCH  10  19
HETATM   19  C14 UNL     1     -23.443   5.188  10.216  1.00  0.00     0.421 C
HETATM   20  F1  UNL     1     -24.162   4.483   9.306  1.00  0.00    -0.168 F
HETATM   21  F2  UNL     1     -22.115   4.864  10.209  1.00  0.00    -0.168 F
HETATM   22  F3  UNL     1     -23.515   6.529   9.826  1.00  0.00    -0.168 F
ENDBRANCH  10  19
ENDBRANCH   8  10
ENDBRANCH   1   8
BRANCH   7  23
HETATM   23  C8  UNL     1     -25.677   5.409  14.720  1.00  0.00     0.034 C
HETATM   24  C9  UNL     1     -26.546   4.462  14.693  1.00  0.00     0.122 C
BRANCH  24  25
HETATM   25  N3  UNL     1     -26.436   3.264  15.430  1.00  0.00    -0.214 N
HETATM   26  N4  UNL     1     -25.574   2.324  15.128  1.00  0.00    -0.251 N
HETATM   27  C10 UNL     1     -25.469   1.163  15.846  1.00  0.00     0.328 A
ATOM     28  H4  UNL     1     -24.959   2.461  14.326  1.00  0.00     0.191 HD
HETATM   29  O1  UNL     1     -24.619   0.288  15.511  1.00  0.00    -0.261 OA
HETATM   30  C11 UNL     1     -26.300   0.977  16.928  1.00  0.00     0.319 A
HETATM   31  O2  UNL     1     -26.205  -0.095  17.595  1.00  0.00    -0.262 OA
HETATM   32  N5  UNL     1     -27.180   1.944  17.232  1.00  0.00    -0.269 N
HETATM   33  C12 UNL     1     -27.249   3.053  16.509  1.00  0.00     0.348 A
ATOM     34  H5  UNL     1     -27.804   1.824  18.029  1.00  0.00     0.174 HD
HETATM   35  O3  UNL     1     -28.094   3.948  16.826  1.00  0.00    -0.245 OA
ENDBRANCH  24  25
ENDBRANCH   7  23
TORSDOF 7
ENDMDL