MODEL 3
REMARK VINA RESULT: -7.713117834      1.004      1.302
REMARK  6 active torsions:
REMARK  status: ('A' for Active; 'I' for Inactive)
REMARK    1  A    between atoms: C7_7  and  C8_8
REMARK    2  A    between atoms: C8_8  and  C9_9
REMARK    3  A    between atoms: C9_9  and  C10_10
REMARK    4  A    between atoms: N1_13  and  C13_14
REMARK    5  A    between atoms: C13_14  and  C14_15
REMARK    6  A    between atoms: C14_15  and  O1_16
ROOT
HETATM    1  C1  UNL     1      12.538 -11.793  -9.678  1.00  0.00     0.082 C
HETATM    2  C2  UNL     1      11.292 -11.009 -10.124  1.00  0.00     0.196 C
HETATM    3  C3  UNL     1      10.118 -11.864  -9.886  1.00  0.00     0.072 C
HETATM    4  C4  UNL     1       8.878 -11.571 -10.611  1.00  0.00     0.018 C
HETATM    5  C5  UNL     1       8.444 -10.119 -10.594  1.00  0.00     0.006 C
HETATM    6  C6  UNL     1       7.900  -9.688  -9.285  1.00  0.00     0.021 C
HETATM    7  C7  UNL     1       6.382  -9.684  -9.199  1.00  0.00     0.009 C
HETATM    8  C17 UNL     1       5.908  -8.776 -10.311  1.00  0.00     0.009 C
HETATM    9  C18 UNL     1       6.197  -9.512 -11.601  1.00  0.00     0.006 C
HETATM   10  C19 UNL     1       7.627  -9.864 -11.802  1.00  0.00    -0.000 C
HETATM   11  C20 UNL     1       8.286  -8.781 -12.622  1.00  0.00     0.041 C
HETATM   12  C21 UNL     1       9.465  -8.282 -11.844  1.00  0.00     0.168 C
HETATM   13  O2  UNL     1      10.722  -8.638 -12.397  1.00  0.00    -0.349 OA
HETATM   14  C22 UNL     1      10.463  -9.920 -11.936  1.00  0.00     0.305 C
HETATM   15  O3  UNL     1      11.521 -10.631 -11.424  1.00  0.00    -0.320 OA
HETATM   16  C23 UNL     1       9.697  -9.315 -10.821  1.00  0.00     0.179 C
HETATM   17  O4  UNL     1      10.389  -9.011  -9.701  1.00  0.00    -0.218 OA
HETATM   18  O5  UNL     1      11.257  -9.881  -9.307  1.00  0.00    -0.200 OA
ENDROOT
BRANCH   7  19
HETATM   19  C8  UNL     1       5.995  -9.255  -7.848  1.00  0.00    -0.026 C
BRANCH  19  20
HETATM   20  C9  UNL     1       6.970  -9.106  -6.776  1.00  0.00    -0.026 C
BRANCH  20  21
HETATM   21  C10 UNL     1       6.891  -8.045  -5.775  1.00  0.00     0.011 C
HETATM   22  C11 UNL     1       8.150  -7.362  -5.334  1.00  0.00     0.039 C
HETATM   23  C12 UNL     1       7.860  -6.663  -4.003  1.00  0.00     0.273 C
HETATM   24  N1  UNL     1       6.733  -5.767  -4.137  1.00  0.00     0.090 N
HETATM   25  C15 UNL     1       5.555  -6.335  -4.694  1.00  0.00     0.273 C
HETATM   26  C16 UNL     1       5.895  -6.926  -6.047  1.00  0.00     0.039 C
BRANCH  24  27
HETATM   27  C13 UNL     1       6.525  -5.119  -2.864  1.00  0.00     0.298 C
BRANCH  27  28
HETATM   28  C14 UNL     1       5.226  -5.521  -2.210  1.00  0.00     0.194 C
BRANCH  28  29
HETATM   29  O1  UNL     1       5.556  -6.066  -0.957  1.00  0.00    -0.399 OA
ATOM     30  H1  UNL     1       5.646  -5.335  -0.358  1.00  0.00     0.209 HD
ENDBRANCH  28  29
ENDBRANCH  27  28
ENDBRANCH  24  27
ENDBRANCH  20  21
ENDBRANCH  19  20
ENDBRANCH   7  19
TORSDOF 6
ENDMDL