MODEL 4
REMARK VINA RESULT: -6.516892457      2.463      5.390
REMARK  5 active torsions:
REMARK  status: ('A' for Active; 'I' for Inactive)
REMARK    1  A    between atoms: O1_2  and  C2_3
REMARK    2  A    between atoms: C7_10  and  O2_11
REMARK    3  A    between atoms: N2_18  and  C12_19
REMARK    4  A    between atoms: C12_19  and  C13_20
REMARK    5  A    between atoms: C18_26  and  C19_27
ROOT
HETATM    1  C2  UNL     1      10.554  -9.772  -9.682  1.00  0.00     0.124 A
HETATM    2  C3  UNL     1      10.932  -9.331 -10.941  1.00  0.00     0.042 A
HETATM    3  C4  UNL     1      12.362  -8.944 -11.152  1.00  0.00     0.071 C
HETATM    4  N1  UNL     1      10.037  -9.254 -11.940  1.00  0.00    -0.360 N
ATOM      5  H1  UNL     1      10.370  -8.923 -12.845  1.00  0.00     0.165 HD
HETATM    6  C5  UNL     1       8.744  -9.578 -11.839  1.00  0.00     0.032 A
HETATM    7  C6  UNL     1       8.350 -10.017 -10.593  1.00  0.00     0.032 A
HETATM    8  C7  UNL     1       9.242 -10.114  -9.529  1.00  0.00     0.112 A
HETATM    9  C8  UNL     1       7.053 -10.465 -10.011  1.00  0.00     0.186 C
HETATM   10  O3  UNL     1       6.167 -10.656 -11.041  1.00  0.00    -0.362 OA
HETATM   11  C9  UNL     1       5.813  -9.357 -10.959  1.00  0.00     0.118 C
HETATM   12  C10 UNL     1       4.292  -9.344 -10.713  1.00  0.00     0.087 C
HETATM   13  C11 UNL     1       4.097  -9.745  -9.297  1.00  0.00     0.067 C
HETATM   14  N2  UNL     1       5.323  -9.506  -8.650  1.00  0.00    -0.363 N
HETATM   15  C16 UNL     1       6.351  -9.190  -9.564  1.00  0.00     0.159 C
HETATM   16  C17 UNL     1       6.171  -8.360 -11.921  1.00  0.00     0.196 A
HETATM   17  O4  UNL     1       5.616  -8.875 -13.238  1.00  0.00    -0.364 OA
HETATM   18  C18 UNL     1       6.976  -8.339 -13.057  1.00  0.00     0.106 A
HETATM   19  C22 UNL     1       8.091  -9.342 -13.184  1.00  0.00     0.030 C
HETATM   20  C23 UNL     1       7.609 -10.680 -13.726  1.00  0.00     0.025 C
HETATM   21  C24 UNL     1       9.233  -8.967 -14.095  1.00  0.00     0.025 C
ENDROOT
BRANCH  14  22
HETATM   22  C12 UNL     1       5.332  -8.906  -7.376  1.00  0.00     0.068 C
BRANCH  22  23
HETATM   23  C13 UNL     1       6.311  -7.785  -7.254  1.00  0.00     0.024 A
HETATM   24  C14 UNL     1       6.970  -7.348  -6.031  1.00  0.00     0.010 A
HETATM   25  C15 UNL     1       5.860  -6.502  -6.646  1.00  0.00     0.010 A
ENDBRANCH  22  23
ENDBRANCH  14  22
BRANCH   8  26
HETATM   26  O2  UNL     1       8.781 -10.558  -8.324  1.00  0.00    -0.357 OA
ATOM     27  H2  UNL     1       9.163 -11.328  -7.918  1.00  0.00     0.217 HD
ENDBRANCH   8  26
BRANCH  18  28
HETATM   28  C19 UNL     1       7.019  -7.018 -13.797  1.00  0.00     0.016 C
HETATM   29  C20 UNL     1       5.643  -6.485 -14.125  1.00  0.00     0.012 C
HETATM   30  C21 UNL     1       8.029  -6.034 -13.371  1.00  0.00     0.012 C
ENDBRANCH  18  28
BRANCH   1  31
HETATM   31  O1  UNL     1      11.502  -9.837  -8.684  1.00  0.00    -0.351 OA
HETATM   32  C1  UNL     1      12.208 -10.997  -8.317  1.00  0.00     0.210 C
ENDBRANCH   1  31
TORSDOF 5
ENDMDL