MODEL 3
REMARK VINA RESULT: -6.875546977      2.665      5.446
REMARK  5 active torsions:
REMARK  status: ('A' for Active; 'I' for Inactive)
REMARK    1  A    between atoms: C2_2  and  C4_4
REMARK    2  A    between atoms: C10_11  and  O2_12
REMARK    3  A    between atoms: C16_20  and  O4_21
REMARK    4  A    between atoms: O4_21  and  C17_22
REMARK    5  A    between atoms: C17_22  and  C18_23
ROOT
HETATM    1  C4  UNL     1       7.622  -7.748  -6.493  1.00  0.00    -0.079 C
HETATM    2  C5  UNL     1       8.659  -7.879  -7.302  1.00  0.00    -0.012 C
HETATM    3  C6  UNL     1       9.204  -9.223  -7.606  1.00  0.00    -0.001 C
HETATM    4  C7  UNL     1       9.981  -9.659  -6.352  1.00  0.00     0.022 C
HETATM    5  C8  UNL     1      10.268  -9.053  -8.676  1.00  0.00     0.182 C
HETATM    6  O1  UNL     1       9.680  -8.847  -9.840  1.00  0.00    -0.370 OA
HETATM    7  C9  UNL     1       9.404  -9.800 -10.749  1.00  0.00     0.145 C
HETATM    8  C10 UNL     1      10.538 -10.327 -11.399  1.00  0.00     0.294 C
HETATM    9  O3  UNL     1      10.959 -11.419 -10.601  1.00  0.00    -0.357 OA
HETATM   10  C11 UNL     1       9.877 -11.859  -9.844  1.00  0.00     0.183 C
HETATM   11  C12 UNL     1       8.739 -11.074 -10.205  1.00  0.00     0.020 C
HETATM   12  C13 UNL     1       7.943 -11.785 -11.287  1.00  0.00     0.021 C
HETATM   13  C14 UNL     1       7.780 -10.462  -9.312  1.00  0.00     0.007 C
HETATM   14  C15 UNL     1       7.276  -9.301 -10.138  1.00  0.00     0.041 C
HETATM   15  C16 UNL     1       8.180  -9.238 -11.399  1.00  0.00     0.162 C
HETATM   16  C21 UNL     1       8.152 -10.179  -7.910  1.00  0.00     0.005 C
HETATM   17  C22 UNL     1       6.876  -9.925  -7.140  1.00  0.00     0.010 C
HETATM   18  C23 UNL     1       7.068  -9.020  -5.944  1.00  0.00     0.034 C
ENDROOT
BRANCH  15  19
HETATM   19  O4  UNL     1       8.271  -7.872 -11.656  1.00  0.00    -0.378 OA
BRANCH  19  20
HETATM   20  C17 UNL     1       8.635  -7.558 -12.940  1.00  0.00     0.229 C
BRANCH  20  21
HETATM   21  C18 UNL     1       7.908  -6.353 -13.500  1.00  0.00     0.283 C
HETATM   22  O5  UNL     1       7.819  -6.404 -14.869  1.00  0.00    -0.357 OA
HETATM   23  C19 UNL     1       6.495  -6.365 -15.234  1.00  0.00     0.197 C
HETATM   24  C20 UNL     1       5.793  -6.861 -13.987  1.00  0.00     0.197 C
HETATM   25  O6  UNL     1       6.611  -6.390 -12.985  1.00  0.00    -0.357 OA
ENDBRANCH  20  21
ENDBRANCH  19  20
ENDBRANCH  15  19
BRANCH   8  26
HETATM   26  O2  UNL     1      10.523 -10.712 -12.703  1.00  0.00    -0.368 OA
ATOM     27  H2  UNL     1      10.453 -11.621 -12.968  1.00  0.00     0.212 HD
ENDBRANCH   8  26
BRANCH   1  28
HETATM   28  C2  UNL     1       7.015  -6.433  -6.137  1.00  0.00     0.006 C
HETATM   29  C1  UNL     1       7.082  -6.139  -4.678  1.00  0.00     0.014 C
HETATM   30  C3  UNL     1       5.622  -6.301  -6.718  1.00  0.00     0.014 C
ENDBRANCH   1  28
TORSDOF 5
ENDMDL