MODEL 2
REMARK VINA RESULT: -7.099671752      2.069      3.250
REMARK  6 active torsions:
REMARK  status: ('A' for Active; 'I' for Inactive)
REMARK    1  A    between atoms: C2_2  and  C3_3
REMARK    2  A    between atoms: C3_3  and  C4_4
REMARK    3  A    between atoms: C6_6  and  O1_7
REMARK    4  A    between atoms: C7_9  and  O2_10
REMARK    5  A    between atoms: O2_10  and  C8_11
REMARK    6  A    between atoms: C8_11  and  C9_13
ROOT
HETATM    1  C4  UNL     1       9.888  -9.363  -9.494  1.00  0.00     0.134 C
HETATM    2  C5  UNL     1       9.651  -8.227  -8.516  1.00  0.00     0.067 C
HETATM    3  C6  UNL     1       8.967  -8.650  -7.288  1.00  0.00     0.150 C
HETATM    4  C7  UNL     1       7.672  -8.049  -6.934  1.00  0.00     0.161 C
HETATM    5  C14 UNL     1       6.729  -7.686  -8.021  1.00  0.00     0.047 C
HETATM    6  C15 UNL     1       5.682  -8.680  -8.377  1.00  0.00     0.054 C
HETATM    7  C16 UNL     1       5.147  -9.283  -7.064  1.00  0.00     0.018 C
HETATM    8  C17 UNL     1       6.070  -9.738  -9.329  1.00  0.00     0.140 C
HETATM    9  O4  UNL     1       6.618 -10.702  -8.808  1.00  0.00    -0.297 OA
HETATM   10  C18 UNL     1       5.880  -9.770 -10.766  1.00  0.00     0.030 C
HETATM   11  C19 UNL     1       5.465 -11.197 -11.222  1.00  0.00     0.024 C
HETATM   12  C20 UNL     1       4.839  -8.837 -11.348  1.00  0.00     0.018 C
HETATM   13  C21 UNL     1       5.979  -7.981 -11.853  1.00  0.00     0.017 C
HETATM   14  C22 UNL     1       6.837  -9.251 -11.704  1.00  0.00     0.101 C
HETATM   15  C23 UNL     1       8.222  -8.918 -11.402  1.00  0.00     0.264 C
HETATM   16  O5  UNL     1       8.594  -7.912 -12.132  1.00  0.00    -0.265 OA
HETATM   17  O6  UNL     1       9.081  -9.446 -10.568  1.00  0.00    -0.316 OA
ENDROOT
BRANCH   4  18
HETATM   18  O2  UNL     1       7.919  -6.940  -6.051  1.00  0.00    -0.313 OA
BRANCH  18  19
HETATM   19  C8  UNL     1       7.505  -6.864  -4.760  1.00  0.00     0.263 C
HETATM   20  O3  UNL     1       8.078  -7.540  -3.884  1.00  0.00    -0.265 OA
BRANCH  19  21
HETATM   21  C9  UNL     1       6.379  -5.976  -4.414  1.00  0.00     0.085 C
HETATM   22  C10 UNL     1       6.475  -5.625  -2.947  1.00  0.00     0.014 C
HETATM   23  C11 UNL     1       5.037  -5.442  -2.478  1.00  0.00     0.001 C
HETATM   24  C12 UNL     1       4.165  -5.729  -3.680  1.00  0.00     0.001 C
HETATM   25  C13 UNL     1       5.042  -6.677  -4.478  1.00  0.00     0.014 C
ENDBRANCH  19  21
ENDBRANCH  18  19
ENDBRANCH   4  18
BRANCH   3  26
HETATM   26  O1  UNL     1       9.844  -8.435  -6.189  1.00  0.00    -0.393 OA
ATOM     27  H1  UNL     1       9.627  -7.601  -5.790  1.00  0.00     0.210 HD
ENDBRANCH   3  26
BRANCH   1  28
HETATM   28  C3  UNL     1      11.371  -9.470  -9.857  1.00  0.00     0.032 C
BRANCH  28  29
HETATM   29  C2  UNL     1      11.895 -10.863  -9.812  1.00  0.00    -0.002 C
HETATM   30  C1  UNL     1      12.221 -11.148  -8.339  1.00  0.00     0.005 C
ENDBRANCH  28  29
ENDBRANCH   1  28
TORSDOF 6
ENDMDL