MODEL 2
REMARK VINA RESULT: -6.866749958      4.614      8.182
REMARK  4 active torsions:
REMARK  status: ('A' for Active; 'I' for Inactive)
REMARK    1  A    between atoms: C1_2  and  C2_4
REMARK    2  A    between atoms: C5_7  and  N1_8
REMARK    3  A    between atoms: C11_15  and  N2_16
REMARK    4  A    between atoms: N3_19  and  C14_20
ROOT
HETATM    1  C2  UNL     1       8.445  -8.876  -6.706  1.00  0.00     0.098 A
HETATM    2  C3  UNL     1       8.140 -10.171  -6.050  1.00  0.00     0.036 A
HETATM    3  C4  UNL     1       7.109  -9.426  -6.906  1.00  0.00     0.051 A
HETATM    4  C5  UNL     1       7.008  -9.915  -8.301  1.00  0.00     0.270 A
HETATM    5  C10 UNL     1       8.368  -9.642  -8.913  1.00  0.00     0.044 A
HETATM    6  S1  UNL     1       9.379  -9.748 -10.286  1.00  0.00    -0.054 SA
HETATM    7  C11 UNL     1      10.786  -9.031  -9.643  1.00  0.00     0.147 A
HETATM    8  N4  UNL     1      10.415  -8.747  -8.414  1.00  0.00    -0.338 N
ATOM      9  H4  UNL     1      11.070  -8.298  -7.774  1.00  0.00     0.168 HD
HETATM   10  C21 UNL     1       9.200  -9.043  -8.012  1.00  0.00     0.046 A
ENDROOT
BRANCH   7  11
HETATM   11  N2  UNL     1      12.069  -8.786 -10.260  1.00  0.00    -0.358 N
HETATM   12  C12 UNL     1      12.036  -7.934 -11.421  1.00  0.00     0.144 C
HETATM   13  C13 UNL     1      13.435  -7.324 -11.544  1.00  0.00     0.137 C
HETATM   14  N3  UNL     1      14.339  -8.451 -11.579  1.00  0.00    -0.405 N
HETATM   15  C19 UNL     1      14.512  -9.103 -10.332  1.00  0.00     0.137 C
HETATM   16  C20 UNL     1      13.212  -9.393  -9.672  1.00  0.00     0.144 C
BRANCH  14  17
HETATM   17  C14 UNL     1      15.475  -8.207 -12.372  1.00  0.00     0.079 C
HETATM   18  C15 UNL     1      15.203  -6.959 -13.224  1.00  0.00     0.025 C
HETATM   19  C16 UNL     1      15.152  -7.441 -14.663  1.00  0.00     0.002 C
HETATM   20  C17 UNL     1      15.018  -8.947 -14.586  1.00  0.00     0.002 C
HETATM   21  C18 UNL     1      15.846  -9.251 -13.355  1.00  0.00     0.025 C
ENDBRANCH  14  17
ENDBRANCH   7  11
BRANCH   4  22
HETATM   22  N1  UNL     1       5.973  -9.303  -9.082  1.00  0.00     0.098 N
HETATM   23  C6  UNL     1       5.580 -10.073 -10.226  1.00  0.00     0.273 C
HETATM   24  C7  UNL     1       4.227 -10.607  -9.945  1.00  0.00     0.032 C
HETATM   25  C8  UNL     1       3.752  -9.940  -8.707  1.00  0.00     0.032 C
HETATM   26  C9  UNL     1       4.806  -8.935  -8.351  1.00  0.00     0.273 C
ENDBRANCH   4  22
BRANCH   1  27
HETATM   27  C1  UNL     1       8.720  -7.730  -5.845  1.00  0.00     0.188 C
HETATM   28  O1  UNL     1       9.660  -7.840  -4.994  1.00  0.00    -0.647 OA
HETATM   29  O2  UNL     1       7.998  -6.548  -5.932  1.00  0.00    -0.647 OA
ENDBRANCH   1  27
TORSDOF 4
ENDMDL