MODEL 2
REMARK VINA RESULT: -5.810725312      1.655      2.183
REMARK  6 active torsions:
REMARK  status: ('A' for Active; 'I' for Inactive)
REMARK    1  A    between atoms: C2_2  and  C4_4
REMARK    2  A    between atoms: C10_13  and  C11_14
REMARK    3  A    between atoms: C11_14  and  O5_16
REMARK    4  A    between atoms: O5_16  and  C12_17
REMARK    5  A    between atoms: C12_17  and  O6_19
REMARK    6  A    between atoms: C16_23  and  C17_24
ROOT
HETATM    1  C4  UNL     1       9.058  -8.624 -12.040  1.00  0.00     0.079 C
HETATM    2  O1  UNL     1       7.769  -8.194 -11.915  1.00  0.00    -0.322 OA
HETATM    3  C5  UNL     1       6.903  -8.910 -11.209  1.00  0.00     0.271 C
HETATM    4  O2  UNL     1       6.820 -10.252 -11.473  1.00  0.00    -0.347 OA
HETATM    5  C6  UNL     1       7.614 -11.051 -10.724  1.00  0.00     0.209 C
HETATM    6  C7  UNL     1       8.302 -11.968 -11.698  1.00  0.00     0.186 C
HETATM    7  O3  UNL     1       8.071 -13.173 -11.891  1.00  0.00    -0.290 OA
HETATM    8  C8  UNL     1       9.298 -11.078 -12.344  1.00  0.00     0.007 C
HETATM    9  C9  UNL     1       9.849 -11.423 -13.492  1.00  0.00     0.024 C
HETATM   10  C10 UNL     1       9.510  -9.870 -11.474  1.00  0.00     0.137 C
HETATM   11  C14 UNL     1       8.835 -10.323 -10.198  1.00  0.00     0.021 C
HETATM   12  C15 UNL     1       9.741 -11.368  -9.601  1.00  0.00     0.021 C
HETATM   13  C16 UNL     1       8.430  -9.207  -9.291  1.00  0.00     0.011 C
HETATM   14  C22 UNL     1       7.115  -8.640  -9.711  1.00  0.00     0.043 C
HETATM   15  C23 UNL     1       5.881  -9.124  -9.053  1.00  0.00     0.015 C
ENDROOT
BRANCH  10  16
HETATM   16  C11 UNL     1      10.980  -9.801 -11.201  1.00  0.00     0.282 C
HETATM   17  O4  UNL     1      11.685 -10.759 -11.576  1.00  0.00    -0.263 OA
BRANCH  16  18
HETATM   18  O5  UNL     1      11.615  -8.759 -10.562  1.00  0.00    -0.289 OA
BRANCH  18  19
HETATM   19  C12 UNL     1      13.024  -8.649 -10.636  1.00  0.00     0.262 C
HETATM   20  C13 UNL     1      13.436  -7.307 -11.234  1.00  0.00     0.071 C
BRANCH  19  21
HETATM   21  O6  UNL     1      13.581  -8.689  -9.359  1.00  0.00    -0.371 OA
ATOM     22  H6  UNL     1      14.475  -8.368  -9.377  1.00  0.00     0.212 HD
ENDBRANCH  19  21
ENDBRANCH  18  19
ENDBRANCH  16  18
ENDBRANCH  10  16
BRANCH   1  23
HETATM   23  C2  UNL     1       9.524  -8.325 -13.399  1.00  0.00    -0.040 C
HETATM   24  C1  UNL     1       8.665  -8.339 -14.413  1.00  0.00     0.021 C
HETATM   25  C3  UNL     1      10.940  -7.991 -13.779  1.00  0.00     0.050 C
ENDBRANCH   1  23
BRANCH  13  26
HETATM   26  C17 UNL     1       8.687  -9.428  -7.884  1.00  0.00    -0.009 C
HETATM   27  C18 UNL     1       9.268  -8.206  -7.146  1.00  0.00     0.005 C
HETATM   28  C19 UNL     1       9.247  -8.679  -5.697  1.00  0.00     0.000 C
HETATM   29  C20 UNL     1       8.662 -10.097  -5.722  1.00  0.00     0.000 C
HETATM   30  C21 UNL     1       7.687  -9.840  -6.905  1.00  0.00     0.005 C
ENDBRANCH  13  26
TORSDOF 6
ENDMDL