MODEL 1
REMARK VINA RESULT: -6.378118608      0.000      0.000
REMARK  5 active torsions:
REMARK  status: ('A' for Active; 'I' for Inactive)
REMARK    1  A    between atoms: C8_10  and  S1_11
REMARK    2  A    between atoms: C11_16  and  C12_17
REMARK    3  A    between atoms: C13_18  and  C14_19
REMARK    4  A    between atoms: C17_23  and  O6_24
REMARK    5  A    between atoms: O6_24  and  C18_25
ROOT
HETATM    1  C1  UNL     1       6.219 -11.937 -12.859  1.00  0.00     0.015 C
HETATM    2  C2  UNL     1       6.265 -10.627 -12.951  1.00  0.00    -0.081 C
HETATM    3  C3  UNL     1       5.514  -9.946 -14.038  1.00  0.00     0.034 C
HETATM    4  C4  UNL     1       5.790  -8.467 -13.895  1.00  0.00     0.010 C
HETATM    5  C5  UNL     1       7.236  -8.119 -13.802  1.00  0.00     0.008 C
HETATM    6  C6  UNL     1       7.319  -6.657 -13.372  1.00  0.00     0.116 C
HETATM    7  C7  UNL     1       8.755  -6.288 -13.415  1.00  0.00     0.260 C
HETATM    8  O1  UNL     1       9.232  -5.294 -13.998  1.00  0.00    -0.265 OA
HETATM    9  O2  UNL     1       9.618  -7.159 -12.730  1.00  0.00    -0.298 OA
HETATM   10  C8  UNL     1       9.041  -8.288 -12.072  1.00  0.00     0.278 C
HETATM   11  C9  UNL     1       8.041  -9.028 -12.888  1.00  0.00     0.012 C
HETATM   12  C10 UNL     1       8.774  -9.988 -13.798  1.00  0.00     0.020 C
HETATM   13  C11 UNL     1       7.022  -9.764 -12.033  1.00  0.00     0.048 C
ENDROOT
BRANCH  13  14
HETATM   14  C12 UNL     1       7.620 -10.455 -10.898  1.00  0.00    -0.018 C
HETATM   15  C13 UNL     1       7.135 -10.408  -9.679  1.00  0.00     0.004 C
BRANCH  15  16
HETATM   16  C14 UNL     1       5.901  -9.631  -9.313  1.00  0.00     0.173 C
HETATM   17  O5  UNL     1       4.772 -10.372  -9.467  1.00  0.00    -0.379 OA
HETATM   18  C15 UNL     1       3.838  -9.857  -8.587  1.00  0.00     0.171 C
HETATM   19  C16 UNL     1       4.674  -9.660  -7.304  1.00  0.00     0.061 C
HETATM   20  C17 UNL     1       5.959  -9.139  -7.905  1.00  0.00     0.157 C
BRANCH  20  21
HETATM   21  O6  UNL     1       7.090  -9.585  -7.288  1.00  0.00    -0.373 OA
BRANCH  21  22
HETATM   22  C18 UNL     1       7.798  -8.698  -6.558  1.00  0.00     0.050 C
HETATM   23  C19 UNL     1       8.260  -9.406  -5.278  1.00  0.00     0.045 C
HETATM   24  C20 UNL     1       9.048  -8.269  -7.292  1.00  0.00     0.045 C
HETATM   25  C21 UNL     1       7.062  -7.454  -6.148  1.00  0.00     0.045 C
ENDBRANCH  21  22
ENDBRANCH  20  21
ENDBRANCH  15  16
ENDBRANCH  13  14
BRANCH  10  26
HETATM   26  S1  UNL     1      10.388  -9.325 -11.561  1.00  0.00     0.281 S
HETATM   27  O3  UNL     1      10.869  -8.906  -9.977  1.00  0.00    -0.209 OA
HETATM   28  O4  UNL     1      11.781  -9.009 -12.493  1.00  0.00    -0.209 OA
ENDBRANCH  10  26
TORSDOF 5
ENDMDL