MODEL 1
REMARK VINA RESULT: -6.460133105      0.000      0.000
REMARK  5 active torsions:
REMARK  status: ('A' for Active; 'I' for Inactive)
REMARK    1  A    between atoms: C2_2  and  O2_4
REMARK    2  A    between atoms: O2_4  and  C3_5
REMARK    3  A    between atoms: C3_5  and  C4_6
REMARK    4  A    between atoms: N1_19  and  C16_20
REMARK    5  A    between atoms: C16_20  and  C17_21
ROOT
HETATM    1  C3  UNL     1       8.526  -9.245  -9.206  1.00  0.00     0.135 C
HETATM    2  C9  UNL     1       9.713  -8.742 -10.025  1.00  0.00     0.038 C
HETATM    3  C10 UNL     1      11.054  -9.196  -9.673  1.00  0.00     0.011 C
HETATM    4  C11 UNL     1      11.539 -10.592  -9.826  1.00  0.00     0.032 C
HETATM    5  C12 UNL     1      10.604 -11.706  -9.648  1.00  0.00     0.122 C
HETATM    6  C13 UNL     1      10.167 -12.673 -10.641  1.00  0.00     0.034 C
HETATM    7  C14 UNL     1       8.637 -12.740 -10.788  1.00  0.00     0.031 C
HETATM    8  C15 UNL     1       7.937 -11.369 -10.815  1.00  0.00     0.122 C
HETATM    9  N1  UNL     1       7.698 -11.154 -12.218  1.00  0.00    -0.385 N
HETATM   10  C20 UNL     1       8.843 -10.872 -13.028  1.00  0.00     0.123 C
HETATM   11  C21 UNL     1       9.790  -9.862 -12.354  1.00  0.00     0.032 C
HETATM   12  C22 UNL     1       9.055  -9.386 -11.167  1.00  0.00     0.001 C
HETATM   13  C23 UNL     1       7.922  -8.550 -11.730  1.00  0.00     0.019 C
HETATM   14  C24 UNL     1       8.703 -10.387 -10.115  1.00  0.00     0.124 C
HETATM   15  O4  UNL     1       9.475 -11.052  -9.325  1.00  0.00    -0.369 OA
ENDROOT
BRANCH   1  16
HETATM   16  O2  UNL     1       7.347  -8.548  -9.216  1.00  0.00    -0.304 OA
BRANCH  16  17
HETATM   17  C2  UNL     1       6.118  -8.756  -8.735  1.00  0.00     0.255 C
HETATM   18  C1  UNL     1       5.270  -9.863  -9.213  1.00  0.00     0.126 C
HETATM   19  O1  UNL     1       5.703  -7.987  -7.865  1.00  0.00    -0.266 OA
ENDBRANCH  16  17
ENDBRANCH   1  16
BRANCH   1  20
HETATM   20  C4  UNL     1       8.814  -9.334  -7.718  1.00  0.00     0.164 C
HETATM   21  C5  UNL     1       9.147  -7.986  -7.146  1.00  0.00     0.062 C
HETATM   22  C6  UNL     1       8.520  -7.675  -5.849  1.00  0.00    -0.026 C
HETATM   23  C7  UNL     1       8.190  -8.670  -5.052  1.00  0.00    -0.005 C
HETATM   24  C8  UNL     1       8.523 -10.031  -5.629  1.00  0.00     0.195 C
HETATM   25  O3  UNL     1       7.986  -9.990  -6.898  1.00  0.00    -0.379 OA
ENDBRANCH   1  20
BRANCH   9  26
HETATM   26  C16 UNL     1       6.716 -11.913 -12.856  1.00  0.00     0.063 C
BRANCH  26  27
HETATM   27  C17 UNL     1       5.441 -11.144 -13.123  1.00  0.00     0.024 A
HETATM   28  C18 UNL     1       4.302 -11.862 -13.793  1.00  0.00     0.010 A
HETATM   29  C19 UNL     1       4.196 -11.468 -12.388  1.00  0.00     0.010 A
ENDBRANCH  26  27
ENDBRANCH   9  26
TORSDOF 5
ENDMDL