MODEL 2
REMARK VINA RESULT: -6.799665445      2.245      6.923
REMARK  4 active torsions:
REMARK  status: ('A' for Active; 'I' for Inactive)
REMARK    1  A    between atoms: C2_2  and  C3_3
REMARK    2  A    between atoms: C10_11  and  O2_12
REMARK    3  A    between atoms: C11_14  and  C12_15
REMARK    4  A    between atoms: C17_22  and  C18_23
ROOT
HETATM    1  C3  UNL     1       7.670  -8.659  -6.514  1.00  0.00     0.074 C
HETATM    2  C4  UNL     1       8.234  -8.631  -5.118  1.00  0.00     0.050 C
HETATM    3  C5  UNL     1       7.732 -10.051  -7.128  1.00  0.00     0.043 C
HETATM    4  C6  UNL     1       7.833  -9.815  -8.644  1.00  0.00     0.018 C
HETATM    5  C7  UNL     1       9.234  -9.327  -8.898  1.00  0.00     0.024 C
HETATM    6  C8  UNL     1       9.604  -8.406  -7.761  1.00  0.00     0.182 C
HETATM    7  O1  UNL     1       8.447  -7.804  -7.302  1.00  0.00    -0.376 OA
HETATM    8  C9  UNL     1       9.575  -8.797 -10.218  1.00  0.00     0.068 C
HETATM    9  C10 UNL     1       8.532  -8.506 -11.212  1.00  0.00     0.148 C
HETATM   10  C11 UNL     1       8.981  -8.227 -12.568  1.00  0.00     0.091 C
HETATM   11  C13 UNL     1       8.881  -6.728 -12.936  1.00  0.00     0.058 C
HETATM   12  C14 UNL     1       9.563  -6.749 -14.286  1.00  0.00     0.126 C
HETATM   13  C15 UNL     1       8.633  -6.689 -15.449  1.00  0.00     0.040 C
HETATM   14  O4  UNL     1      10.386  -7.928 -14.290  1.00  0.00    -0.348 OA
HETATM   15  C16 UNL     1      10.332  -8.512 -12.998  1.00  0.00     0.075 C
HETATM   16  C17 UNL     1      11.388  -9.118 -12.517  1.00  0.00     0.021 C
HETATM   17  C20 UNL     1      11.532  -9.771 -11.222  1.00  0.00     0.086 C
HETATM   18  C21 UNL     1      10.234 -10.082 -10.609  1.00  0.00     0.104 A
HETATM   19  O6  UNL     1       9.839 -11.301 -10.170  1.00  0.00    -0.362 OA
HETATM   20  C22 UNL     1      10.158 -10.476  -9.130  1.00  0.00     0.100 A
HETATM   21  C23 UNL     1      11.441 -10.610  -8.375  1.00  0.00     0.050 C
ENDROOT
BRANCH   9  22
HETATM   22  O2  UNL     1       7.582  -9.554 -11.220  1.00  0.00    -0.393 OA
ATOM     23  H2  UNL     1       7.652 -10.039 -12.034  1.00  0.00     0.210 HD
ENDBRANCH   9  22
BRANCH   1  24
HETATM   24  C2  UNL     1       6.260  -8.199  -6.543  1.00  0.00     0.000 C
HETATM   25  C1  UNL     1       5.950  -6.947  -6.859  1.00  0.00     0.010 C
ENDBRANCH   1  24
BRANCH  10  26
HETATM   26  C12 UNL     1       8.033  -8.878 -13.522  1.00  0.00     0.250 C
HETATM   27  O3  UNL     1       8.197 -10.028 -13.808  1.00  0.00    -0.305 OA
ENDBRANCH  10  26
BRANCH  16  28
HETATM   28  C18 UNL     1      12.575  -9.147 -13.370  1.00  0.00     0.154 C
HETATM   29  C19 UNL     1      13.599  -8.088 -13.275  1.00  0.00     0.096 C
HETATM   30  O5  UNL     1      12.747 -10.075 -14.199  1.00  0.00    -0.293 OA
ENDBRANCH  16  28
TORSDOF 4
ENDMDL