MODEL 3
REMARK VINA RESULT: -7.158862820      1.203      1.822
REMARK  6 active torsions:
REMARK  status: ('A' for Active; 'I' for Inactive)
REMARK    1  A    between atoms: C2_2  and  C4_4
REMARK    2  A    between atoms: C4_4  and  O2_6
REMARK    3  A    between atoms: O2_6  and  C5_7
REMARK    4  A    between atoms: C17_20  and  O4_21
REMARK    5  A    between atoms: O4_21  and  C18_22
REMARK    6  A    between atoms: C20_26  and  O7_27
ROOT
HETATM    1  C5  UNL     1      14.941  12.523   4.439  1.00  0.00     0.137 C
HETATM    2  C6  UNL     1      14.645  12.174   3.021  1.00  0.00     0.038 C
HETATM    3  C7  UNL     1      15.662  12.491   2.001  1.00  0.00     0.003 C
HETATM    4  C8  UNL     1      16.588  11.328   1.725  1.00  0.00     0.006 C
HETATM    5  C9  UNL     1      17.909  11.308   2.362  1.00  0.00     0.005 C
HETATM    6  C10 UNL     1      18.146  12.265   3.471  1.00  0.00    -0.008 C
HETATM    7  C11 UNL     1      19.566  12.621   3.751  1.00  0.00     0.011 C
HETATM    8  C12 UNL     1      17.183  13.437   3.547  1.00  0.00    -0.011 C
HETATM    9  C13 UNL     1      17.859  14.769   3.762  1.00  0.00     0.090 C
HETATM   10  C14 UNL     1      16.977  15.765   3.036  1.00  0.00     0.136 C
HETATM   11  O3  UNL     1      17.140  16.943   2.843  1.00  0.00    -0.297 OA
HETATM   12  C15 UNL     1      15.776  14.967   2.564  1.00  0.00     0.097 C
HETATM   13  C16 UNL     1      15.067  15.633   1.447  1.00  0.00     0.050 C
HETATM   14  C17 UNL     1      15.415  15.404   0.220  1.00  0.00     0.187 C
HETATM   15  O6  UNL     1      16.423  14.555  -0.017  1.00  0.00    -0.298 OA
HETATM   16  C20 UNL     1      17.245  13.939   1.023  1.00  0.00     0.278 C
HETATM   17  C22 UNL     1      16.484  13.704   2.241  1.00  0.00     0.036 C
HETATM   18  C23 UNL     1      16.250  13.212   4.702  1.00  0.00     0.021 C
HETATM   19  C24 UNL     1      16.113  14.265   5.730  1.00  0.00     0.013 C
ENDROOT
BRANCH   1  20
HETATM   20  O2  UNL     1      14.693  11.451   5.328  1.00  0.00    -0.312 OA
BRANCH  20  21
HETATM   21  C4  UNL     1      15.509  10.483   5.764  1.00  0.00     0.288 C
HETATM   22  O1  UNL     1      15.959  10.600   6.904  1.00  0.00    -0.260 OA
BRANCH  21  23
HETATM   23  C2  UNL     1      15.837   9.338   4.891  1.00  0.00     0.004 C
HETATM   24  C1  UNL     1      16.990   8.733   4.913  1.00  0.00     0.024 C
HETATM   25  C3  UNL     1      14.804   8.856   3.913  1.00  0.00     0.054 C
ENDBRANCH  21  23
ENDBRANCH  20  21
ENDBRANCH   1  20
BRANCH  16  26
HETATM   26  O7  UNL     1      18.304  14.797   1.007  1.00  0.00    -0.365 OA
HETATM   27  C21 UNL     1      19.420  14.273   0.362  1.00  0.00     0.204 C
ENDBRANCH  16  26
BRANCH  14  28
HETATM   28  O4  UNL     1      14.748  16.030  -0.822  1.00  0.00    -0.256 OA
BRANCH  28  29
HETATM   29  C18 UNL     1      13.825  15.287  -1.568  1.00  0.00     0.261 C
HETATM   30  C19 UNL     1      13.601  15.544  -3.017  1.00  0.00     0.126 C
HETATM   31  O5  UNL     1      13.188  14.390  -0.975  1.00  0.00    -0.265 OA
ENDBRANCH  28  29
ENDBRANCH  14  28
TORSDOF 6
ENDMDL