MODEL 5
REMARK VINA RESULT: -6.029576926      2.391      5.998
REMARK  7 active torsions:
REMARK  status: ('A' for Active; 'I' for Inactive)
REMARK    1  A    between atoms: O1_2  and  C2_3
REMARK    2  A    between atoms: C2_3  and  C3_5
REMARK    3  A    between atoms: C3_5  and  N1_6
REMARK    4  A    between atoms: C5_8  and  C6_9
REMARK    5  A    between atoms: C12_17  and  C14_20
REMARK    6  A    between atoms: C14_20  and  O5_22
REMARK    7  A    between atoms: C17_25  and  C18_26
ROOT
HETATM    1  N1  UNL     1      15.756  13.372   4.853  1.00  0.00    -0.353 N
HETATM    2  C4  UNL     1      16.833  14.168   4.467  1.00  0.00     0.074 C
HETATM    3  C5  UNL     1      17.084  14.318   2.990  1.00  0.00     0.068 C
HETATM    4  C10 UNL     1      15.718  14.302   2.352  1.00  0.00     0.042 C
HETATM    5  C11 UNL     1      15.641  14.817   0.984  1.00  0.00     0.086 C
HETATM    6  S1  UNL     1      14.960  13.440   0.027  1.00  0.00    -0.129 SA
HETATM    7  C12 UNL     1      15.208  12.129   1.341  1.00  0.00     0.210 C
HETATM    8  C13 UNL     1      16.474  11.586   1.040  1.00  0.00     0.096 C
HETATM    9  N2  UNL     1      17.504  11.126   0.806  1.00  0.00    -0.195 NA
HETATM   10  C16 UNL     1      15.007  12.984   2.521  1.00  0.00    -0.008 C
HETATM   11  C17 UNL     1      15.088  12.551   3.897  1.00  0.00     0.021 C
ENDROOT
BRANCH   7  12
HETATM   12  C14 UNL     1      14.048  11.232   1.090  1.00  0.00     0.296 C
HETATM   13  O4  UNL     1      12.936  11.617   0.659  1.00  0.00    -0.262 OA
BRANCH  12  14
HETATM   14  O5  UNL     1      14.206   9.889   1.345  1.00  0.00    -0.324 OA
HETATM   15  C15 UNL     1      13.223   9.126   2.024  1.00  0.00     0.213 C
ENDBRANCH  12  14
ENDBRANCH   7  12
BRANCH  11  16
HETATM   16  C18 UNL     1      15.348  11.126   4.261  1.00  0.00     0.036 C
HETATM   17  C19 UNL     1      16.797  10.757   4.462  1.00  0.00     0.011 C
HETATM   18  C20 UNL     1      16.907   9.254   4.192  1.00  0.00     0.001 C
HETATM   19  C21 UNL     1      16.063   8.589   5.252  1.00  0.00     0.000 C
HETATM   20  C22 UNL     1      15.364   9.515   6.179  1.00  0.00     0.001 C
HETATM   21  C23 UNL     1      14.643  10.665   5.538  1.00  0.00     0.011 C
ENDBRANCH  11  16
BRANCH   3  22
HETATM   22  C6  UNL     1      17.663  15.661   2.710  1.00  0.00    -0.024 A
HETATM   23  C7  UNL     1      17.174  16.892   3.100  1.00  0.00     0.034 A
HETATM   24  C8  UNL     1      18.060  17.816   2.598  1.00  0.00     0.142 A
HETATM   25  O3  UNL     1      19.008  17.174   1.955  1.00  0.00    -0.334 OA
HETATM   26  C9  UNL     1      18.810  15.887   1.997  1.00  0.00     0.149 A
ENDBRANCH   3  22
BRANCH   1  27
HETATM   27  C3  UNL     1      14.915  14.086   5.779  1.00  0.00     0.239 C
BRANCH  27  28
HETATM   28  C2  UNL     1      15.153  13.690   7.185  1.00  0.00     0.276 C
HETATM   29  O2  UNL     1      16.203  13.058   7.471  1.00  0.00    -0.263 OA
BRANCH  28  30
HETATM   30  O1  UNL     1      14.298  13.963   8.242  1.00  0.00    -0.325 OA
HETATM   31  C1  UNL     1      12.886  13.776   8.134  1.00  0.00     0.213 C
ENDBRANCH  28  30
ENDBRANCH  27  28
ENDBRANCH   1  27
TORSDOF 7
ENDMDL