MODEL 3
REMARK VINA RESULT: -6.130388325      2.303      6.353
REMARK  5 active torsions:
REMARK  status: ('A' for Active; 'I' for Inactive)
REMARK    1  A    between atoms: O1_2  and  C2_3
REMARK    2  A    between atoms: C2_3  and  C3_5
REMARK    3  A    between atoms: C3_5  and  C4_6
REMARK    4  A    between atoms: C4_6  and  C5_8
REMARK    5  A    between atoms: C11_14  and  O4_15
ROOT
HETATM    1  C5  UNL     1      16.068  12.638   1.794  1.00  0.00     0.163 C
HETATM    2  C6  UNL     1      17.306  12.041   1.138  1.00  0.00     0.053 C
HETATM    3  C7  UNL     1      17.467  10.586   1.124  1.00  0.00     0.049 C
HETATM    4  C8  UNL     1      16.839   9.988   2.349  1.00  0.00     0.106 C
HETATM    5  C9  UNL     1      17.616  10.711   3.419  1.00  0.00     0.013 C
HETATM    6  C10 UNL     1      17.396  11.912   3.807  1.00  0.00     0.018 C
HETATM    7  C11 UNL     1      16.352  12.885   3.320  1.00  0.00     0.139 C
HETATM    8  C13 UNL     1      15.185  12.664   4.167  1.00  0.00    -0.046 C
HETATM    9  C14 UNL     1      14.836  13.875   5.004  1.00  0.00     0.046 C
HETATM   10  C15 UNL     1      14.797  11.424   4.835  1.00  0.00    -0.020 C
HETATM   11  C16 UNL     1      15.414  10.112   4.918  1.00  0.00     0.037 C
HETATM   12  C17 UNL     1      15.294   9.137   3.728  1.00  0.00     0.055 C
HETATM   13  C18 UNL     1      15.430   9.939   2.484  1.00  0.00     0.170 C
HETATM   14  O5  UNL     1      14.897   9.678   1.262  1.00  0.00    -0.347 OA
HETATM   15  C19 UNL     1      14.561  11.008   0.787  1.00  0.00     0.159 C
HETATM   16  C20 UNL     1      13.023  10.919   1.086  1.00  0.00     0.078 C
HETATM   17  C21 UNL     1      14.562  11.122  -0.682  1.00  0.00     0.078 C
HETATM   18  O6  UNL     1      14.939  11.991   1.564  1.00  0.00    -0.333 OA
HETATM   19  C22 UNL     1      16.394   8.178   3.575  1.00  0.00     0.061 C
HETATM   20  C23 UNL     1      17.125   7.723   4.775  1.00  0.00     0.046 C
HETATM   21  C24 UNL     1      15.777   6.896   2.968  1.00  0.00     0.046 C
HETATM   22  O7  UNL     1      17.228   8.633   2.526  1.00  0.00    -0.363 OA
ENDROOT
BRANCH   1  23
HETATM   23  C4  UNL     1      15.866  13.932   1.107  1.00  0.00     0.174 C
HETATM   24  O3  UNL     1      16.780  14.320   0.326  1.00  0.00    -0.294 OA
BRANCH  23  25
HETATM   25  C3  UNL     1      14.755  14.873   1.189  1.00  0.00     0.192 C
BRANCH  25  26
HETATM   26  C2  UNL     1      13.901  14.873  -0.066  1.00  0.00     0.265 C
HETATM   27  O2  UNL     1      12.894  14.152  -0.211  1.00  0.00    -0.265 OA
BRANCH  26  28
HETATM   28  O1  UNL     1      14.234  15.708  -1.122  1.00  0.00    -0.326 OA
HETATM   29  C1  UNL     1      13.672  15.580  -2.410  1.00  0.00     0.213 C
ENDBRANCH  26  28
ENDBRANCH  25  26
ENDBRANCH  23  25
ENDBRANCH   1  23
BRANCH   7  30
HETATM   30  O4  UNL     1      16.961  14.078   3.396  1.00  0.00    -0.373 OA
HETATM   31  C12 UNL     1      18.217  14.344   3.685  1.00  0.00     0.203 C
ENDBRANCH   7  30
TORSDOF 5
ENDMDL