MODEL 1
REMARK VINA RESULT: -8.036171991      0.000      0.000
REMARK  5 active torsions:
REMARK  status: ('A' for Active; 'I' for Inactive)
REMARK    1  A    between atoms: C2_2  and  O2_4
REMARK    2  A    between atoms: O2_4  and  C3_5
REMARK    3  A    between atoms: C3_5  and  C4_6
REMARK    4  A    between atoms: C17_22  and  C18_23
REMARK    5  A    between atoms: C18_23  and  C19_24
REMARK       I    between atoms: C19_24  and  N1_26
ROOT
HETATM    1  C4  UNL     1      20.445  13.476   1.771  1.00  0.00     0.040 C
HETATM    2  C5  UNL     1      19.794  12.923   0.533  1.00  0.00     0.175 C
HETATM    3  O3  UNL     1      18.439  12.770   0.832  1.00  0.00    -0.385 OA
HETATM    4  C6  UNL     1      18.194  13.929   1.608  1.00  0.00     0.126 C
HETATM    5  C7  UNL     1      16.788  14.113   1.967  1.00  0.00     0.038 C
HETATM    6  C8  UNL     1      16.464  14.286   3.409  1.00  0.00     0.074 C
HETATM    7  C9  UNL     1      16.280  13.053   4.197  1.00  0.00     0.200 C
HETATM    8  C10 UNL     1      16.918  11.812   3.651  1.00  0.00     0.071 C
HETATM    9  C11 UNL     1      18.378  11.723   3.646  1.00  0.00     0.006 C
HETATM   10  C12 UNL     1      19.158  12.974   3.766  1.00  0.00     0.008 C
HETATM   11  C13 UNL     1      19.238  13.868   2.621  1.00  0.00     0.023 C
HETATM   12  O4  UNL     1      14.904  12.747   4.254  1.00  0.00    -0.197 OA
HETATM   13  O5  UNL     1      14.444  13.534   5.195  1.00  0.00    -0.197 OA
HETATM   14  C14 UNL     1      15.361  13.307   6.219  1.00  0.00     0.200 C
HETATM   15  C15 UNL     1      14.989  11.988   6.872  1.00  0.00     0.072 C
HETATM   16  C16 UNL     1      13.531  12.093   7.244  1.00  0.00     0.010 C
HETATM   17  C17 UNL     1      13.433  13.112   8.362  1.00  0.00    -0.005 C
HETATM   18  C22 UNL     1      13.865  14.443   7.794  1.00  0.00     0.010 C
HETATM   19  C23 UNL     1      15.271  14.376   7.286  1.00  0.00     0.072 C
HETATM   20  O7  UNL     1      16.554  13.260   5.553  1.00  0.00    -0.313 OA
ENDROOT
BRANCH   1  21
HETATM   21  C3  UNL     1      21.356  14.637   1.500  1.00  0.00     0.185 C
BRANCH  21  22
HETATM   22  O2  UNL     1      22.684  14.142   1.531  1.00  0.00    -0.321 OA
BRANCH  22  23
HETATM   23  C2  UNL     1      23.772  14.884   1.933  1.00  0.00     0.254 C
HETATM   24  C1  UNL     1      25.160  14.372   1.964  1.00  0.00     0.126 C
HETATM   25  O1  UNL     1      23.564  16.073   2.300  1.00  0.00    -0.266 OA
ENDBRANCH  22  23
ENDBRANCH  21  22
ENDBRANCH   1  21
BRANCH  17  26
HETATM   26  C18 UNL     1      12.004  13.180   8.868  1.00  0.00     0.107 C
BRANCH  26  27
HETATM   27  C19 UNL     1      11.962  13.652  10.277  1.00  0.00     0.219 C
HETATM   28  O6  UNL     1      12.089  14.916  10.433  1.00  0.00    -0.273 OA
HETATM   29  N1  UNL     1      11.799  12.804  11.388  1.00  0.00    -0.361 N
HETATM   30  C20 UNL     1      11.672  11.372  11.243  1.00  0.00     0.152 C
HETATM   31  C21 UNL     1      11.760  13.365  12.721  1.00  0.00     0.152 C
ENDBRANCH  26  27
ENDBRANCH  17  26
TORSDOF 5
ENDMDL