MODEL 4
REMARK VINA RESULT: -8.005187343      2.139      3.652
REMARK  6 active torsions:
REMARK  status: ('A' for Active; 'I' for Inactive)
REMARK    1  A    between atoms: C2_2  and  O2_4
REMARK    2  A    between atoms: O2_4  and  N1_5
REMARK    3  A    between atoms: C3_7  and  C4_8
REMARK    4  A    between atoms: C3_7  and  C24_31
REMARK    5  A    between atoms: C4_8  and  C5_9
REMARK    6  A    between atoms: C5_9  and  C6_10
ROOT
HETATM    1  C6  UNL     1      15.439  11.506   6.776  1.00  0.00     0.193 C
HETATM    2  O3  UNL     1      14.838  11.440   5.493  1.00  0.00    -0.363 OA
HETATM    3  C7  UNL     1      15.404  12.316   4.578  1.00  0.00     0.086 C
HETATM    4  C8  UNL     1      14.730  13.685   4.815  1.00  0.00     0.051 C
HETATM    5  C9  UNL     1      16.853  12.435   4.836  1.00  0.00    -0.042 C
HETATM    6  C10 UNL     1      17.762  11.956   4.032  1.00  0.00    -0.020 C
HETATM    7  C11 UNL     1      17.369  11.243   2.777  1.00  0.00     0.033 C
HETATM    8  C12 UNL     1      16.174  11.966   2.208  1.00  0.00     0.001 C
HETATM    9  C13 UNL     1      15.783  11.468   0.855  1.00  0.00     0.006 C
HETATM   10  C14 UNL     1      16.529  10.266   0.373  1.00  0.00     0.013 C
HETATM   11  C15 UNL     1      15.485   9.296  -0.184  1.00  0.00     0.079 C
HETATM   12  C16 UNL     1      14.359  10.214  -0.491  1.00  0.00     0.135 C
HETATM   13  O4  UNL     1      13.649  10.190  -1.461  1.00  0.00    -0.297 OA
HETATM   14  C17 UNL     1      14.317  11.169   0.683  1.00  0.00     0.021 C
HETATM   15  C18 UNL     1      13.517  12.358   0.224  1.00  0.00     0.024 C
HETATM   16  C19 UNL     1      13.702  10.413   1.812  1.00  0.00     0.018 C
HETATM   17  C20 UNL     1      14.456  10.496   3.114  1.00  0.00     0.009 C
HETATM   18  C21 UNL     1      15.053  11.880   3.198  1.00  0.00     0.029 C
HETATM   19  C22 UNL     1      17.239  13.132   6.091  1.00  0.00     0.118 C
HETATM   20  C23 UNL     1      16.103  12.784   7.042  1.00  0.00     0.159 C
HETATM   21  O5  UNL     1      15.886  13.587   7.890  1.00  0.00    -0.295 OA
ENDROOT
BRANCH   1  22
HETATM   22  C5  UNL     1      14.426  11.061   7.732  1.00  0.00     0.046 C
BRANCH  22  23
HETATM   23  C4  UNL     1      13.031  11.514   7.652  1.00  0.00     0.060 C
BRANCH  23  24
HETATM   24  C3  UNL     1      12.376  11.955   8.884  1.00  0.00     0.041 C
HETATM   25  N1  UNL     1      12.175  11.159   9.849  1.00  0.00    -0.263 N
ATOM     26  H1  UNL     1      12.490  10.196   9.730  1.00  0.00     0.194 HD
BRANCH  25  27
HETATM   27  O2  UNL     1      11.575  11.474  11.032  1.00  0.00    -0.200 OA
BRANCH  27  28
HETATM   28  C2  UNL     1      12.282  11.759  12.192  1.00  0.00     0.277 C
HETATM   29  C1  UNL     1      13.006  10.719  12.967  1.00  0.00     0.128 C
HETATM   30  O1  UNL     1      12.308  12.929  12.596  1.00  0.00    -0.264 OA
ENDBRANCH  27  28
ENDBRANCH  25  27
BRANCH  24  31
HETATM   31  C24 UNL     1      11.933  13.356   9.003  1.00  0.00     0.192 A
HETATM   32  C25 UNL     1      12.801  14.342   8.261  1.00  0.00     0.207 A
HETATM   33  O6  UNL     1      12.797  14.213   9.682  1.00  0.00    -0.375 OA
ENDBRANCH  24  31
ENDBRANCH  23  24
ENDBRANCH  22  23
ENDBRANCH   1  22
TORSDOF 6
ENDMDL