MODEL 5
REMARK VINA RESULT: -9.304387422      1.349      1.922
REMARK  5 active torsions:
REMARK  status: ('A' for Active; 'I' for Inactive)
REMARK    1  A    between atoms: C3_4  and  C4_5
REMARK    2  A    between atoms: C4_5  and  N1_6
REMARK    3  A    between atoms: N2_9  and  C7_10
REMARK    4  A    between atoms: N5_19  and  C12_20
REMARK    5  A    between atoms: C12_20  and  C13_21
ROOT
HETATM    1  C7  UNL     1      14.358  13.159   6.921  1.00  0.00     0.116 A
HETATM    2  N3  UNL     1      14.685  14.456   7.215  1.00  0.00    -0.338 N
ATOM      3  H3  UNL     1      14.183  14.908   7.978  1.00  0.00     0.168 HD
HETATM    4  C8  UNL     1      15.608  15.169   6.576  1.00  0.00     0.183 A
HETATM    5  N4  UNL     1      16.291  14.610   5.567  1.00  0.00    -0.332 N
ATOM      6  H4  UNL     1      17.005  15.136   5.063  1.00  0.00     0.168 HD
HETATM    7  C9  UNL     1      16.012  13.345   5.238  1.00  0.00     0.155 A
HETATM    8  C10 UNL     1      15.042  12.562   5.887  1.00  0.00     0.065 A
HETATM    9  C11 UNL     1      14.574  11.219   5.632  1.00  0.00     0.319 C
HETATM   10  N5  UNL     1      15.559  10.261   5.107  1.00  0.00     0.095 N
HETATM   11  C21 UNL     1      16.875  10.726   5.261  1.00  0.00     0.299 C
HETATM   12  C22 UNL     1      17.344  11.538   4.026  1.00  0.00     0.207 C
HETATM   13  O2  UNL     1      16.769  12.825   4.172  1.00  0.00    -0.333 OA
ENDROOT
BRANCH   1  14
HETATM   14  N2  UNL     1      13.382  12.544   7.744  1.00  0.00    -0.363 N
HETATM   15  C6  UNL     1      13.544  11.284   8.413  1.00  0.00     0.154 C
HETATM   16  C5  UNL     1      12.330  11.155   9.358  1.00  0.00     0.292 C
HETATM   17  N1  UNL     1      12.332  12.358  10.170  1.00  0.00     0.097 N
HETATM   18  C24 UNL     1      11.999  13.531   9.427  1.00  0.00     0.292 C
HETATM   19  C23 UNL     1      12.121  13.232   7.929  1.00  0.00     0.154 C
BRANCH  17  20
HETATM   20  C4  UNL     1      11.535  12.163  11.361  1.00  0.00     0.337 C
BRANCH  20  21
HETATM   21  C3  UNL     1      12.474  12.104  12.519  1.00  0.00     0.080 A
HETATM   22  O1  UNL     1      12.869  13.189  13.173  1.00  0.00    -0.325 OA
HETATM   23  C2  UNL     1      13.684  12.881  14.139  1.00  0.00     0.142 A
HETATM   24  C1  UNL     1      13.856  11.511  14.149  1.00  0.00     0.027 A
HETATM   25  C25 UNL     1      13.086  11.024  13.117  1.00  0.00     0.036 A
ENDBRANCH  20  21
ENDBRANCH  17  20
ENDBRANCH   1  14
BRANCH  10  26
HETATM   26  C12 UNL     1      15.310   8.987   5.707  1.00  0.00     0.277 C
BRANCH  26  27
HETATM   27  C13 UNL     1      16.280   8.451   6.671  1.00  0.00     0.018 C
HETATM   28  C14 UNL     1      16.065   8.600   8.128  1.00  0.00     0.011 C
HETATM   29  C15 UNL     1      16.989   7.582   8.838  1.00  0.00    -0.014 C
HETATM   30  C16 UNL     1      18.277   7.529   8.065  1.00  0.00     0.005 C
HETATM   31  C20 UNL     1      16.346   6.192   8.705  1.00  0.00     0.005 C
HETATM   32  C17 UNL     1      18.020   6.735   6.788  1.00  0.00     0.005 C
HETATM   33  C18 UNL     1      16.552   6.957   6.392  1.00  0.00    -0.009 C
HETATM   34  C19 UNL     1      15.657   6.186   7.339  1.00  0.00     0.005 C
ENDBRANCH  26  27
ENDBRANCH  10  26
TORSDOF 5
ENDMDL