MODEL 5
REMARK VINA RESULT: -8.020244378      4.672      8.966
REMARK  6 active torsions:
REMARK  status: ('A' for Active; 'I' for Inactive)
REMARK    1  A    between atoms: C1_2  and  O2_3
REMARK       I    between atoms: C1_2  and  N1_11
REMARK    2  A    between atoms: O2_3  and  C2_4
REMARK    3  A    between atoms: C2_4  and  C3_5
REMARK    4  A    between atoms: C13_16  and  C14_17
REMARK    5  A    between atoms: C14_17  and  O3_18
REMARK    6  A    between atoms: O3_18  and  C15_19
ROOT
HETATM    1  O1  UNL     1      14.712  14.849   6.872  1.00  0.00    -0.238 OA
HETATM    2  C1  UNL     1      14.354  13.695   7.217  1.00  0.00     0.364 C
HETATM    3  N1  UNL     1      14.511  12.584   6.357  1.00  0.00    -0.306 N
HETATM    4  C9  UNL     1      14.112  11.248   6.717  1.00  0.00     0.135 C
HETATM    5  C10 UNL     1      15.189  10.321   6.197  1.00  0.00     0.088 C
HETATM    6  C11 UNL     1      15.350  10.502   4.720  1.00  0.00     0.168 C
HETATM    7  C12 UNL     1      14.608   9.397   3.993  1.00  0.00     0.077 C
HETATM    8  C13 UNL     1      15.732   8.782   3.148  1.00  0.00     0.039 C
HETATM    9  C22 UNL     1      16.906   9.037   4.090  1.00  0.00     0.178 C
HETATM   10  O5  UNL     1      16.698  10.380   4.388  1.00  0.00    -0.354 OA
HETATM   11  O6  UNL     1      14.890  11.695   4.219  1.00  0.00    -0.336 OA
HETATM   12  C23 UNL     1      15.103  12.792   5.053  1.00  0.00     0.302 C
ENDROOT
BRANCH   8  13
HETATM   13  C14 UNL     1      15.834   9.642   1.916  1.00  0.00     0.182 C
BRANCH  13  14
HETATM   14  O3  UNL     1      14.637   9.985   1.309  1.00  0.00    -0.349 OA
BRANCH  14  15
HETATM   15  C15 UNL     1      14.400  10.968   0.395  1.00  0.00     0.084 A
HETATM   16  C16 UNL     1      14.427  10.651  -0.979  1.00  0.00     0.124 A
HETATM   17  N2  UNL     1      14.205  11.572  -1.924  1.00  0.00    -0.364 N
HETATM   18  C17 UNL     1      13.942  12.843  -1.672  1.00  0.00     0.041 A
ATOM     19  H2  UNL     1      14.240  11.275  -2.899  1.00  0.00     0.165 HD
HETATM   20  C18 UNL     1      13.900  13.227  -0.351  1.00  0.00    -0.007 A
HETATM   21  C21 UNL     1      13.665  14.035  -2.488  1.00  0.00     0.225 C
HETATM   22  C19 UNL     1      14.129  12.289   0.665  1.00  0.00     0.049 A
HETATM   23  C20 UNL     1      13.596  14.663  -0.342  1.00  0.00     0.208 C
HETATM   24  O4  UNL     1      13.339  15.055  -1.627  1.00  0.00    -0.381 OA
ENDBRANCH  14  15
ENDBRANCH  13  14
ENDBRANCH   8  13
BRANCH   2  25
HETATM   25  O2  UNL     1      13.786  13.506   8.475  1.00  0.00    -0.303 OA
BRANCH  25  26
HETATM   26  C2  UNL     1      12.611  14.200   8.777  1.00  0.00     0.185 C
BRANCH  26  27
HETATM   27  C3  UNL     1      11.665  13.328   9.590  1.00  0.00     0.010 C
HETATM   28  C4  UNL     1      11.831  13.678  11.045  1.00  0.00     0.007 C
HETATM   29  C5  UNL     1      10.852  12.838  11.863  1.00  0.00     0.000 C
HETATM   30  C6  UNL     1      11.227  11.391  11.654  1.00  0.00     0.000 C
HETATM   31  C7  UNL     1      12.343  11.231  10.665  1.00  0.00     0.000 C
HETATM   32  C8  UNL     1      12.008  11.895   9.351  1.00  0.00     0.007 C
ENDBRANCH  26  27
ENDBRANCH  25  26
ENDBRANCH   2  25
TORSDOF 6
ENDMDL