MODEL 4
REMARK VINA RESULT: -7.902467671      1.913      3.784
REMARK  6 active torsions:
REMARK  status: ('A' for Active; 'I' for Inactive)
REMARK    1  A    between atoms: C4_4  and  C5_5
REMARK    2  A    between atoms: C5_5  and  C6_7
REMARK    3  A    between atoms: C8_10  and  C9_11
REMARK    4  A    between atoms: C9_11  and  O4_13
REMARK    5  A    between atoms: O4_13  and  C10_14
REMARK    6  A    between atoms: C17_21  and  C19_23
ROOT
HETATM    1  C6  UNL     1      18.329  11.307   3.313  1.00  0.00     0.118 C
HETATM    2  C7  UNL     1      17.784  12.415   3.730  1.00  0.00     0.186 C
HETATM    3  O2  UNL     1      17.471  12.517   5.125  1.00  0.00    -0.307 OA
HETATM    4  C8  UNL     1      16.731  13.645   5.551  1.00  0.00     0.302 C
HETATM    5  C22 UNL     1      15.779  13.987   4.479  1.00  0.00     0.200 C
HETATM    6  O6  UNL     1      14.597  13.990   4.682  1.00  0.00    -0.291 OA
HETATM    7  C23 UNL     1      16.325  14.324   3.153  1.00  0.00     0.126 C
HETATM    8  C24 UNL     1      16.687  15.797   3.178  1.00  0.00     0.055 C
HETATM    9  C25 UNL     1      15.256  14.032   2.127  1.00  0.00     0.055 C
HETATM   10  O7  UNL     1      17.474  13.514   2.953  1.00  0.00    -0.312 OA
ENDROOT
BRANCH   4  11
HETATM   11  C9  UNL     1      16.030  13.380   6.840  1.00  0.00     0.296 C
HETATM   12  O3  UNL     1      15.985  14.236   7.757  1.00  0.00    -0.262 OA
BRANCH  11  13
HETATM   13  O4  UNL     1      15.407  12.168   7.057  1.00  0.00    -0.314 OA
BRANCH  13  14
HETATM   14  C10 UNL     1      15.831  10.950   6.459  1.00  0.00     0.132 C
HETATM   15  C11 UNL     1      14.814  10.434   5.463  1.00  0.00     0.037 C
HETATM   16  C12 UNL     1      15.500   9.317   4.678  1.00  0.00    -0.012 C
HETATM   17  C13 UNL     1      14.633   8.859   3.527  1.00  0.00     0.010 C
HETATM   18  C14 UNL     1      15.820   8.215   5.634  1.00  0.00    -0.005 C
HETATM   19  C15 UNL     1      17.272   7.800   5.595  1.00  0.00     0.006 C
HETATM   20  C20 UNL     1      15.522   8.529   7.063  1.00  0.00     0.007 C
HETATM   21  C16 UNL     1      17.598   7.424   7.005  1.00  0.00     0.017 C
HETATM   22  C17 UNL     1      16.294   7.414   7.780  1.00  0.00     0.013 C
HETATM   23  C18 UNL     1      15.564   6.118   7.533  1.00  0.00     0.023 C
HETATM   24  C21 UNL     1      16.002   9.867   7.519  1.00  0.00     0.038 C
BRANCH  22  25
HETATM   25  C19 UNL     1      16.466   7.730   9.193  1.00  0.00     0.240 C
HETATM   26  O5  UNL     1      15.687   7.309  10.019  1.00  0.00    -0.306 OA
ENDBRANCH  22  25
ENDBRANCH  13  14
ENDBRANCH  11  13
ENDBRANCH   4  11
BRANCH   1  27
HETATM   27  C5  UNL     1      18.724  10.988   1.968  1.00  0.00     0.176 C
HETATM   28  O1  UNL     1      19.930  11.291   1.624  1.00  0.00    -0.288 OA
BRANCH  27  29
HETATM   29  C4  UNL     1      17.891  10.363   0.988  1.00  0.00     0.057 C
HETATM   30  C2  UNL     1      17.633   9.080   0.977  1.00  0.00    -0.084 C
HETATM   31  C1  UNL     1      18.164   8.141   1.961  1.00  0.00     0.043 C
HETATM   32  C3  UNL     1      16.740   8.501  -0.100  1.00  0.00     0.043 C
ENDBRANCH  27  29
ENDBRANCH   1  27
TORSDOF 6
ENDMDL