MODEL 5
REMARK VINA RESULT: -9.276534994      3.432      7.773
REMARK  5 active torsions:
REMARK  status: ('A' for Active; 'I' for Inactive)
REMARK    1  A    between atoms: N1_6  and  C5_7
REMARK    2  A    between atoms: C8_10  and  C9_11
REMARK    3  A    between atoms: C9_11  and  N2_12
REMARK    4  A    between atoms: C12_15  and  N3_16
REMARK    5  A    between atoms: C16_24  and  N6_25
ROOT
HETATM    1  N2  UNL     1      15.518  12.628   6.869  1.00  0.00    -0.393 N
HETATM    2  C10 UNL     1      16.703  12.984   6.249  1.00  0.00     0.123 C
HETATM    3  C11 UNL     1      16.662  12.886   4.717  1.00  0.00     0.045 C
HETATM    4  C12 UNL     1      15.249  13.118   4.275  1.00  0.00     0.095 C
HETATM    5  C22 UNL     1      14.621  14.145   5.168  1.00  0.00     0.045 C
HETATM    6  C23 UNL     1      14.408  13.463   6.523  1.00  0.00     0.123 C
ENDROOT
BRANCH   4   7
HETATM    7  N3  UNL     1      15.155  13.430   2.869  1.00  0.00    -0.322 N
HETATM    8  C13 UNL     1      14.690  12.629   1.894  1.00  0.00     0.185 A
HETATM    9  N4  UNL     1      14.754  13.255   0.706  1.00  0.00    -0.348 N
HETATM   10  C14 UNL     1      15.263  14.473   0.909  1.00  0.00     0.094 A
ATOM     11  H4  UNL     1      14.465  12.869  -0.192  1.00  0.00     0.167 HD
HETATM   12  C15 UNL     1      15.564  15.561   0.098  1.00  0.00     0.139 A
HETATM   13  C21 UNL     1      15.517  14.595   2.252  1.00  0.00     0.152 A
HETATM   14  N5  UNL     1      16.078  16.636   0.693  1.00  0.00    -0.199 N
HETATM   15  C16 UNL     1      16.328  16.756   2.008  1.00  0.00     0.681 A
ATOM     16  H5  UNL     1      16.301  17.435   0.101  1.00  0.00     0.183 HD
HETATM   17  N7  UNL     1      16.032  15.691   2.802  1.00  0.00    -0.174 N
ATOM     18  H7  UNL     1      16.204  15.731   3.807  1.00  0.00     0.186 HD
BRANCH  15  19
HETATM   19  N6  UNL     1      16.878  17.946   2.547  1.00  0.00    -0.218 N
HETATM   20  C17 UNL     1      18.285  18.195   2.739  1.00  0.00     0.141 C
HETATM   21  C18 UNL     1      18.404  19.555   3.368  1.00  0.00     0.022 C
HETATM   22  C19 UNL     1      17.088  20.231   3.086  1.00  0.00     0.022 C
HETATM   23  C20 UNL     1      16.097  19.086   2.982  1.00  0.00     0.141 C
ENDBRANCH  15  19
ENDBRANCH   4   7
BRANCH   1  24
HETATM   24  C9  UNL     1      15.209  11.381   7.382  1.00  0.00     0.062 C
BRANCH  24  25
HETATM   25  C8  UNL     1      15.932  10.177   6.948  1.00  0.00     0.026 C
HETATM   26  C7  UNL     1      15.379   9.448   5.760  1.00  0.00     0.012 C
HETATM   27  C6  UNL     1      15.762   7.995   5.951  1.00  0.00     0.026 C
HETATM   28  C5  UNL     1      15.853   7.784   7.411  1.00  0.00     0.087 C
HETATM   29  C24 UNL     1      15.857   9.123   8.063  1.00  0.00     0.035 C
BRANCH  28  30
HETATM   30  N1  UNL     1      17.021   7.048   7.831  1.00  0.00    -0.347 N
HETATM   31  C1  UNL     1      17.193   6.320   9.035  1.00  0.00     0.220 C
HETATM   32  O1  UNL     1      16.579   6.454  10.131  1.00  0.00    -0.273 OA
HETATM   33  C2  UNL     1      18.259   5.329   8.800  1.00  0.00     0.104 C
HETATM   34  C3  UNL     1      19.160   6.038   7.815  1.00  0.00     0.029 C
HETATM   35  C4  UNL     1      18.226   6.944   7.050  1.00  0.00     0.127 C
ENDBRANCH  28  30
ENDBRANCH  24  25
ENDBRANCH   1  24
TORSDOF 5
ENDMDL