MODEL 3
REMARK VINA RESULT: -6.676085545      2.462      5.406
REMARK  6 active torsions:
REMARK  status: ('A' for Active; 'I' for Inactive)
REMARK    1  A    between atoms: C2_2  and  O1_3
REMARK    2  A    between atoms: O1_3  and  C3_4
REMARK    3  A    between atoms: C3_4  and  C4_6
REMARK    4  A    between atoms: C9_11  and  C10_12
REMARK    5  A    between atoms: C12_17  and  C13_18
REMARK    6  A    between atoms: C13_18  and  O6_19
REMARK       I    between atoms: N1_28  and  C22_29
ROOT
HETATM    1  C4  UNL     1      15.813  12.427   2.515  1.00  0.00     0.097 C
HETATM    2  C5  UNL     1      17.067  11.959   3.126  1.00  0.00     0.020 C
HETATM    3  C6  UNL     1      16.942  10.931   4.212  1.00  0.00     0.065 C
HETATM    4  C7  UNL     1      15.971   9.838   3.959  1.00  0.00     0.173 C
HETATM    5  C8  UNL     1      14.944  10.092   2.921  1.00  0.00     0.077 C
HETATM    6  C9  UNL     1      14.639  11.517   2.620  1.00  0.00     0.073 C
HETATM    7  O4  UNL     1      15.258   9.669   5.181  1.00  0.00    -0.207 OA
HETATM    8  O5  UNL     1      16.089   9.575   6.185  1.00  0.00    -0.228 OA
HETATM    9  C12 UNL     1      16.862   8.438   6.180  1.00  0.00     0.212 C
HETATM   10  C21 UNL     1      16.401   7.632   4.955  1.00  0.00     0.167 C
HETATM   11  N1  UNL     1      16.618   8.533   3.812  1.00  0.00    -0.315 N
HETATM   12  C22 UNL     1      17.376   8.099   2.746  1.00  0.00     0.218 C
HETATM   13  C23 UNL     1      17.973   6.745   2.733  1.00  0.00     0.117 C
HETATM   14  O7  UNL     1      17.584   8.833   1.755  1.00  0.00    -0.274 OA
ENDROOT
BRANCH   6  15
HETATM   15  C10 UNL     1      13.758  11.620   1.419  1.00  0.00     0.128 C
HETATM   16  C11 UNL     1      12.801  10.515   1.138  1.00  0.00     0.091 C
HETATM   17  O3  UNL     1      13.796  12.568   0.668  1.00  0.00    -0.298 OA
ENDBRANCH   6  15
BRANCH   1  18
HETATM   18  C3  UNL     1      15.466  13.793   2.986  1.00  0.00     0.263 C
HETATM   19  O2  UNL     1      15.875  14.771   2.325  1.00  0.00    -0.265 OA
BRANCH  18  20
HETATM   20  O1  UNL     1      14.705  14.021   4.129  1.00  0.00    -0.322 OA
BRANCH  20  21
HETATM   21  C2  UNL     1      15.298  14.068   5.425  1.00  0.00     0.174 C
HETATM   22  C1  UNL     1      14.601  13.025   6.274  1.00  0.00     0.034 C
ENDBRANCH  20  21
ENDBRANCH  18  20
ENDBRANCH   1  18
BRANCH   9  23
HETATM   23  C13 UNL     1      16.753   7.628   7.435  1.00  0.00     0.091 C
HETATM   24  C15 UNL     1      18.085   7.655   8.146  1.00  0.00     0.041 C
HETATM   25  C16 UNL     1      18.747   6.290   8.143  1.00  0.00     0.007 C
HETATM   26  C17 UNL     1      17.881   5.293   8.884  1.00  0.00    -0.019 C
HETATM   27  C18 UNL     1      17.962   5.577  10.351  1.00  0.00     0.010 C
HETATM   28  C19 UNL     1      16.446   5.399   8.426  1.00  0.00     0.007 C
HETATM   29  C20 UNL     1      16.312   6.201   7.152  1.00  0.00     0.041 C
BRANCH  23  30
HETATM   30  O6  UNL     1      15.806   8.206   8.260  1.00  0.00    -0.382 OA
HETATM   31  C14 UNL     1      16.308   8.780   9.407  1.00  0.00     0.202 C
ENDBRANCH  23  30
ENDBRANCH   9  23
TORSDOF 6
ENDMDL