MODEL 5
REMARK VINA RESULT: -8.103730381      6.454      9.648
REMARK  13 active torsions:
REMARK  status: ('A' for Active; 'I' for Inactive)
REMARK    1  A    between atoms: S1_2  and  C2_3
REMARK    2  A    between atoms: C3_5  and  C4_6
REMARK    3  A    between atoms: C4_6  and  O2_7
REMARK    4  A    between atoms: O2_7  and  C5_8
REMARK    5  A    between atoms: C5_8  and  C6_10
REMARK    6  A    between atoms: C6_10  and  C7_11
REMARK    7  A    between atoms: C7_11  and  C8_13
REMARK    8  A    between atoms: C9_14  and  C10_15
REMARK    9  A    between atoms: C17_22  and  C18_23
REMARK   10  A    between atoms: C18_23  and  C19_24
REMARK   11  A    between atoms: C20_26  and  O5_27
REMARK   12  A    between atoms: C21_29  and  O6_30
REMARK   13  A    between atoms: C22_32  and  O7_33
ROOT
HETATM    1  C2  UNL     1      23.895 -11.177  29.286  1.00  0.00     0.214 C
HETATM    2  O1  UNL     1      24.845 -10.620  30.083  1.00  0.00    -0.365 OA
HETATM    3  C3  UNL     1      24.337  -9.894  31.170  1.00  0.00     0.154 C
HETATM    4  C17 UNL     1      24.330 -10.828  32.334  1.00  0.00     0.049 C
HETATM    5  C20 UNL     1      23.609 -12.105  32.097  1.00  0.00     0.156 C
HETATM    6  C21 UNL     1      22.470 -12.096  31.166  1.00  0.00     0.179 C
HETATM    7  C22 UNL     1      22.569 -11.435  29.873  1.00  0.00     0.188 C
ENDROOT
BRANCH   3   8
HETATM    8  C4  UNL     1      25.366  -8.768  31.373  1.00  0.00     0.211 C
BRANCH   8   9
HETATM    9  O2  UNL     1      26.658  -9.347  31.293  1.00  0.00    -0.319 OA
BRANCH   9  10
HETATM   10  C5  UNL     1      27.784  -8.783  31.885  1.00  0.00     0.266 C
HETATM   11  O3  UNL     1      27.594  -7.767  32.594  1.00  0.00    -0.265 OA
BRANCH  10  12
HETATM   12  C6  UNL     1      29.122  -9.347  31.692  1.00  0.00     0.193 C
BRANCH  12  13
HETATM   13  C7  UNL     1      29.247 -10.110  30.441  1.00  0.00     0.158 C
HETATM   14  O4  UNL     1      29.153  -9.546  29.336  1.00  0.00    -0.293 OA
BRANCH  13  15
HETATM   15  C8  UNL     1      29.485 -11.554  30.529  1.00  0.00     0.051 C
HETATM   16  C9  UNL     1      29.034 -12.365  29.606  1.00  0.00     0.010 C
BRANCH  16  17
HETATM   17  C10 UNL     1      29.212 -13.797  29.596  1.00  0.00    -0.062 C
HETATM   18  C11 UNL     1      29.203 -14.372  28.384  1.00  0.00    -0.020 C
HETATM   19  C12 UNL     1      29.359 -15.806  28.045  1.00  0.00     0.027 C
HETATM   20  C13 UNL     1      30.719 -16.251  28.520  1.00  0.00     0.004 C
HETATM   21  C14 UNL     1      30.715 -16.507  30.017  1.00  0.00     0.001 C
HETATM   22  C15 UNL     1      30.769 -15.205  30.783  1.00  0.00     0.005 C
HETATM   23  C16 UNL     1      29.388 -14.544  30.857  1.00  0.00     0.038 C
ENDBRANCH  16  17
ENDBRANCH  13  15
ENDBRANCH  12  13
ENDBRANCH  10  12
ENDBRANCH   9  10
ENDBRANCH   8   9
ENDBRANCH   3   8
BRANCH   4  24
HETATM   24  C18 UNL     1      23.953 -10.175  33.637  1.00  0.00     0.025 C
BRANCH  24  25
HETATM   25  C19 UNL     1      23.167 -11.019  34.578  1.00  0.00     0.115 C
HETATM   26 CL1  UNL     1      24.234 -11.318  36.000  1.00  0.00    -0.130 Cl
ENDBRANCH  24  25
ENDBRANCH   4  24
BRANCH   1  27
HETATM   27  S1  UNL     1      23.736 -10.095  27.810  1.00  0.00    -0.139 SA
HETATM   28  C1  UNL     1      22.322  -9.008  27.932  1.00  0.00     0.092 C
ENDBRANCH   1  27
BRANCH   5  29
HETATM   29  O5  UNL     1      24.510 -13.166  31.827  1.00  0.00    -0.392 OA
ATOM     30  H5  UNL     1      24.214 -13.694  31.095  1.00  0.00     0.210 HD
ENDBRANCH   5  29
BRANCH   7  31
HETATM   31  O7  UNL     1      21.846 -12.194  28.916  1.00  0.00    -0.389 OA
ATOM     32  H7  UNL     1      22.435 -12.875  28.611  1.00  0.00     0.210 HD
ENDBRANCH   7  31
BRANCH   6  33
HETATM   33  O6  UNL     1      22.107 -13.455  30.972  1.00  0.00    -0.390 OA
ATOM     34  H6  UNL     1      22.809 -13.847  30.467  1.00  0.00     0.210 HD
ENDBRANCH   6  33
TORSDOF 13
ENDMDL