MODEL 4
REMARK VINA RESULT: -7.852579497      1.850      3.398
REMARK  10 active torsions:
REMARK  status: ('A' for Active; 'I' for Inactive)
REMARK    1  A    between atoms: C2_2  and  C3_3
REMARK    2  A    between atoms: C3_3  and  N1_4
REMARK    3  A    between atoms: C4_7  and  C5_8
REMARK    4  A    between atoms: C11_15  and  C12_16
REMARK    5  A    between atoms: C13_18  and  C14_19
REMARK    6  A    between atoms: C19_30  and  C20_31
REMARK    7  A    between atoms: C20_31  and  C21_32
REMARK    8  A    between atoms: C21_32  and  C22_33
REMARK    9  A    between atoms: C22_33  and  O3_34
REMARK   10  A    between atoms: C23_36  and  C24_37
ROOT
HETATM    1  C14 UNL     1      25.448 -11.101  30.509  1.00  0.00     0.148 C
HETATM    2  C15 UNL     1      24.223 -11.909  30.158  1.00  0.00     0.170 C
HETATM    3  N3  UNL     1      23.609 -11.525  28.888  1.00  0.00    -0.353 N
ATOM      4  H3  UNL     1      22.784 -12.042  28.587  1.00  0.00     0.163 HD
HETATM    5  C16 UNL     1      24.067 -10.506  28.061  1.00  0.00     0.213 C
HETATM    6  N4  UNL     1      23.511 -10.240  26.932  1.00  0.00    -0.365 N
ATOM      7  H41 UNL     1      23.847  -9.492  26.325  1.00  0.00     0.159 HD
ATOM      8  H42 UNL     1      22.708 -10.791  26.629  1.00  0.00     0.159 HD
HETATM    9  O2  UNL     1      25.143  -9.768  28.467  1.00  0.00    -0.314 OA
HETATM   10  C17 UNL     1      25.405  -9.755  29.882  1.00  0.00     0.175 C
HETATM   11  C18 UNL     1      24.274  -8.891  30.406  1.00  0.00     0.043 C
HETATM   12  C19 UNL     1      24.136  -8.890  31.871  1.00  0.00     0.017 C
HETATM   13  C23 UNL     1      24.303 -10.261  32.415  1.00  0.00     0.127 C
HETATM   14  O4  UNL     1      25.297 -10.973  31.916  1.00  0.00    -0.364 OA
ENDROOT
BRANCH   1  15
HETATM   15  C13 UNL     1      26.752 -11.781  30.377  1.00  0.00     0.078 A
HETATM   16  N1  UNL     1      27.931 -11.538  30.917  1.00  0.00    -0.292 N
HETATM   17  N2  UNL     1      28.784 -12.474  30.546  1.00  0.00    -0.295 N
HETATM   18  C4  UNL     1      28.216 -13.407  29.721  1.00  0.00     0.093 A
ATOM     19  H2  UNL     1      29.759 -12.500  30.842  1.00  0.00     0.187 HD
HETATM   20  C11 UNL     1      26.931 -12.983  29.606  1.00  0.00     0.029 A
BRANCH  16  21
HETATM   21  C3  UNL     1      28.414 -10.476  31.718  1.00  0.00     0.148 C
BRANCH  21  22
HETATM   22  C2  UNL     1      29.537  -9.648  31.063  1.00  0.00     0.017 C
HETATM   23  C1  UNL     1      28.996  -8.744  29.987  1.00  0.00     0.007 C
ENDBRANCH  21  22
ENDBRANCH  16  21
BRANCH  18  24
HETATM   24  C5  UNL     1      29.052 -14.459  29.147  1.00  0.00     0.110 A
HETATM   25  O1  UNL     1      28.972 -14.678  27.790  1.00  0.00    -0.313 OA
HETATM   26  C6  UNL     1      29.761 -15.636  27.448  1.00  0.00     0.050 A
HETATM   27  C7  UNL     1      30.018 -16.227  26.095  1.00  0.00     0.076 C
HETATM   28  C8  UNL     1      30.401 -16.101  28.566  1.00  0.00     0.042 A
HETATM   29  C9  UNL     1      29.927 -15.331  29.648  1.00  0.00    -0.023 A
HETATM   30  C10 UNL     1      30.365 -15.639  31.046  1.00  0.00     0.051 C
ENDBRANCH  18  24
BRANCH  20  31
HETATM   31  C12 UNL     1      25.926 -13.702  28.807  1.00  0.00     0.265 C
HETATM   32  F1  UNL     1      26.170 -15.095  28.823  1.00  0.00    -0.250 F
ENDBRANCH  20  31
ENDBRANCH   1  15
BRANCH  13  33
HETATM   33  C24 UNL     1      24.722 -10.024  33.904  1.00  0.00     0.028 C
HETATM   34  C25 UNL     1      23.673 -10.645  34.781  1.00  0.00     0.007 C
ENDBRANCH  13  33
BRANCH  12  35
HETATM   35  C20 UNL     1      22.886  -8.196  32.312  1.00  0.00     0.009 C
BRANCH  35  36
HETATM   36  C21 UNL     1      22.858  -6.722  32.102  1.00  0.00     0.027 C
BRANCH  36  37
HETATM   37  C22 UNL     1      21.882  -6.467  30.942  1.00  0.00     0.164 C
BRANCH  37  38
HETATM   38  O3  UNL     1      20.623  -6.369  31.489  1.00  0.00    -0.401 OA
ATOM     39  H3  UNL     1      20.332  -5.474  31.358  1.00  0.00     0.209 HD
ENDBRANCH  37  38
ENDBRANCH  36  37
ENDBRANCH  35  36
ENDBRANCH  12  35
TORSDOF 10
ENDMDL