MODEL 3
REMARK VINA RESULT: -8.245085916      1.385      1.665
REMARK  12 active torsions:
REMARK  status: ('A' for Active; 'I' for Inactive)
REMARK    1  A    between atoms: C2_2  and  C3_3
REMARK    2  A    between atoms: C3_3  and  C4_4
REMARK    3  A    between atoms: C3_3  and  C6_7
REMARK    4  A    between atoms: C11_14  and  C12_15
REMARK    5  A    between atoms: C12_15  and  C13_16
REMARK    6  A    between atoms: C13_16  and  C14_17
REMARK    7  A    between atoms: C14_17  and  O4_18
REMARK    8  A    between atoms: C14_17  and  C15_20
REMARK    9  A    between atoms: C15_20  and  C16_21
REMARK   10  A    between atoms: C17_22  and  O5_23
REMARK   11  A    between atoms: C20_27  and  O6_28
REMARK   12  A    between atoms: C21_30  and  C22_31
ROOT
HETATM    1  C22 UNL     1      23.279 -10.950  29.835  1.00  0.00     0.031 C
HETATM    2  C23 UNL     1      24.144 -11.445  28.758  1.00  0.00     0.070 C
HETATM    3  N1  UNL     1      22.295 -10.144  29.510  1.00  0.00    -0.297 N
ATOM      4  H1  UNL     1      21.684  -9.792  30.247  1.00  0.00     0.178 HD
HETATM    5  C24 UNL     1      22.055  -9.752  28.194  1.00  0.00     0.182 C
HETATM    6  N2  UNL     1      21.845  -9.430  27.103  1.00  0.00    -0.172 NA
ENDROOT
BRANCH   1   7
HETATM    7  C21 UNL     1      23.486 -11.327  31.222  1.00  0.00     0.060 A
HETATM    8  C20 UNL     1      23.641 -10.415  32.231  1.00  0.00     0.089 A
HETATM    9  C18 UNL     1      23.839 -10.853  33.550  1.00  0.00     0.006 A
HETATM   10  C17 UNL     1      23.886 -12.183  33.901  1.00  0.00     0.083 A
HETATM   11  C19 UNL     1      23.991  -9.779  34.562  1.00  0.00     0.054 C
HETATM   12  C16 UNL     1      23.729 -13.114  32.874  1.00  0.00     0.018 A
HETATM   13  C25 UNL     1      23.536 -12.677  31.591  1.00  0.00     0.140 A
HETATM   14  F1  UNL     1      23.357 -13.554  30.551  1.00  0.00    -0.204 F
BRANCH   8  15
HETATM   15  O6  UNL     1      23.605  -9.056  31.947  1.00  0.00    -0.359 OA
ATOM     16  H6  UNL     1      23.824  -8.745  31.076  1.00  0.00     0.217 HD
ENDBRANCH   8  15
BRANCH  10  17
HETATM   17  O5  UNL     1      24.079 -12.603  35.210  1.00  0.00    -0.359 OA
ATOM     18  H5  UNL     1      24.210 -11.970  35.906  1.00  0.00     0.217 HD
ENDBRANCH  10  17
BRANCH  12  19
HETATM   19  C15 UNL     1      23.780 -14.536  33.198  1.00  0.00     0.076 C
BRANCH  19  20
HETATM   20  C14 UNL     1      22.531 -15.191  33.647  1.00  0.00     0.122 C
BRANCH  20  21
HETATM   21  C13 UNL     1      22.575 -16.713  33.654  1.00  0.00     0.032 C
BRANCH  21  22
HETATM   22  C12 UNL     1      21.831 -17.171  34.859  1.00  0.00     0.011 C
BRANCH  22  23
HETATM   23  C11 UNL     1      22.429 -18.269  35.662  1.00  0.00     0.034 C
HETATM   24  C6  UNL     1      21.554 -18.302  36.960  1.00  0.00     0.103 C
HETATM   25  C7  UNL     1      20.462 -19.191  36.545  1.00  0.00     0.265 C
HETATM   26  O2  UNL     1      19.223 -19.128  36.659  1.00  0.00    -0.265 OA
HETATM   27  O3  UNL     1      21.153 -20.254  35.918  1.00  0.00    -0.310 OA
HETATM   28  C8  UNL     1      22.247 -19.658  35.188  1.00  0.00     0.068 C
HETATM   29  C9  UNL     1      21.965 -19.911  33.760  1.00  0.00     0.047 C
HETATM   30  C10 UNL     1      23.479 -20.504  35.546  1.00  0.00     0.047 C
BRANCH  24  31
HETATM   31  C3  UNL     1      22.357 -18.724  38.123  1.00  0.00     0.068 C
BRANCH  31  32
HETATM   32  C2  UNL     1      21.651 -19.611  39.114  1.00  0.00     0.008 C
HETATM   33  C1  UNL     1      22.173 -20.982  39.293  1.00  0.00     0.006 C
ENDBRANCH  31  32
BRANCH  31  34
HETATM   34  C4  UNL     1      22.725 -17.481  38.922  1.00  0.00     0.128 C
HETATM   35  C5  UNL     1      21.786 -16.311  38.918  1.00  0.00     0.091 C
HETATM   36  O1  UNL     1      23.739 -17.393  39.558  1.00  0.00    -0.298 OA
ENDBRANCH  31  34
ENDBRANCH  24  31
ENDBRANCH  22  23
ENDBRANCH  21  22
ENDBRANCH  20  21
BRANCH  20  37
HETATM   37  O4  UNL     1      22.037 -14.806  34.868  1.00  0.00    -0.395 OA
ATOM     38  H4  UNL     1      21.352 -14.172  34.696  1.00  0.00     0.210 HD
ENDBRANCH  20  37
ENDBRANCH  19  20
ENDBRANCH  12  19
ENDBRANCH   1   7
TORSDOF 12
ENDMDL