MODEL 4
REMARK VINA RESULT: -7.742407154      4.987     11.325
REMARK  10 active torsions:
REMARK  status: ('A' for Active; 'I' for Inactive)
REMARK    1  A    between atoms: C2_2  and  C3_3
REMARK    2  A    between atoms: C3_3  and  C4_4
REMARK    3  A    between atoms: C4_4  and  C5_5
REMARK    4  A    between atoms: C5_5  and  O1_6
REMARK    5  A    between atoms: O1_6  and  C6_7
REMARK    6  A    between atoms: N1_10  and  C9_11
REMARK    7  A    between atoms: N2_13  and  C10_14
REMARK    8  A    between atoms: C10_14  and  C11_15
REMARK       I    between atoms: C11_15  and  N3_17
REMARK    9  A    between atoms: N3_17  and  C12_19
REMARK   10  A    between atoms: C21_30  and  O4_31
ROOT
HETATM    1  C9  UNL     1      24.044 -12.245  32.581  1.00  0.00     0.141 A
HETATM    2  S1  UNL     1      24.464 -13.407  33.746  1.00  0.00     0.013 SA
HETATM    3  N2  UNL     1      23.034 -14.068  33.182  1.00  0.00    -0.285 N
HETATM    4  C21 UNL     1      22.937 -13.026  32.342  1.00  0.00     0.185 A
ENDROOT
BRANCH   3   5
HETATM    5  C10 UNL     1      22.279 -15.284  33.525  1.00  0.00     0.242 C
BRANCH   5   6
HETATM    6  C11 UNL     1      23.024 -16.404  32.829  1.00  0.00     0.241 C
HETATM    7  O2  UNL     1      23.458 -16.178  31.685  1.00  0.00    -0.271 OA
HETATM    8  N3  UNL     1      23.147 -17.598  33.563  1.00  0.00    -0.326 N
ATOM      9  H3  UNL     1      22.724 -17.605  34.491  1.00  0.00     0.169 HD
BRANCH   8  10
HETATM   10  C12 UNL     1      23.796 -18.795  33.154  1.00  0.00     0.035 A
HETATM   11  C13 UNL     1      24.505 -19.563  34.091  1.00  0.00     0.032 A
HETATM   12  C14 UNL     1      25.149 -20.712  33.710  1.00  0.00     0.039 A
HETATM   13  C15 UNL     1      25.152 -21.185  32.423  1.00  0.00     0.077 A
HETATM   14  C16 UNL     1      24.464 -20.447  31.491  1.00  0.00     0.011 A
HETATM   15  O3  UNL     1      25.810 -22.354  32.048  1.00  0.00    -0.350 OA
HETATM   16  C17 UNL     1      23.807 -19.279  31.865  1.00  0.00     0.042 A
HETATM   17  C18 UNL     1      24.449 -20.930  30.094  1.00  0.00     0.208 C
HETATM   18  F1  UNL     1      23.553 -21.948  29.892  1.00  0.00    -0.244 F
HETATM   19  C19 UNL     1      25.880 -21.415  29.819  1.00  0.00     0.069 C
HETATM   20  C20 UNL     1      26.287 -22.538  30.714  1.00  0.00     0.178 C
ENDBRANCH   8  10
ENDBRANCH   5   6
ENDBRANCH   3   5
BRANCH   4  21
HETATM   21  O4  UNL     1      21.903 -12.785  31.405  1.00  0.00    -0.344 OA
ATOM     22  H4  UNL     1      21.168 -12.190  31.498  1.00  0.00     0.219 HD
ENDBRANCH   4  21
BRANCH   1  23
HETATM   23  N1  UNL     1      24.592 -11.016  32.081  1.00  0.00    -0.367 N
HETATM   24  C8  UNL     1      25.877 -11.046  31.459  1.00  0.00     0.165 C
HETATM   25  C4  UNL     1      25.989 -10.235  30.194  1.00  0.00     0.162 C
HETATM   26  N4  UNL     1      24.781  -9.490  29.929  1.00  0.00    -0.061 N
HETATM   27  C23 UNL     1      24.246  -8.846  31.100  1.00  0.00     0.253 C
ATOM     28  H42 UNL     1      24.927  -8.816  29.178  1.00  0.00     0.278 HD
ATOM     29  H41 UNL     1      24.078 -10.082  29.487  1.00  0.00     0.278 HD
HETATM   30  C22 UNL     1      23.878  -9.774  32.198  1.00  0.00     0.151 C
BRANCH  25  31
HETATM   31  C3  UNL     1      26.207 -11.167  29.029  1.00  0.00     0.042 C
BRANCH  31  32
HETATM   32  C2  UNL     1      26.421 -12.588  29.420  1.00  0.00    -0.002 C
HETATM   33  C1  UNL     1      27.662 -13.089  28.668  1.00  0.00     0.005 C
ENDBRANCH  31  32
ENDBRANCH  25  31
BRANCH  25  34
HETATM   34  C5  UNL     1      27.170  -9.286  30.307  1.00  0.00     0.208 C
BRANCH  34  35
HETATM   35  O1  UNL     1      28.140  -9.563  29.349  1.00  0.00    -0.389 OA
BRANCH  35  36
HETATM   36  C6  UNL     1      29.395  -9.432  29.925  1.00  0.00     0.163 C
HETATM   37  C7  UNL     1      29.705 -10.682  30.701  1.00  0.00     0.033 C
ENDBRANCH  35  36
ENDBRANCH  34  35
ENDBRANCH  25  34
ENDBRANCH   1  23
TORSDOF 10
ENDMDL