MODEL 1
REMARK VINA RESULT: -7.248581746      0.000      0.000
REMARK  12 active torsions:
REMARK  status: ('A' for Active; 'I' for Inactive)
REMARK    1  A    between atoms: O1_2  and  C2_3
REMARK    2  A    between atoms: C2_3  and  C3_5
REMARK    3  A    between atoms: C3_5  and  N1_6
REMARK    4  A    between atoms: N1_6  and  C4_8
REMARK    5  A    between atoms: N2_10  and  C5_11
REMARK    6  A    between atoms: C5_11  and  C6_12
REMARK    7  A    between atoms: C6_12  and  C7_13
REMARK    8  A    between atoms: C9_15  and  C10_16
REMARK    9  A    between atoms: C14_22  and  C15_23
REMARK       I    between atoms: C15_23  and  N4_25
REMARK   10  A    between atoms: N4_25  and  C16_27
REMARK   11  A    between atoms: C16_27  and  C17_28
REMARK   12  A    between atoms: C17_28  and  C18_29
ROOT
HETATM    1  C4  UNL     1      22.813 -11.962  31.418  1.00  0.00     0.106 A
HETATM    2  S1  UNL     1      22.765 -13.234  30.265  1.00  0.00     0.008 SA
HETATM    3  N2  UNL     1      23.912 -12.655  29.191  1.00  0.00    -0.303 N
HETATM    4  C13 UNL     1      24.313 -11.513  29.720  1.00  0.00     0.143 A
HETATM    5  N3  UNL     1      25.332 -10.740  29.014  1.00  0.00    -0.081 NA
HETATM    6  C14 UNL     1      23.751 -11.120  30.895  1.00  0.00     0.108 A
ENDROOT
BRANCH   6   7
HETATM    7  C15 UNL     1      24.128  -9.868  31.558  1.00  0.00     0.257 C
HETATM    8  O3  UNL     1      23.240  -9.002  31.808  1.00  0.00    -0.267 OA
HETATM    9  N4  UNL     1      25.446  -9.558  31.944  1.00  0.00    -0.356 N
ATOM     10  H4  UNL     1      26.205 -10.216  31.770  1.00  0.00     0.162 HD
BRANCH   9  11
HETATM   11  C16 UNL     1      25.714  -8.261  32.609  1.00  0.00     0.127 C
BRANCH  11  12
HETATM   12  C17 UNL     1      26.728  -7.483  31.910  1.00  0.00     0.058 C
BRANCH  12  13
HETATM   13  C18 UNL     1      28.024  -8.209  31.618  1.00  0.00    -0.050 A
HETATM   14  C19 UNL     1      28.397  -8.521  30.355  1.00  0.00     0.014 A
HETATM   15  C20 UNL     1      29.584  -9.189  30.203  1.00  0.00     0.050 A
HETATM   16  S2  UNL     1      30.147  -9.364  31.793  1.00  0.00    -0.113 SA
HETATM   17  C21 UNL     1      28.884  -8.597  32.624  1.00  0.00     0.056 A
ENDBRANCH  12  13
ENDBRANCH  11  12
ENDBRANCH   9  11
ENDBRANCH   6   7
BRANCH   1  18
HETATM   18  N1  UNL     1      22.076 -11.952  32.477  1.00  0.00    -0.373 N
ATOM     19  H1  UNL     1      21.079 -11.762  32.371  1.00  0.00     0.160 HD
BRANCH  18  20
HETATM   20  C3  UNL     1      22.587 -12.195  33.797  1.00  0.00     0.231 C
BRANCH  20  21
HETATM   21  C2  UNL     1      22.709 -13.655  34.011  1.00  0.00     0.276 C
HETATM   22  O2  UNL     1      21.694 -14.382  34.114  1.00  0.00    -0.263 OA
BRANCH  21  23
HETATM   23  O1  UNL     1      23.953 -14.247  34.101  1.00  0.00    -0.325 OA
HETATM   24  C1  UNL     1      25.098 -13.504  33.742  1.00  0.00     0.213 C
ENDBRANCH  21  23
ENDBRANCH  20  21
ENDBRANCH  18  20
ENDBRANCH   1  18
BRANCH   3  25
HETATM   25  C5  UNL     1      24.380 -13.275  27.924  1.00  0.00     0.143 C
BRANCH  25  26
HETATM   26  C6  UNL     1      24.786 -14.684  28.301  1.00  0.00     0.054 C
BRANCH  26  27
HETATM   27  C7  UNL     1      26.247 -14.804  28.099  1.00  0.00    -0.084 C
HETATM   28  C8  UNL     1      26.779 -15.963  27.355  1.00  0.00     0.043 C
HETATM   29  C9  UNL     1      27.055 -13.889  28.578  1.00  0.00     0.000 C
BRANCH  29  30
HETATM   30  C10 UNL     1      28.533 -13.875  28.456  1.00  0.00     0.048 C
HETATM   31  C11 UNL     1      29.219 -14.913  29.292  1.00  0.00     0.036 C
HETATM   32  C12 UNL     1      29.068 -12.509  28.886  1.00  0.00     0.036 C
HETATM   33 CL1  UNL     1      28.950 -14.023  26.720  1.00  0.00    -0.116 Cl
ENDBRANCH  29  30
ENDBRANCH  26  27
ENDBRANCH  25  26
ENDBRANCH   3  25
TORSDOF 12
ENDMDL