MODEL 1
REMARK VINA RESULT: -8.092681008      0.000      0.000
REMARK  13 active torsions:
REMARK  status: ('A' for Active; 'I' for Inactive)
REMARK    1  A    between atoms: C2_2  and  O2_4
REMARK    2  A    between atoms: O2_4  and  C3_5
REMARK    3  A    between atoms: C3_5  and  C4_6
REMARK    4  A    between atoms: C3_5  and  C9_12
REMARK    5  A    between atoms: C5_7  and  C6_8
REMARK    6  A    between atoms: C9_12  and  C10_13
REMARK    7  A    between atoms: C10_13  and  C11_14
REMARK    8  A    between atoms: C11_14  and  C12_15
REMARK    9  A    between atoms: C11_14  and  C17_27
REMARK   10  A    between atoms: C13_16  and  O3_17
REMARK   11  A    between atoms: C14_20  and  C15_21
REMARK   12  A    between atoms: C15_21  and  O5_22
REMARK   13  A    between atoms: C16_24  and  O6_25
ROOT
HETATM    1  C11 UNL     1      25.362  -9.993  31.142  1.00  0.00     0.056 C
ENDROOT
BRANCH   1   2
HETATM    2  C10 UNL     1      25.886 -10.290  29.769  1.00  0.00     0.015 C
BRANCH   2   3
HETATM    3  C9  UNL     1      27.302  -9.924  29.593  1.00  0.00     0.037 C
BRANCH   3   4
HETATM    4  C3  UNL     1      28.264 -10.471  30.585  1.00  0.00     0.154 C
BRANCH   4   5
HETATM    5  O2  UNL     1      29.205  -9.485  30.990  1.00  0.00    -0.312 OA
BRANCH   5   6
HETATM    6  C2  UNL     1      29.346  -9.024  32.280  1.00  0.00     0.255 C
HETATM    7  C1  UNL     1      30.541  -9.430  33.078  1.00  0.00     0.126 C
HETATM    8  O1  UNL     1      28.450  -8.266  32.742  1.00  0.00    -0.266 OA
ENDBRANCH   5   6
ENDBRANCH   4   5
BRANCH   4   9
HETATM    9  C4  UNL     1      28.989 -11.662  30.208  1.00  0.00     0.006 C
HETATM   10  C5  UNL     1      28.471 -12.851  30.414  1.00  0.00     0.006 C
BRANCH  10  11
HETATM   11  C6  UNL     1      29.159 -14.089  30.052  1.00  0.00    -0.056 C
HETATM   12  C7  UNL     1      28.970 -14.639  28.696  1.00  0.00     0.048 C
HETATM   13  C8  UNL     1      29.929 -14.688  30.931  1.00  0.00     0.062 C
HETATM   14 BR1  UNL     1      30.831 -16.303  30.469  1.00  0.00    -0.063 Br
ENDBRANCH  10  11
ENDBRANCH   4   9
ENDBRANCH   3   4
ENDBRANCH   2   3
ENDBRANCH   1   2
BRANCH   1  15
HETATM   15  C12 UNL     1      24.490  -8.810  31.226  1.00  0.00     0.042 A
HETATM   16  C13 UNL     1      24.695  -7.710  32.081  1.00  0.00     0.193 A
HETATM   17  O4  UNL     1      23.710  -6.865  31.946  1.00  0.00    -0.287 OA
HETATM   18  C14 UNL     1      22.840  -7.284  31.070  1.00  0.00     0.113 A
HETATM   19  C16 UNL     1      23.310  -8.517  30.599  1.00  0.00     0.109 A
BRANCH  16  20
HETATM   20  O3  UNL     1      25.759  -7.523  32.939  1.00  0.00    -0.340 OA
ATOM     21  H3  UNL     1      25.710  -7.316  33.865  1.00  0.00     0.220 HD
ENDBRANCH  16  20
BRANCH  18  22
HETATM   22  C15 UNL     1      21.576  -6.636  30.613  1.00  0.00     0.232 C
BRANCH  22  23
HETATM   23  O5  UNL     1      20.734  -6.417  31.703  1.00  0.00    -0.394 OA
ATOM     24  H5  UNL     1      19.840  -6.642  31.472  1.00  0.00     0.209 HD
ENDBRANCH  22  23
ENDBRANCH  18  22
BRANCH  19  25
HETATM   25  O6  UNL     1      22.645  -9.279  29.653  1.00  0.00    -0.357 OA
ATOM     26  H6  UNL     1      21.915  -9.015  29.107  1.00  0.00     0.217 HD
ENDBRANCH  19  25
ENDBRANCH   1  15
BRANCH   1  27
HETATM   27  C17 UNL     1      24.661 -11.240  31.679  1.00  0.00     0.141 C
HETATM   28  C18 UNL     1      24.017 -10.971  33.003  1.00  0.00     0.043 C
HETATM   29  C19 UNL     1      22.678 -11.619  32.924  1.00  0.00     0.113 C
HETATM   30  C20 UNL     1      22.639 -12.285  31.615  1.00  0.00     0.259 C
HETATM   31  O7  UNL     1      21.908 -13.224  31.193  1.00  0.00    -0.265 OA
HETATM   32  O8  UNL     1      23.615 -11.676  30.828  1.00  0.00    -0.315 OA
ENDBRANCH   1  27
TORSDOF 13
ENDMDL