MODEL 5
REMARK VINA RESULT: -6.836573811      1.940      2.898
REMARK  11 active torsions:
REMARK  status: ('A' for Active; 'I' for Inactive)
REMARK    1  A    between atoms: C2_2  and  O1_3
REMARK    2  A    between atoms: O1_3  and  C3_4
REMARK    3  A    between atoms: C3_4  and  C4_6
REMARK    4  A    between atoms: C7_13  and  O4_14
REMARK    5  A    between atoms: C12_21  and  O5_22
REMARK    6  A    between atoms: O5_22  and  C13_23
REMARK    7  A    between atoms: C16_26  and  O6_27
REMARK    8  A    between atoms: O6_27  and  C17_28
REMARK    9  A    between atoms: C22_33  and  C23_34
REMARK   10  A    between atoms: C24_35  and  C25_36
REMARK   11  A    between atoms: C25_36  and  O7_37
ROOT
HETATM    1  C4  UNL     1      26.116 -10.079  30.902  1.00  0.00     0.179 C
HETATM    2  C5  UNL     1      25.523  -8.855  31.500  1.00  0.00     0.126 C
HETATM    3  N1  UNL     1      25.966  -8.351  32.590  1.00  0.00    -0.383 N
ATOM      4  H11 UNL     1      25.559  -7.511  33.000  1.00  0.00     0.158 HD
ATOM      5  H12 UNL     1      26.744  -8.738  33.123  1.00  0.00     0.158 HD
HETATM    6  O3  UNL     1      24.471  -8.330  30.778  1.00  0.00    -0.336 OA
HETATM    7  C6  UNL     1      23.447  -9.226  30.441  1.00  0.00     0.216 C
HETATM    8  C7  UNL     1      23.675 -10.589  31.023  1.00  0.00     0.099 C
HETATM    9  C8  UNL     1      22.605 -11.473  30.428  1.00  0.00     0.083 C
HETATM   10  C9  UNL     1      22.957 -11.965  29.051  1.00  0.00     0.206 C
HETATM   11  F1  UNL     1      22.138 -13.052  28.763  1.00  0.00    -0.244 F
HETATM   12  C10 UNL     1      24.350 -12.418  28.937  1.00  0.00    -0.014 A
HETATM   13  C11 UNL     1      24.668 -13.244  27.856  1.00  0.00     0.050 A
HETATM   14  C12 UNL     1      25.930 -13.721  27.663  1.00  0.00     0.103 A
HETATM   15  C16 UNL     1      26.921 -13.365  28.585  1.00  0.00     0.103 A
HETATM   16  C20 UNL     1      26.577 -12.543  29.649  1.00  0.00     0.048 A
HETATM   17  C21 UNL     1      25.295 -12.055  29.848  1.00  0.00    -0.029 A
HETATM   18  C22 UNL     1      25.034 -11.161  31.006  1.00  0.00     0.058 C
ENDROOT
BRANCH   1  19
HETATM   19  C3  UNL     1      26.633  -9.791  29.578  1.00  0.00     0.272 C
HETATM   20  O2  UNL     1      25.952  -9.604  28.519  1.00  0.00    -0.264 OA
BRANCH  19  21
HETATM   21  O1  UNL     1      27.982  -9.688  29.324  1.00  0.00    -0.321 OA
BRANCH  21  22
HETATM   22  C2  UNL     1      28.987  -9.540  30.297  1.00  0.00     0.174 C
HETATM   23  C1  UNL     1      29.766 -10.792  30.513  1.00  0.00     0.034 C
ENDBRANCH  21  22
ENDBRANCH  19  21
ENDBRANCH   1  19
BRANCH  18  24
HETATM   24  C23 UNL     1      25.391 -11.880  32.276  1.00  0.00    -0.010 C
HETATM   25  C24 UNL     1      24.503 -12.734  33.001  1.00  0.00    -0.004 C
BRANCH  25  26
HETATM   26  C25 UNL     1      23.916 -13.985  32.485  1.00  0.00     0.191 C
BRANCH  26  27
HETATM   27  O7  UNL     1      24.096 -15.122  33.255  1.00  0.00    -0.397 OA
ATOM     28  H7  UNL     1      23.589 -15.887  33.012  1.00  0.00     0.209 HD
ENDBRANCH  26  27
ENDBRANCH  25  26
ENDBRANCH  18  24
BRANCH   8  29
HETATM   29  O4  UNL     1      23.303 -10.417  32.389  1.00  0.00    -0.386 OA
ATOM     30  H4  UNL     1      22.560 -11.002  32.481  1.00  0.00     0.210 HD
ENDBRANCH   8  29
BRANCH  15  31
HETATM   31  O6  UNL     1      28.186 -13.846  28.387  1.00  0.00    -0.344 OA
BRANCH  31  32
HETATM   32  C17 UNL     1      28.766 -15.008  28.866  1.00  0.00     0.121 C
HETATM   33  C18 UNL     1      29.520 -14.657  30.156  1.00  0.00     0.040 C
HETATM   34  C19 UNL     1      29.862 -15.407  27.871  1.00  0.00     0.040 C
ENDBRANCH  31  32
ENDBRANCH  15  31
BRANCH  14  35
HETATM   35  O5  UNL     1      26.280 -14.528  26.620  1.00  0.00    -0.344 OA
BRANCH  35  36
HETATM   36  C13 UNL     1      25.691 -15.723  26.237  1.00  0.00     0.121 C
HETATM   37  C14 UNL     1      26.401 -16.209  24.974  1.00  0.00     0.040 C
HETATM   38  C15 UNL     1      25.844 -16.784  27.314  1.00  0.00     0.040 C
ENDBRANCH  35  36
ENDBRANCH  14  35
TORSDOF 11
ENDMDL