MODEL 1
REMARK VINA RESULT: -7.865438042      0.000      0.000
REMARK  13 active torsions:
REMARK  status: ('A' for Active; 'I' for Inactive)
REMARK    1  A    between atoms: C2_2  and  C3_3
REMARK    2  A    between atoms: C3_3  and  C4_4
REMARK    3  A    between atoms: C4_4  and  O2_6
REMARK    4  A    between atoms: O2_6  and  C5_7
REMARK    5  A    between atoms: C10_14  and  C11_15
REMARK    6  A    between atoms: C11_15  and  C12_16
REMARK    7  A    between atoms: C12_16  and  O3_17
REMARK    8  A    between atoms: O3_17  and  C13_18
REMARK    9  A    between atoms: C15_21  and  C16_22
REMARK   10  A    between atoms: C16_22  and  O6_27
REMARK   11  A    between atoms: N2_23  and  O5_25
REMARK   12  A    between atoms: O6_27  and  C17_28
REMARK   13  A    between atoms: C19_30  and  O7_31
ROOT
HETATM    1  C12 UNL     1      23.145 -12.921  28.911  1.00  0.00     0.175 C
ENDROOT
BRANCH   1   2
HETATM    2  C11 UNL     1      24.305 -12.334  28.138  1.00  0.00     0.067 C
BRANCH   2   3
HETATM    3  C10 UNL     1      25.605 -12.936  28.440  1.00  0.00    -0.025 A
HETATM    4  C9  UNL     1      25.938 -14.290  28.332  1.00  0.00     0.096 A
HETATM    5  N1  UNL     1      27.222 -14.465  28.659  1.00  0.00    -0.365 N
HETATM    6  C8  UNL     1      27.765 -13.282  28.985  1.00  0.00     0.046 A
ATOM      7  H1  UNL     1      27.713 -15.360  28.661  1.00  0.00     0.165 HD
HETATM    8  C7  UNL     1      29.025 -12.882  29.401  1.00  0.00     0.033 A
HETATM    9  C23 UNL     1      26.759 -12.316  28.851  1.00  0.00     0.040 A
HETATM   10  C6  UNL     1      29.276 -11.549  29.680  1.00  0.00     0.043 A
HETATM   11  C5  UNL     1      28.303 -10.583  29.558  1.00  0.00     0.118 A
HETATM   12  C24 UNL     1      27.045 -11.004  29.139  1.00  0.00     0.163 A
HETATM   13  F1  UNL     1      26.088 -10.039  29.042  1.00  0.00    -0.202 F
BRANCH  11  14
HETATM   14  O2  UNL     1      28.519  -9.243  29.830  1.00  0.00    -0.276 OA
BRANCH  14  15
HETATM   15  C4  UNL     1      28.501  -8.690  31.109  1.00  0.00     0.264 C
HETATM   16  O1  UNL     1      27.778  -7.695  31.309  1.00  0.00    -0.265 OA
BRANCH  15  17
HETATM   17  C3  UNL     1      29.311  -9.248  32.217  1.00  0.00     0.111 C
BRANCH  17  18
HETATM   18  C2  UNL     1      30.793  -9.013  32.002  1.00  0.00     0.005 C
HETATM   19  C1  UNL     1      31.624 -10.141  32.549  1.00  0.00     0.005 C
ENDBRANCH  17  18
ENDBRANCH  15  17
ENDBRANCH  14  15
ENDBRANCH  11  14
ENDBRANCH   2   3
ENDBRANCH   1   2
BRANCH   1  20
HETATM   20  O3  UNL     1      23.556 -12.998  30.239  1.00  0.00    -0.360 OA
BRANCH  20  21
HETATM   21  C13 UNL     1      22.701 -12.312  31.104  1.00  0.00     0.275 C
HETATM   22  O4  UNL     1      22.293 -11.123  30.480  1.00  0.00    -0.331 OA
HETATM   23  C14 UNL     1      22.958  -9.893  30.669  1.00  0.00     0.152 C
HETATM   24  C15 UNL     1      23.407  -9.671  31.886  1.00  0.00     0.046 C
HETATM   25  C19 UNL     1      23.146 -10.702  32.910  1.00  0.00     0.170 C
HETATM   26  C20 UNL     1      23.528 -12.040  32.364  1.00  0.00     0.033 C
HETATM   27  C21 UNL     1      25.007 -12.114  32.089  1.00  0.00     0.023 C
HETATM   28  C22 UNL     1      23.228 -13.084  33.428  1.00  0.00     0.023 C
BRANCH  24  29
HETATM   29  C16 UNL     1      24.122  -8.402  32.182  1.00  0.00     0.172 C
HETATM   30  N2  UNL     1      25.174  -8.427  32.908  1.00  0.00    -0.247 N
ATOM     31  H2  UNL     1      25.440  -9.356  33.233  1.00  0.00     0.196 HD
BRANCH  30  32
HETATM   32  O5  UNL     1      25.982  -7.448  33.313  1.00  0.00    -0.288 OA
ATOM     33  H5  UNL     1      26.869  -7.226  33.058  1.00  0.00     0.244 HD
ENDBRANCH  30  32
BRANCH  29  34
HETATM   34  O6  UNL     1      23.665  -7.218  31.683  1.00  0.00    -0.334 OA
BRANCH  34  35
HETATM   35  C17 UNL     1      22.444  -6.646  31.925  1.00  0.00     0.173 C
HETATM   36  C18 UNL     1      21.514  -6.449  30.775  1.00  0.00     0.034 C
ENDBRANCH  34  35
ENDBRANCH  29  34
ENDBRANCH  24  29
BRANCH  25  37
HETATM   37  O7  UNL     1      23.780 -10.422  34.120  1.00  0.00    -0.390 OA
ATOM     38  H7  UNL     1      23.889 -11.197  34.660  1.00  0.00     0.210 HD
ENDBRANCH  25  37
ENDBRANCH  20  21
ENDBRANCH   1  20
TORSDOF 13
ENDMDL