MODEL 4
REMARK VINA RESULT: -7.152119519      2.223      3.627
REMARK  11 active torsions:
REMARK  status: ('A' for Active; 'I' for Inactive)
REMARK    1  A    between atoms: C2_2  and  O1_3
REMARK    2  A    between atoms: O1_3  and  C3_4
REMARK    3  A    between atoms: C6_7  and  C7_8
REMARK    4  A    between atoms: C7_8  and  C8_9
REMARK    5  A    between atoms: C8_9  and  C9_10
REMARK    6  A    between atoms: C13_21  and  C14_23
REMARK    7  A    between atoms: C14_23  and  O4_25
REMARK    8  A    between atoms: C17_28  and  O5_29
REMARK    9  A    between atoms: O5_29  and  C18_30
REMARK   10  A    between atoms: C18_30  and  C19_31
REMARK   11  A    between atoms: C19_31  and  C20_32
ROOT
HETATM    1  C8  UNL     1      24.518 -12.695  27.980  1.00  0.00     0.041 C
ENDROOT
BRANCH   1   2
HETATM    2  C7  UNL     1      24.658 -14.178  27.912  1.00  0.00     0.041 C
BRANCH   2   3
HETATM    3  C6  UNL     1      26.121 -14.531  28.006  1.00  0.00    -0.055 A
HETATM    4  C5  UNL     1      26.621 -15.680  27.439  1.00  0.00     0.010 A
HETATM    5  C4  UNL     1      27.982 -15.978  27.545  1.00  0.00     0.040 A
HETATM    6  C3  UNL     1      28.868 -15.157  28.204  1.00  0.00     0.102 A
HETATM    7  C17 UNL     1      28.351 -13.996  28.775  1.00  0.00     0.102 A
HETATM    8  C16 UNL     1      27.012 -13.725  28.659  1.00  0.00     0.046 A
BRANCH   6   9
HETATM    9  O1  UNL     1      30.212 -15.437  28.315  1.00  0.00    -0.349 OA
BRANCH   9  10
HETATM   10  C2  UNL     1      30.830 -16.460  29.010  1.00  0.00     0.171 C
HETATM   11  C1  UNL     1      30.874 -16.120  30.475  1.00  0.00     0.034 C
ENDBRANCH   9  10
ENDBRANCH   6   9
BRANCH   7  12
HETATM   12  O5  UNL     1      29.250 -13.177  29.436  1.00  0.00    -0.348 OA
BRANCH  12  13
HETATM   13  C18 UNL     1      28.881 -12.242  30.414  1.00  0.00     0.176 C
BRANCH  13  14
HETATM   14  C19 UNL     1      29.654 -10.967  30.230  1.00  0.00     0.035 C
BRANCH  14  15
HETATM   15  C20 UNL     1      29.009  -9.785  30.874  1.00  0.00    -0.050 C
HETATM   16  C21 UNL     1      29.097  -8.533  30.045  1.00  0.00     0.014 C
HETATM   17  C22 UNL     1      27.535 -10.133  31.084  1.00  0.00     0.014 C
HETATM   18  C23 UNL     1      29.665  -9.536  32.204  1.00  0.00     0.014 C
ENDBRANCH  14  15
ENDBRANCH  13  14
ENDBRANCH  12  13
ENDBRANCH   7  12
ENDBRANCH   2   3
ENDBRANCH   1   2
BRANCH   1  19
HETATM   19  C9  UNL     1      24.004 -12.188  29.275  1.00  0.00     0.185 C
HETATM   20  O2  UNL     1      23.410 -13.267  29.988  1.00  0.00    -0.313 OA
HETATM   21  C10 UNL     1      22.556 -13.071  31.050  1.00  0.00     0.214 C
HETATM   22  N1  UNL     1      22.216 -14.064  31.784  1.00  0.00    -0.365 N
HETATM   23  N2  UNL     1      22.081 -11.752  31.291  1.00  0.00    -0.334 N
ATOM     24  H12 UNL     1      22.557 -15.010  31.611  1.00  0.00     0.159 HD
ATOM     25  H11 UNL     1      21.583 -13.919  32.571  1.00  0.00     0.159 HD
HETATM   26  C11 UNL     1      22.763 -10.633  30.691  1.00  0.00     0.139 A
ATOM     27  H2  UNL     1      21.265 -11.598  31.883  1.00  0.00     0.164 HD
HETATM   28  C12 UNL     1      23.964 -10.030  31.417  1.00  0.00     0.123 A
HETATM   29  S1  UNL     1      22.480  -9.037  31.191  1.00  0.00    -0.130 SA
HETATM   30  C13 UNL     1      23.073 -11.031  29.230  1.00  0.00     0.251 C
HETATM   31  F1  UNL     1      21.858 -11.433  28.718  1.00  0.00    -0.225 F
BRANCH  30  32
HETATM   32  C14 UNL     1      23.590  -9.815  28.599  1.00  0.00     0.305 C
HETATM   33  O3  UNL     1      24.775  -9.493  28.429  1.00  0.00    -0.261 OA
BRANCH  32  34
HETATM   34  O4  UNL     1      22.611  -8.912  28.135  1.00  0.00    -0.324 OA
HETATM   35  C15 UNL     1      22.373  -8.707  26.775  1.00  0.00     0.213 C
ENDBRANCH  32  34
ENDBRANCH  30  32
ENDBRANCH   1  19
TORSDOF 11
ENDMDL