MODEL 1
REMARK VINA RESULT: -7.948135928      0.000      0.000
REMARK  13 active torsions:
REMARK  status: ('A' for Active; 'I' for Inactive)
REMARK    1  A    between atoms: C2_2  and  C3_3
REMARK    2  A    between atoms: C3_3  and  C4_4
REMARK    3  A    between atoms: C4_4  and  O1_5
REMARK    4  A    between atoms: O1_5  and  C5_6
REMARK    5  A    between atoms: C5_6  and  C6_8
REMARK    6  A    between atoms: C6_8  and  C7_9
REMARK    7  A    between atoms: C7_9  and  O4_11
REMARK    8  A    between atoms: C11_17  and  O5_18
REMARK    9  A    between atoms: N2_20  and  C12_21
REMARK   10  A    between atoms: C12_21  and  C13_22
REMARK   11  A    between atoms: C13_22  and  C14_23
REMARK   12  A    between atoms: C14_23  and  C15_24
REMARK   13  A    between atoms: C19_30  and  O7_31
ROOT
HETATM    1  C6  UNL     1      21.912 -20.254  39.332  1.00  0.00     0.242 A
HETATM    2  N1  UNL     1      22.661 -19.139  39.767  1.00  0.00    -0.356 N
ATOM      3  H1  UNL     1      23.390 -19.000  40.468  1.00  0.00     0.162 HD
HETATM    4  C9  UNL     1      22.004 -18.292  38.848  1.00  0.00     0.095 A
HETATM    5  C10 UNL     1      21.265 -19.336  38.402  1.00  0.00     0.072 A
HETATM    6  C11 UNL     1      20.424 -18.861  37.407  1.00  0.00     0.156 A
HETATM    7  N2  UNL     1      20.652 -17.547  37.252  1.00  0.00    -0.306 N
HETATM    8  C19 UNL     1      21.609 -17.160  38.114  1.00  0.00     0.172 A
ENDROOT
BRANCH   1   9
HETATM    9  C5  UNL     1      22.695 -21.355  38.693  1.00  0.00     0.302 C
HETATM   10  O2  UNL     1      22.956 -22.344  39.414  1.00  0.00    -0.261 OA
BRANCH   9  11
HETATM   11  O1  UNL     1      23.130 -21.351  37.417  1.00  0.00    -0.319 OA
BRANCH  11  12
HETATM   12  C4  UNL     1      24.175 -20.752  36.783  1.00  0.00     0.178 C
BRANCH  12  13
HETATM   13  C3  UNL     1      24.004 -20.023  35.517  1.00  0.00     0.026 C
BRANCH  13  14
HETATM   14  C2  UNL     1      24.890 -20.279  34.369  1.00  0.00    -0.002 C
HETATM   15  C1  UNL     1      24.216 -19.569  33.155  1.00  0.00     0.005 C
ENDBRANCH  13  14
ENDBRANCH  12  13
ENDBRANCH  11  12
ENDBRANCH   9  11
ENDBRANCH   1   9
BRANCH   1  16
HETATM   16  C7  UNL     1      20.981 -20.768  40.385  1.00  0.00     0.302 C
HETATM   17  O3  UNL     1      21.142 -20.402  41.574  1.00  0.00    -0.261 OA
BRANCH  16  18
HETATM   18  O4  UNL     1      19.941 -21.638  40.106  1.00  0.00    -0.324 OA
HETATM   19  C8  UNL     1      19.396 -22.474  41.131  1.00  0.00     0.213 C
ENDBRANCH  16  18
ENDBRANCH   1  16
BRANCH   6  20
HETATM   20  O5  UNL     1      19.509 -19.651  36.707  1.00  0.00    -0.345 OA
ATOM     21  H5  UNL     1      19.705 -20.511  36.353  1.00  0.00     0.219 HD
ENDBRANCH   6  20
BRANCH   8  22
HETATM   22  O7  UNL     1      22.126 -15.899  38.269  1.00  0.00    -0.344 OA
ATOM     23  H7  UNL     1      21.822 -15.123  37.812  1.00  0.00     0.219 HD
ENDBRANCH   8  22
BRANCH   7  24
HETATM   24  C12 UNL     1      20.000 -16.650  36.324  1.00  0.00     0.133 C
BRANCH  24  25
HETATM   25  C13 UNL     1      20.414 -17.016  34.909  1.00  0.00     0.027 C
BRANCH  25  26
HETATM   26  C14 UNL     1      21.924 -16.936  34.758  1.00  0.00     0.067 C
BRANCH  26  27
HETATM   27  C15 UNL     1      22.335 -15.629  34.185  1.00  0.00     0.054 A
HETATM   28  C16 UNL     1      22.763 -15.478  32.865  1.00  0.00     0.036 A
HETATM   29  C17 UNL     1      23.054 -14.143  32.702  1.00  0.00     0.048 A
HETATM   30  C18 UNL     1      22.790 -13.558  33.919  1.00  0.00     0.121 A
HETATM   31 BR1  UNL     1      23.005 -11.714  34.307  1.00  0.00    -0.023 Br
HETATM   32  O6  UNL     1      22.367 -14.454  34.777  1.00  0.00    -0.308 OA
ENDBRANCH  26  27
ENDBRANCH  25  26
ENDBRANCH  24  25
ENDBRANCH   7  24
TORSDOF 13
ENDMDL