MODEL 2
REMARK VINA RESULT: -6.208780506      2.532      6.552
REMARK  5 active torsions:
REMARK  status: ('A' for Active; 'I' for Inactive)
REMARK    1  A    between atoms: C4_4  and  C5_5
REMARK    2  A    between atoms: C5_5  and  C6_6
REMARK    3  A    between atoms: C15_17  and  C16_18
REMARK    4  A    between atoms: C16_18  and  C17_19
REMARK    5  A    between atoms: C17_19  and  O3_20
ROOT
HETATM    1  C6  UNL     1      -8.316  21.094 -11.872  1.00  0.00     0.108 C
HETATM    2  C7  UNL     1      -8.676  22.386 -11.378  1.00  0.00     0.009 C
HETATM    3  C8  UNL     1      -9.233  22.963 -10.320  1.00  0.00    -0.018 C
HETATM    4  C9  UNL     1      -9.284  24.471 -10.508  1.00  0.00     0.052 C
HETATM    5  C10 UNL     1      -9.809  22.546  -9.047  1.00  0.00     0.159 C
HETATM    6  O1  UNL     1      -9.600  23.255  -8.095  1.00  0.00    -0.292 OA
HETATM    7  C11 UNL     1     -10.657  21.334  -8.709  1.00  0.00     0.119 C
HETATM    8  C12 UNL     1     -10.930  20.650 -10.042  1.00  0.00    -0.053 C
HETATM    9  C13 UNL     1     -10.027  20.163 -10.877  1.00  0.00     0.009 C
HETATM   10  C14 UNL     1      -8.549  20.001 -10.918  1.00  0.00     0.177 C
HETATM   11  O2  UNL     1      -7.645  19.290 -10.432  1.00  0.00    -0.291 OA
HETATM   12  C15 UNL     1     -10.473  20.077 -12.373  1.00  0.00     0.055 C
HETATM   13  C18 UNL     1     -11.034  18.770 -12.456  1.00  0.00     0.023 C
HETATM   14  C19 UNL     1     -11.910  18.400 -11.231  1.00  0.00     0.008 C
HETATM   15  C20 UNL     1     -12.913  19.456 -10.876  1.00  0.00     0.013 C
HETATM   16  C21 UNL     1     -14.303  18.898 -10.574  1.00  0.00     0.018 C
HETATM   17  C22 UNL     1     -15.403  19.653 -11.307  1.00  0.00     0.023 C
HETATM   18  C23 UNL     1     -14.449  17.453 -11.056  1.00  0.00     0.023 C
HETATM   19  C24 UNL     1     -14.553  18.849  -9.120  1.00  0.00     0.135 C
HETATM   20  O4  UNL     1     -15.644  19.010  -8.667  1.00  0.00    -0.297 OA
HETATM   21  C25 UNL     1     -13.333  18.586  -8.331  1.00  0.00     0.080 C
HETATM   22  C26 UNL     1     -12.463  19.793  -8.441  1.00  0.00     0.021 C
HETATM   23  C27 UNL     1     -12.412  20.440  -9.844  1.00  0.00    -0.014 C
HETATM   24  C28 UNL     1     -13.185  21.699  -9.741  1.00  0.00     0.020 C
HETATM   25  C29 UNL     1      -9.095  20.396 -12.944  1.00  0.00     0.160 C
HETATM   26  O5  UNL     1      -8.789  20.097 -14.060  1.00  0.00    -0.295 OA
ENDROOT
BRANCH   1  27
HETATM   27  C5  UNL     1      -6.858  21.106 -12.425  1.00  0.00     0.057 C
BRANCH  27  28
HETATM   28  C4  UNL     1      -6.702  22.336 -13.200  1.00  0.00    -0.023 C
HETATM   29  C2  UNL     1      -6.053  22.384 -14.337  1.00  0.00    -0.091 C
HETATM   30  C1  UNL     1      -5.925  23.655 -15.073  1.00  0.00     0.042 C
HETATM   31  C3  UNL     1      -5.470  21.156 -14.925  1.00  0.00     0.042 C
ENDBRANCH  27  28
ENDBRANCH   1  27
BRANCH  12  32
HETATM   32  C16 UNL     1     -11.204  21.256 -12.902  1.00  0.00     0.048 C
BRANCH  32  33
HETATM   33  C17 UNL     1     -12.069  20.797 -14.102  1.00  0.00     0.165 C
BRANCH  33  34
HETATM   34  O3  UNL     1     -12.332  21.960 -14.879  1.00  0.00    -0.401 OA
ATOM     35  H3  UNL     1     -13.257  21.934 -15.097  1.00  0.00     0.209 HD
ENDBRANCH  33  34
ENDBRANCH  32  33
ENDBRANCH  12  32
TORSDOF 5
ENDMDL