MODEL 4
REMARK VINA RESULT: -6.582544441      6.174     10.718
REMARK  5 active torsions:
REMARK  status: ('A' for Active; 'I' for Inactive)
REMARK    1  A    between atoms: C2_2  and  C3_3
REMARK    2  A    between atoms: C3_3  and  C4_4
REMARK    3  A    between atoms: N1_8  and  C8_9
REMARK    4  A    between atoms: C8_9  and  C9_10
REMARK    5  A    between atoms: C15_18  and  O3_19
ROOT
HETATM    1  C9  UNL     1      -9.660  28.220  -3.116  1.00  0.00     0.131 C
HETATM    2  C10 UNL     1     -10.214  29.466  -3.615  1.00  0.00     0.268 C
HETATM    3  O1  UNL     1     -11.386  29.917  -3.563  1.00  0.00    -0.264 OA
HETATM    4  O2  UNL     1      -9.109  30.127  -4.213  1.00  0.00    -0.314 OA
HETATM    5  C11 UNL     1      -7.952  29.329  -4.059  1.00  0.00     0.150 C
HETATM    6  C12 UNL     1      -8.285  28.704  -2.686  1.00  0.00     0.041 C
HETATM    7  C13 UNL     1      -8.296  29.851  -1.735  1.00  0.00     0.018 C
HETATM    8  C14 UNL     1      -8.735  29.558  -0.344  1.00  0.00     0.013 C
HETATM    9  C15 UNL     1      -6.887  30.395  -1.648  1.00  0.00     0.127 C
HETATM   10  C16 UNL     1      -6.396  30.965  -2.962  1.00  0.00     0.030 C
HETATM   11  C17 UNL     1      -6.924  32.321  -3.249  1.00  0.00     0.017 C
HETATM   12  C18 UNL     1      -5.957  33.395  -3.488  1.00  0.00    -0.047 C
HETATM   13  C19 UNL     1      -6.518  34.309  -4.586  1.00  0.00     0.015 C
HETATM   14  C20 UNL     1      -5.824  34.286  -2.243  1.00  0.00     0.015 C
HETATM   15  C21 UNL     1      -4.577  33.026  -3.893  1.00  0.00     0.012 C
HETATM   16  C22 UNL     1      -4.441  32.316  -5.191  1.00  0.00     0.028 C
HETATM   17  C23 UNL     1      -5.661  31.735  -5.737  1.00  0.00    -0.023 C
HETATM   18  C24 UNL     1      -6.587  30.827  -5.358  1.00  0.00    -0.076 C
HETATM   19  C25 UNL     1      -7.645  30.633  -6.356  1.00  0.00     0.044 C
HETATM   20  C26 UNL     1      -6.674  30.030  -4.115  1.00  0.00     0.012 C
HETATM   21  C27 UNL     1      -5.565  28.983  -4.187  1.00  0.00     0.023 C
ENDROOT
BRANCH   1  22
HETATM   22  C8  UNL     1     -10.377  27.382  -2.184  1.00  0.00     0.082 C
BRANCH  22  23
HETATM   23  N1  UNL     1     -11.763  27.132  -2.506  1.00  0.00    -0.331 N
HETATM   24  C7  UNL     1     -12.896  27.768  -1.863  1.00  0.00     0.131 C
HETATM   25  C6  UNL     1     -13.830  26.617  -1.463  1.00  0.00     0.030 C
HETATM   26  C3  UNL     1     -14.455  25.959  -2.649  1.00  0.00    -0.031 C
HETATM   27  C29 UNL     1     -13.528  25.849  -3.831  1.00  0.00     0.112 C
HETATM   28  C28 UNL     1     -12.139  26.176  -3.524  1.00  0.00     0.224 C
HETATM   29  O4  UNL     1     -11.198  25.622  -4.154  1.00  0.00    -0.273 OA
BRANCH  26  30
HETATM   30  C2  UNL     1     -15.649  26.782  -3.084  1.00  0.00     0.005 C
HETATM   31  C1  UNL     1     -16.893  26.445  -2.310  1.00  0.00     0.006 C
ENDBRANCH  26  30
BRANCH  26  32
HETATM   32  C4  UNL     1     -14.915  24.570  -2.214  1.00  0.00     0.005 C
HETATM   33  C5  UNL     1     -14.700  23.575  -3.311  1.00  0.00     0.006 C
ENDBRANCH  26  32
ENDBRANCH  22  23
ENDBRANCH   1  22
BRANCH   9  34
HETATM   34  O3  UNL     1      -6.720  31.316  -0.647  1.00  0.00    -0.395 OA
ATOM     35  H3  UNL     1      -5.857  31.292  -0.252  1.00  0.00     0.210 HD
ENDBRANCH   9  34
TORSDOF 5
ENDMDL