MODEL 2
REMARK VINA RESULT: -5.903607306      3.559      7.007
REMARK  7 active torsions:
REMARK  status: ('A' for Active; 'I' for Inactive)
REMARK    1  A    between atoms: C2_2  and  C3_3
REMARK    2  A    between atoms: C3_3  and  O2_5
REMARK    3  A    between atoms: O2_5  and  C4_6
REMARK    4  A    between atoms: C6_8  and  O3_9
REMARK    5  A    between atoms: N1_16  and  C12_17
REMARK    6  A    between atoms: C12_17  and  C13_18
REMARK    7  A    between atoms: N2_21  and  O4_22
ROOT
HETATM    1  C4  UNL     1     -15.817  19.078 -11.585  1.00  0.00     0.143 C
HETATM    2  C5  UNL     1     -16.569  19.856 -10.579  1.00  0.00     0.066 C
HETATM    3  C6  UNL     1     -15.683  20.881  -9.997  1.00  0.00     0.129 C
HETATM    4  C7  UNL     1     -14.499  20.113  -9.354  1.00  0.00    -0.008 C
HETATM    5  C8  UNL     1     -15.181  18.915  -8.698  1.00  0.00     0.018 C
HETATM    6  C9  UNL     1     -14.140  20.859  -8.158  1.00  0.00     0.014 C
HETATM    7  C10 UNL     1     -13.203  21.951  -8.017  1.00  0.00     0.029 C
HETATM    8  C11 UNL     1     -11.898  21.586  -7.240  1.00  0.00     0.122 C
HETATM    9  N1  UNL     1     -11.087  22.783  -7.275  1.00  0.00    -0.272 N
HETATM   10  N2  UNL     1     -10.221  23.110  -8.358  1.00  0.00    -0.173 N
HETATM   11  C16 UNL     1     -10.120  22.588  -9.554  1.00  0.00     0.144 C
HETATM   12  C17 UNL     1     -10.978  21.466  -9.995  1.00  0.00     0.026 C
HETATM   13  C18 UNL     1     -11.490  20.470  -9.264  1.00  0.00    -0.059 C
HETATM   14  C19 UNL     1     -11.211  20.383  -7.795  1.00  0.00    -0.001 C
HETATM   15  C20 UNL     1      -9.681  20.438  -7.570  1.00  0.00     0.022 C
HETATM   16  C21 UNL     1     -11.591  19.056  -7.212  1.00  0.00     0.022 C
HETATM   17  C22 UNL     1     -12.191  19.808 -10.373  1.00  0.00    -0.010 A
HETATM   18  C23 UNL     1     -11.221  18.790 -10.869  1.00  0.00     0.021 C
HETATM   19  C24 UNL     1     -12.838  20.837 -11.201  1.00  0.00     0.027 A
HETATM   20  C25 UNL     1     -13.617  19.798 -10.470  1.00  0.00    -0.009 A
HETATM   21  C26 UNL     1     -14.351  18.930 -11.497  1.00  0.00    -0.011 C
HETATM   22  C27 UNL     1     -13.925  19.202 -12.933  1.00  0.00     0.018 C
HETATM   23  C28 UNL     1     -13.954  17.453 -11.294  1.00  0.00     0.018 C
ENDROOT
BRANCH   1  24
HETATM   24  O2  UNL     1     -16.338  19.475 -12.860  1.00  0.00    -0.312 OA
BRANCH  24  25
HETATM   25  C3  UNL     1     -17.682  19.580 -13.153  1.00  0.00     0.282 C
HETATM   26  O1  UNL     1     -18.356  18.494 -13.105  1.00  0.00    -0.260 OA
BRANCH  25  27
HETATM   27  C2  UNL     1     -18.329  20.821 -13.499  1.00  0.00     0.072 C
HETATM   28  C1  UNL     1     -17.641  21.934 -13.584  1.00  0.00     0.017 C
ENDBRANCH  25  27
ENDBRANCH  24  25
ENDBRANCH   1  24
BRANCH   3  29
HETATM   29  O3  UNL     1     -15.335  21.783 -10.938  1.00  0.00    -0.395 OA
ATOM     30  H3  UNL     1     -14.389  21.857 -10.986  1.00  0.00     0.210 HD
ENDBRANCH   3  29
BRANCH   9  31
HETATM   31  C12 UNL     1     -11.109  23.734  -6.243  1.00  0.00     0.115 C
BRANCH  31  32
HETATM   32  C13 UNL     1     -12.313  24.139  -5.532  1.00  0.00    -0.070 C
HETATM   33  C14 UNL     1     -12.622  23.495  -4.212  1.00  0.00     0.044 C
HETATM   34  C15 UNL     1     -12.597  25.615  -5.413  1.00  0.00     0.044 C
ENDBRANCH  31  32
ENDBRANCH   9  31
BRANCH  10  35
HETATM   35  O4  UNL     1      -9.368  24.145  -8.077  1.00  0.00    -0.268 OA
ATOM     36  H4  UNL     1      -8.704  24.277  -8.743  1.00  0.00     0.247 HD
ENDBRANCH  10  35
TORSDOF 7
ENDMDL