MODEL 1
REMARK VINA RESULT: -5.336060497      0.000      0.000
REMARK  5 active torsions:
REMARK  status: ('A' for Active; 'I' for Inactive)
REMARK    1  A    between atoms: C2_2  and  C3_3
REMARK    2  A    between atoms: C9_9  and  O1_10
REMARK    3  A    between atoms: O1_10  and  C10_11
REMARK    4  A    between atoms: C17_21  and  C18_22
REMARK    5  A    between atoms: C24_28  and  C25_29
ROOT
HETATM    1  C3  UNL     1     -10.899  19.070  -8.710  1.00  0.00    -0.026 C
HETATM    2  C4  UNL     1     -11.184  17.731  -9.402  1.00  0.00     0.019 C
HETATM    3  C5  UNL     1     -11.781  20.144  -9.210  1.00  0.00     0.020 C
HETATM    4  C6  UNL     1     -11.211  21.470  -9.448  1.00  0.00     0.023 C
HETATM    5  C7  UNL     1      -9.712  21.534  -9.791  1.00  0.00    -0.001 C
HETATM    6  C8  UNL     1      -9.529  22.775 -10.539  1.00  0.00     0.041 C
HETATM    7  C9  UNL     1     -10.491  23.899 -10.147  1.00  0.00     0.164 C
HETATM    8  C12 UNL     1     -11.026  23.804  -8.779  1.00  0.00     0.184 C
HETATM    9  O3  UNL     1     -10.134  24.202  -7.771  1.00  0.00    -0.345 OA
HETATM   10  C13 UNL     1     -10.661  23.503  -6.659  1.00  0.00     0.158 C
HETATM   11  C14 UNL     1      -9.700  23.537  -5.500  1.00  0.00     0.078 C
HETATM   12  C15 UNL     1     -11.983  24.045  -6.226  1.00  0.00     0.078 C
HETATM   13  O4  UNL     1     -10.738  22.220  -7.198  1.00  0.00    -0.348 OA
HETATM   14  C16 UNL     1     -11.457  22.450  -8.344  1.00  0.00     0.161 C
HETATM   15  C17 UNL     1      -9.294  20.230 -10.216  1.00  0.00    -0.004 C
HETATM   16  C28 UNL     1      -9.420  19.335  -8.957  1.00  0.00     0.018 C
ENDROOT
BRANCH  15  17
HETATM   17  C18 UNL     1      -8.153  19.807 -10.978  1.00  0.00    -0.000 C
HETATM   18  C19 UNL     1      -7.467  18.594 -10.354  1.00  0.00     0.006 C
HETATM   19  C20 UNL     1      -7.595  17.473 -11.324  1.00  0.00     0.010 C
HETATM   20  C21 UNL     1      -8.298  17.963 -12.546  1.00  0.00     0.017 C
HETATM   21  C22 UNL     1      -7.541  17.592 -13.771  1.00  0.00    -0.024 C
HETATM   22  C26 UNL     1      -8.158  19.482 -12.398  1.00  0.00    -0.017 C
HETATM   23  C23 UNL     1      -6.656  18.526 -13.987  1.00  0.00    -0.014 C
HETATM   24  C24 UNL     1      -6.734  19.594 -12.950  1.00  0.00     0.118 C
HETATM   25  C27 UNL     1      -9.066  20.096 -13.356  1.00  0.00     0.017 C
BRANCH  24  26
HETATM   26  C25 UNL     1      -6.390  20.904 -13.472  1.00  0.00     0.181 C
HETATM   27  O5  UNL     1      -6.327  21.953 -12.823  1.00  0.00    -0.647 OA
HETATM   28  O6  UNL     1      -6.098  21.009 -14.844  1.00  0.00    -0.647 OA
ENDBRANCH  24  26
ENDBRANCH  15  17
BRANCH   1  29
HETATM   29  C2  UNL     1     -11.107  18.829  -7.256  1.00  0.00    -0.028 C
HETATM   30  C1  UNL     1     -11.950  17.908  -6.800  1.00  0.00     0.007 C
ENDBRANCH   1  29
BRANCH   7  31
HETATM   31  O1  UNL     1      -9.846  25.103 -10.437  1.00  0.00    -0.314 OA
BRANCH  31  32
HETATM   32  C10 UNL     1      -8.502  25.285 -10.583  1.00  0.00     0.255 C
HETATM   33  C11 UNL     1      -7.825  25.434 -11.909  1.00  0.00     0.126 C
HETATM   34  O2  UNL     1      -7.825  25.327  -9.528  1.00  0.00    -0.266 OA
ENDBRANCH  31  32
ENDBRANCH   7  31
TORSDOF 5
ENDMDL