MODEL 2
REMARK VINA RESULT: -7.058620216      3.298      9.251
REMARK  7 active torsions:
REMARK  status: ('A' for Active; 'I' for Inactive)
REMARK    1  A    between atoms: N1_2  and  C3_4
REMARK    2  A    between atoms: C3_4  and  C4_5
REMARK    3  A    between atoms: N2_6  and  N3_8
REMARK    4  A    between atoms: C5_10  and  N4_11
REMARK    5  A    between atoms: C5_10  and  C23_34
REMARK    6  A    between atoms: N4_11  and  C6_13
REMARK    7  A    between atoms: C9_19  and  C11_21
ROOT
HETATM    1  C6  UNL     1     -11.002  23.995  -5.126  1.00  0.00     0.151 A
HETATM    2  N5  UNL     1     -10.385  24.255  -6.277  1.00  0.00    -0.335 N
ATOM      3  H5  UNL     1      -9.727  25.031  -6.350  1.00  0.00     0.168 HD
HETATM    4  C7  UNL     1     -10.639  23.495  -7.318  1.00  0.00     0.064 A
HETATM    5  C8  UNL     1     -11.528  22.476  -7.150  1.00  0.00     0.053 A
HETATM    6  S1  UNL     1     -11.968  22.649  -5.494  1.00  0.00    -0.053 SA
HETATM    7  C9  UNL     1     -11.953  21.501  -8.207  1.00  0.00     0.127 A
HETATM    8  C10 UNL     1     -11.514  20.124  -7.741  1.00  0.00     0.058 C
HETATM    9  O1  UNL     1     -11.308  21.762  -9.396  1.00  0.00    -0.329 OA
HETATM   10  C17 UNL     1     -10.410  22.759  -9.644  1.00  0.00     0.083 A
HETATM   11  C18 UNL     1      -9.866  22.872 -10.912  1.00  0.00     0.038 A
HETATM   12  C19 UNL     1      -8.964  23.845 -11.225  1.00  0.00     0.003 A
HETATM   13  C20 UNL     1      -8.586  24.746 -10.227  1.00  0.00     0.001 A
HETATM   14  C21 UNL     1      -9.126  24.631  -8.974  1.00  0.00     0.016 A
HETATM   15  C22 UNL     1     -10.038  23.638  -8.679  1.00  0.00     0.025 A
ENDROOT
BRANCH   1  16
HETATM   16  N4  UNL     1     -10.871  24.649  -3.986  1.00  0.00    -0.321 N
ATOM     17  H4  UNL     1     -10.031  24.504  -3.426  1.00  0.00     0.169 HD
BRANCH  16  18
HETATM   18  C5  UNL     1     -11.853  25.536  -3.525  1.00  0.00     0.132 C
HETATM   19  N3  UNL     1     -11.523  26.769  -3.314  1.00  0.00    -0.285 N
ATOM     20  H3  UNL     1     -12.230  27.424  -2.978  1.00  0.00     0.188 HD
BRANCH  19  21
HETATM   21  N2  UNL     1     -10.221  27.227  -3.536  1.00  0.00    -0.312 N
HETATM   22  C4  UNL     1      -9.680  28.126  -2.750  1.00  0.00     0.110 C
ATOM     23  H2  UNL     1      -9.683  26.856  -4.320  1.00  0.00     0.185 HD
BRANCH  22  24
HETATM   24  C3  UNL     1      -8.319  28.629  -2.953  1.00  0.00     0.317 C
BRANCH  24  25
HETATM   25  N1  UNL     1      -8.257  30.090  -2.911  1.00  0.00     0.084 N
HETATM   26  C1  UNL     1      -7.844  30.522  -4.223  1.00  0.00     0.309 C
HETATM   27  C2  UNL     1      -7.297  30.542  -1.924  1.00  0.00     0.309 C
ENDBRANCH  24  25
ENDBRANCH  22  24
ENDBRANCH  19  21
BRANCH  18  28
HETATM   28  C23 UNL     1     -13.235  25.160  -3.263  1.00  0.00     0.009 A
HETATM   29  C24 UNL     1     -13.685  23.863  -3.378  1.00  0.00     0.015 A
HETATM   30  C25 UNL     1     -15.001  23.497  -3.130  1.00  0.00     0.001 A
HETATM   31  C26 UNL     1     -15.867  24.505  -2.756  1.00  0.00     0.000 A
HETATM   32  C27 UNL     1     -15.447  25.810  -2.634  1.00  0.00     0.001 A
HETATM   33  C28 UNL     1     -14.145  26.122  -2.887  1.00  0.00     0.015 A
ENDBRANCH  18  28
ENDBRANCH  16  18
ENDBRANCH   1  16
BRANCH   7  34
HETATM   34  C11 UNL     1     -13.397  21.525  -8.425  1.00  0.00    -0.018 A
HETATM   35  C12 UNL     1     -14.315  21.194  -7.452  1.00  0.00     0.010 A
HETATM   36  C13 UNL     1     -15.684  21.230  -7.703  1.00  0.00     0.001 A
HETATM   37  C14 UNL     1     -16.138  21.606  -8.950  1.00  0.00     0.000 A
HETATM   38  C15 UNL     1     -15.242  21.936  -9.918  1.00  0.00     0.001 A
HETATM   39  C16 UNL     1     -13.881  21.896  -9.659  1.00  0.00     0.010 A
ENDBRANCH   7  34
TORSDOF 7
ENDMDL