MODEL 4
REMARK VINA RESULT: -5.037771829      3.100      8.086
REMARK  5 active torsions:
REMARK  status: ('A' for Active; 'I' for Inactive)
REMARK    1  A    between atoms: C2_2  and  O2_4
REMARK    2  A    between atoms: O2_4  and  C3_5
REMARK    3  A    between atoms: C3_5  and  C4_6
REMARK    4  A    between atoms: C18_21  and  C19_22
REMARK    5  A    between atoms: C26_31  and  N1_32
ROOT
HETATM    1  C4  UNL     1     -10.974  21.255  -9.730  1.00  0.00     0.100 C
HETATM    2  C5  UNL     1     -12.308  21.902  -9.329  1.00  0.00     0.050 C
HETATM    3  O3  UNL     1     -10.797  21.663 -11.070  1.00  0.00    -0.370 OA
HETATM    4  C6  UNL     1      -9.759  20.950 -11.596  1.00  0.00     0.132 C
HETATM    5  C7  UNL     1      -8.839  21.796 -12.485  1.00  0.00     0.042 C
HETATM    6  C8  UNL     1      -8.376  20.936 -13.615  1.00  0.00    -0.033 C
HETATM    7  C9  UNL     1      -8.935  21.579 -14.903  1.00  0.00     0.016 C
HETATM    8  C10 UNL     1      -9.088  19.630 -13.361  1.00  0.00     0.005 C
HETATM    9  C11 UNL     1      -8.332  18.648 -12.556  1.00  0.00     0.007 C
HETATM   10  C12 UNL     1      -6.848  18.769 -12.543  1.00  0.00     0.010 C
HETATM   11  C13 UNL     1      -6.330  19.442 -13.750  1.00  0.00    -0.035 C
HETATM   12  C14 UNL     1      -6.711  18.654 -14.984  1.00  0.00     0.016 C
HETATM   13  C15 UNL     1      -4.874  19.720 -13.773  1.00  0.00     0.012 C
HETATM   14  C16 UNL     1      -4.673  21.201 -13.444  1.00  0.00    -0.008 C
HETATM   15  C17 UNL     1      -3.616  20.797 -12.483  1.00  0.00     0.020 C
HETATM   16  C18 UNL     1      -4.036  19.353 -12.625  1.00  0.00     0.092 C
HETATM   17  C20 UNL     1      -6.037  21.575 -12.843  1.00  0.00     0.011 C
HETATM   18  C21 UNL     1      -6.919  20.832 -13.814  1.00  0.00     0.003 C
HETATM   19  C22 UNL     1     -10.349  19.999 -12.627  1.00  0.00    -0.013 C
HETATM   20  C23 UNL     1     -11.352  20.794 -13.403  1.00  0.00     0.018 C
HETATM   21  C24 UNL     1     -11.068  18.844 -12.002  1.00  0.00     0.014 C
HETATM   22  C25 UNL     1     -11.942  19.249 -10.854  1.00  0.00     0.029 C
HETATM   23  C26 UNL     1     -11.175  19.774  -9.642  1.00  0.00     0.114 C
ENDROOT
BRANCH   1  24
HETATM   24  C3  UNL     1      -9.861  21.856  -8.964  1.00  0.00     0.218 C
BRANCH  24  25
HETATM   25  O2  UNL     1     -10.495  22.852  -8.103  1.00  0.00    -0.319 OA
BRANCH  25  26
HETATM   26  C2  UNL     1     -10.065  23.090  -6.827  1.00  0.00     0.254 C
HETATM   27  C1  UNL     1     -10.973  23.826  -5.892  1.00  0.00     0.126 C
HETATM   28  O1  UNL     1      -8.939  22.687  -6.491  1.00  0.00    -0.266 OA
ENDBRANCH  25  26
ENDBRANCH  24  25
ENDBRANCH   1  24
BRANCH  23  29
HETATM   29  N1  UNL     1     -11.779  19.389  -8.442  1.00  0.00    -0.414 N
HETATM   30  C27 UNL     1     -13.128  19.101  -8.305  1.00  0.00     0.143 C
HETATM   31  C28 UNL     1     -11.000  19.235  -7.276  1.00  0.00     0.143 C
ENDBRANCH  23  29
BRANCH  16  32
HETATM   32  C19 UNL     1      -2.962  18.400 -12.981  1.00  0.00     0.177 C
HETATM   33  O4  UNL     1      -2.726  17.453 -12.199  1.00  0.00    -0.648 OA
HETATM   34  O5  UNL     1      -2.204  18.492 -14.128  1.00  0.00    -0.648 OA
ENDBRANCH  16  32
TORSDOF 5
ENDMDL