MODEL 4
REMARK VINA RESULT: -4.905132180      3.075      7.152
REMARK  5 active torsions:
REMARK  status: ('A' for Active; 'I' for Inactive)
REMARK    1  A    between atoms: C2_2  and  C3_3
REMARK    2  A    between atoms: C9_9  and  O1_10
REMARK    3  A    between atoms: O1_10  and  C10_11
REMARK    4  A    between atoms: C15_17  and  C16_18
REMARK    5  A    between atoms: C24_27  and  O4_28
ROOT
HETATM    1  C3  UNL     1      -6.922  20.153 -14.009  1.00  0.00     0.016 C
HETATM    2  C4  UNL     1      -7.889  19.046 -13.903  1.00  0.00     0.007 C
HETATM    3  C5  UNL     1      -9.218  19.303 -13.312  1.00  0.00     0.010 C
HETATM    4  C6  UNL     1      -9.489  20.464 -12.453  1.00  0.00    -0.031 C
HETATM    5  C7  UNL     1     -10.264  21.506 -13.296  1.00  0.00     0.016 C
HETATM    6  C8  UNL     1      -8.328  21.195 -11.893  1.00  0.00     0.031 C
HETATM    7  C9  UNL     1      -8.737  22.121 -10.729  1.00  0.00     0.137 C
HETATM    8  C12 UNL     1      -9.446  21.274  -9.650  1.00  0.00     0.038 C
HETATM    9  C13 UNL     1     -10.725  20.925 -10.274  1.00  0.00     0.001 C
HETATM   10  C14 UNL     1     -11.802  20.339  -9.471  1.00  0.00     0.006 C
HETATM   11  C15 UNL     1     -11.563  19.608  -8.248  1.00  0.00     0.001 C
HETATM   12  C19 UNL     1     -12.970  19.257  -7.707  1.00  0.00     0.083 C
HETATM   13  C20 UNL     1     -13.716  18.457  -8.680  1.00  0.00     0.128 C
HETATM   14  O3  UNL     1     -14.496  17.610  -8.279  1.00  0.00    -0.298 OA
HETATM   15  C21 UNL     1     -13.556  18.642 -10.141  1.00  0.00     0.090 C
HETATM   16  C22 UNL     1     -12.672  19.751 -10.535  1.00  0.00    -0.007 C
HETATM   17  C23 UNL     1     -13.585  20.829 -11.166  1.00  0.00     0.018 C
HETATM   18  C24 UNL     1     -11.717  19.395 -11.712  1.00  0.00     0.135 C
HETATM   19  C26 UNL     1     -10.430  19.950 -11.378  1.00  0.00     0.028 C
HETATM   20  C27 UNL     1      -7.071  20.565 -11.540  1.00  0.00     0.049 C
HETATM   21  C28 UNL     1      -6.840  19.245 -11.003  1.00  0.00     0.239 C
HETATM   22  N1  UNL     1      -5.848  19.015 -12.073  1.00  0.00    -0.070 N
ATOM     23  H11 UNL     1      -5.902  18.153 -12.615  1.00  0.00     0.277 HD
ATOM     24  H12 UNL     1      -4.881  18.820 -11.812  1.00  0.00     0.277 HD
HETATM   25  C29 UNL     1      -6.150  20.250 -12.717  1.00  0.00     0.196 C
ENDROOT
BRANCH   7  26
HETATM   26  O1  UNL     1      -9.519  23.189 -11.156  1.00  0.00    -0.316 OA
BRANCH  26  27
HETATM   27  C10 UNL     1      -9.267  24.493 -10.753  1.00  0.00     0.255 C
HETATM   28  C11 UNL     1      -8.213  25.345 -11.321  1.00  0.00     0.126 C
HETATM   29  O2  UNL     1     -10.012  24.953  -9.833  1.00  0.00    -0.266 OA
ENDBRANCH  26  27
ENDBRANCH   7  26
BRANCH  18  30
HETATM   30  O4  UNL     1     -12.322  19.647 -12.904  1.00  0.00    -0.389 OA
HETATM   31  C25 UNL     1     -12.619  18.535 -13.668  1.00  0.00     0.202 C
ENDBRANCH  18  30
BRANCH   1  32
HETATM   32  C2  UNL     1      -5.869  19.780 -15.072  1.00  0.00     0.002 C
HETATM   33  C1  UNL     1      -4.718  20.771 -15.014  1.00  0.00     0.005 C
ENDBRANCH   1  32
BRANCH  11  34
HETATM   34  C16 UNL     1     -10.681  18.499  -8.012  1.00  0.00    -0.018 C
HETATM   35  C17 UNL     1     -11.307  17.683  -6.845  1.00  0.00     0.010 C
HETATM   36  C18 UNL     1     -10.404  17.453  -9.027  1.00  0.00     0.010 C
ENDBRANCH  11  34
TORSDOF 5
ENDMDL