MODEL 5
REMARK VINA RESULT: -4.876592395      2.037      4.548
REMARK  6 active torsions:
REMARK  status: ('A' for Active; 'I' for Inactive)
REMARK    1  A    between atoms: C2_2  and  O1_3
REMARK    2  A    between atoms: O1_3  and  C3_4
REMARK    3  A    between atoms: C11_12  and  O2_13
REMARK    4  A    between atoms: O2_13  and  C12_14
REMARK    5  A    between atoms: C18_22  and  C20_24
REMARK    6  A    between atoms: C20_24  and  O5_25
ROOT
HETATM    1  C3  UNL     1     -11.730  23.452  -5.181  1.00  0.00     0.126 C
HETATM    2  C4  UNL     1     -13.040  23.283  -5.917  1.00  0.00     0.066 C
HETATM    3  C5  UNL     1     -12.644  22.562  -7.147  1.00  0.00    -0.072 C
HETATM    4  C6  UNL     1     -13.316  21.708  -7.889  1.00  0.00    -0.023 C
HETATM    5  C7  UNL     1     -12.786  21.051  -9.114  1.00  0.00     0.033 C
HETATM    6  C8  UNL     1     -11.638  21.938  -9.574  1.00  0.00     0.003 C
HETATM    7  C9  UNL     1     -11.190  21.447 -10.890  1.00  0.00    -0.003 C
HETATM    8  C10 UNL     1     -11.407  19.970 -11.135  1.00  0.00     0.039 C
HETATM    9  C11 UNL     1     -11.339  19.823 -12.635  1.00  0.00     0.148 C
HETATM   10  C14 UNL     1     -10.272  20.527 -13.321  1.00  0.00     0.048 C
HETATM   11  C15 UNL     1     -10.847  21.116 -14.635  1.00  0.00     0.026 C
HETATM   12  C16 UNL     1      -9.177  19.640 -13.789  1.00  0.00     0.139 C
HETATM   13  O4  UNL     1      -9.159  18.443 -13.743  1.00  0.00    -0.297 OA
HETATM   14  C17 UNL     1      -8.153  20.584 -14.306  1.00  0.00     0.090 C
HETATM   15  C18 UNL     1      -8.121  21.568 -13.122  1.00  0.00    -0.011 C
HETATM   16  C19 UNL     1      -7.632  22.879 -13.687  1.00  0.00     0.018 C
HETATM   17  C21 UNL     1      -9.538  21.615 -12.636  1.00  0.00     0.019 C
HETATM   18  C22 UNL     1      -9.718  21.670 -11.178  1.00  0.00    -0.004 C
HETATM   19  C23 UNL     1      -9.443  23.019 -10.552  1.00  0.00     0.006 C
HETATM   20  C24 UNL     1      -9.361  22.732  -9.062  1.00  0.00     0.011 C
HETATM   21  C25 UNL     1     -10.607  22.116  -8.507  1.00  0.00    -0.029 C
HETATM   22  C26 UNL     1     -10.226  20.826  -7.815  1.00  0.00     0.016 C
HETATM   23  C27 UNL     1     -11.253  22.985  -7.440  1.00  0.00    -0.011 C
HETATM   24  C28 UNL     1     -11.167  24.453  -7.799  1.00  0.00     0.021 C
HETATM   25  C29 UNL     1     -10.646  22.829  -6.075  1.00  0.00     0.046 C
ENDROOT
BRANCH   9  26
HETATM   26  O2  UNL     1     -11.353  18.445 -12.937  1.00  0.00    -0.315 OA
BRANCH  26  27
HETATM   27  C12 UNL     1     -12.360  17.807 -13.637  1.00  0.00     0.255 C
HETATM   28  C13 UNL     1     -13.676  17.453 -13.057  1.00  0.00     0.126 C
HETATM   29  O3  UNL     1     -12.128  17.516 -14.839  1.00  0.00    -0.266 OA
ENDBRANCH  26  27
ENDBRANCH   9  26
BRANCH  15  30
HETATM   30  C20 UNL     1      -7.130  21.069 -12.135  1.00  0.00     0.173 C
BRANCH  30  31
HETATM   31  O5  UNL     1      -5.809  21.315 -12.537  1.00  0.00    -0.400 OA
ATOM     32  H5  UNL     1      -5.188  21.187 -11.830  1.00  0.00     0.209 HD
ENDBRANCH  30  31
ENDBRANCH  15  30
BRANCH   1  33
HETATM   33  O1  UNL     1     -11.435  24.758  -4.892  1.00  0.00    -0.386 OA
BRANCH  33  34
HETATM   34  C2  UNL     1     -12.335  25.296  -4.010  1.00  0.00     0.163 C
HETATM   35  C1  UNL     1     -12.240  26.790  -3.865  1.00  0.00     0.033 C
ENDBRANCH  33  34
ENDBRANCH   1  33
TORSDOF 6
ENDMDL