MODEL 4
REMARK VINA RESULT: -7.735340020      1.612      2.308
REMARK  14 active torsions:
REMARK  status: ('A' for Active; 'I' for Inactive)
REMARK    1  A    between atoms: C2_2  and  C3_3
REMARK    2  A    between atoms: C3_3  and  C5_5
REMARK    3  A    between atoms: C5_5  and  N1_6
REMARK       I    between atoms: N1_6  and  C6_8
REMARK    4  A    between atoms: C6_8  and  C7_10
REMARK    5  A    between atoms: C7_10  and  C8_11
REMARK    6  A    between atoms: C8_11  and  C9_12
REMARK    7  A    between atoms: N2_15  and  C12_16
REMARK    8  A    between atoms: C15_25  and  N6_26
REMARK    9  A    between atoms: C17_30  and  N7_31
REMARK   10  A    between atoms: N7_31  and  C18_32
REMARK   11  A    between atoms: C18_32  and  C19_33
REMARK   12  A    between atoms: C19_33  and  C20_34
REMARK   13  A    between atoms: C24_40  and  C25_41
REMARK   14  A    between atoms: C25_41  and  O2_42
ROOT
HETATM    1  C12 UNL     1      46.983  19.038  38.313  1.00  0.00     0.684 A
HETATM    2  N3  UNL     1      47.039  18.704  39.630  1.00  0.00    -0.175 N
ATOM      3  H3  UNL     1      46.689  19.346  40.340  1.00  0.00     0.186 HD
HETATM    4  C13 UNL     1      47.560  17.523  39.982  1.00  0.00     0.141 A
HETATM    5  N4  UNL     1      47.589  17.215  41.315  1.00  0.00    -0.337 N
ATOM      6  H4  UNL     1      47.233  17.880  42.003  1.00  0.00     0.168 HD
HETATM    7  C14 UNL     1      48.076  16.059  41.705  1.00  0.00     0.183 A
HETATM    8  N5  UNL     1      48.537  15.200  40.795  1.00  0.00    -0.338 N
ATOM      9  H5  UNL     1      48.913  14.305  41.111  1.00  0.00     0.168 HD
HETATM   10  C15 UNL     1      48.527  15.469  39.456  1.00  0.00     0.118 A
HETATM   11  C16 UNL     1      48.025  16.668  39.027  1.00  0.00     0.111 A
HETATM   12  C17 UNL     1      47.997  16.951  37.653  1.00  0.00     0.210 A
HETATM   13  N8  UNL     1      47.431  18.215  37.399  1.00  0.00    -0.163 N
ATOM     14  H8  UNL     1      47.364  18.513  36.426  1.00  0.00     0.187 HD
ENDROOT
BRANCH   1  15
HETATM   15  N2  UNL     1      46.395  20.287  37.990  1.00  0.00    -0.217 N
HETATM   16  C11 UNL     1      46.999  21.491  38.507  1.00  0.00     0.141 C
HETATM   17  C10 UNL     1      47.252  22.512  37.461  1.00  0.00     0.025 C
HETATM   18  C9  UNL     1      46.603  22.159  36.172  1.00  0.00    -0.005 C
HETATM   19  C24 UNL     1      45.260  21.535  36.238  1.00  0.00     0.032 C
HETATM   20  C23 UNL     1      45.225  20.332  37.158  1.00  0.00     0.148 C
BRANCH  18  21
HETATM   21  C8  UNL     1      46.520  23.463  35.365  1.00  0.00     0.014 C
BRANCH  21  22
HETATM   22  C7  UNL     1      46.687  23.178  33.901  1.00  0.00     0.103 C
BRANCH  22  23
HETATM   23  C6  UNL     1      45.533  23.781  33.161  1.00  0.00     0.221 C
HETATM   24  N1  UNL     1      45.599  25.066  32.604  1.00  0.00    -0.340 N
ATOM     25  H1  UNL     1      46.485  25.540  32.777  1.00  0.00     0.167 HD
HETATM   26  O1  UNL     1      44.503  23.085  33.058  1.00  0.00    -0.273 OA
BRANCH  24  27
HETATM   27  C5  UNL     1      44.692  25.831  31.859  1.00  0.00     0.068 C
BRANCH  27  28
HETATM   28  C3  UNL     1      44.774  25.893  30.376  1.00  0.00     0.019 C
HETATM   29  C4  UNL     1      43.425  26.507  29.933  1.00  0.00     0.015 C
BRANCH  28  30
HETATM   30  C2  UNL     1      45.019  24.616  29.679  1.00  0.00     0.005 C
HETATM   31  C1  UNL     1      45.787  24.855  28.363  1.00  0.00     0.006 C
ENDBRANCH  28  30
ENDBRANCH  27  28
ENDBRANCH  24  27
ENDBRANCH  22  23
ENDBRANCH  21  22
ENDBRANCH  18  21
BRANCH  19  32
HETATM   32  C25 UNL     1      44.139  22.454  36.544  1.00  0.00     0.170 C
BRANCH  32  33
HETATM   33  O2  UNL     1      43.505  22.185  37.737  1.00  0.00    -0.400 OA
ATOM     34  H2  UNL     1      42.632  22.554  37.802  1.00  0.00     0.209 HD
ENDBRANCH  32  33
ENDBRANCH  19  32
ENDBRANCH   1  15
BRANCH  12  35
HETATM   35  N7  UNL     1      48.371  16.302  36.731  1.00  0.00    -0.402 NA
BRANCH  35  36
HETATM   36  C18 UNL     1      48.786  15.579  35.705  1.00  0.00     0.158 C
BRANCH  36  37
HETATM   37  C19 UNL     1      49.659  16.171  34.603  1.00  0.00     0.063 C
BRANCH  37  38
HETATM   38  C20 UNL     1      48.947  16.188  33.301  1.00  0.00    -0.017 C
HETATM   39  C21 UNL     1      49.640  16.962  32.204  1.00  0.00     0.010 C
HETATM   40  C22 UNL     1      47.551  16.800  33.491  1.00  0.00     0.010 C
ENDBRANCH  37  38
ENDBRANCH  36  37
ENDBRANCH  35  36
ENDBRANCH  12  35
BRANCH  10  41
HETATM   41  N6  UNL     1      48.949  14.608  38.626  1.00  0.00    -0.385 N
ATOM     42  H62 UNL     1      48.664  13.631  38.699  1.00  0.00     0.157 HD
ATOM     43  H61 UNL     1      49.598  14.879  37.887  1.00  0.00     0.157 HD
ENDBRANCH  10  41
TORSDOF 14
ENDMDL