MODEL 4
REMARK VINA RESULT: -6.405994118      1.941      6.896
REMARK  13 active torsions:
REMARK  status: ('A' for Active; 'I' for Inactive)
REMARK    1  A    between atoms: C2_2  and  C3_3
REMARK    2  A    between atoms: C3_3  and  N1_4
REMARK    3  A    between atoms: N1_4  and  C4_6
REMARK    4  A    between atoms: C6_9  and  N3_10
REMARK       I    between atoms: N3_10  and  C7_12
REMARK    5  A    between atoms: C12_20  and  C13_21
REMARK       I    between atoms: C13_21  and  N5_23
REMARK    6  A    between atoms: N5_23  and  C14_25
REMARK    7  A    between atoms: C14_25  and  C15_26
REMARK    8  A    between atoms: C15_26  and  C16_27
REMARK    9  A    between atoms: C16_27  and  C17_28
REMARK   10  A    between atoms: N6_30  and  C19_31
REMARK   11  A    between atoms: N7_34  and  C22_35
REMARK   12  A    between atoms: C22_35  and  C23_36
REMARK   13  A    between atoms: C23_36  and  N8_37
ROOT
HETATM    1  C4  UNL     1      47.312  21.464  37.981  1.00  0.00     0.070 A
HETATM    2  C5  UNL     1      46.266  20.592  37.959  1.00  0.00     0.117 A
HETATM    3  N2  UNL     1      45.012  20.986  37.466  1.00  0.00    -0.096 NA
HETATM    4  C6  UNL     1      46.455  19.320  38.424  1.00  0.00     0.136 A
HETATM    5  N4  UNL     1      47.653  18.946  38.894  1.00  0.00    -0.326 N
ATOM      6  H4  UNL     1      47.770  17.992  39.237  1.00  0.00     0.169 HD
HETATM    7  C9  UNL     1      48.729  19.799  38.931  1.00  0.00     0.127 A
HETATM    8  C10 UNL     1      48.547  21.065  38.469  1.00  0.00     0.039 A
HETATM    9  C11 UNL     1      49.740  21.697  38.612  1.00  0.00     0.053 A
HETATM   10  C12 UNL     1      50.673  20.803  39.173  1.00  0.00     0.109 A
HETATM   11  N6  UNL     1      50.031  19.641  39.360  1.00  0.00    -0.297 N
ENDROOT
BRANCH  11  12
HETATM   12  C19 UNL     1      50.488  18.431  39.860  1.00  0.00     0.031 C
HETATM   13  C20 UNL     1      51.380  17.499  39.148  1.00  0.00     0.085 C
HETATM   14  C21 UNL     1      51.229  16.302  40.148  1.00  0.00     0.279 C
HETATM   15  N7  UNL     1      51.089  16.965  41.475  1.00  0.00     0.100 N
HETATM   16  C24 UNL     1      51.109  18.361  41.239  1.00  0.00     0.265 C
HETATM   17  C25 UNL     1      50.511  19.283  42.212  1.00  0.00     0.049 C
BRANCH  15  18
HETATM   18  C22 UNL     1      49.980  16.344  42.080  1.00  0.00     0.300 C
BRANCH  18  19
HETATM   19  C23 UNL     1      48.857  15.872  41.218  1.00  0.00     0.259 C
BRANCH  19  20
HETATM   20  N8  UNL     1      47.667  16.651  41.523  1.00  0.00    -0.078 N
ATOM     21  H83 UNL     1      47.110  16.233  42.269  1.00  0.00     0.274 HD
ATOM     22  H82 UNL     1      47.888  17.532  41.988  1.00  0.00     0.274 HD
ATOM     23  H81 UNL     1      47.131  16.786  40.667  1.00  0.00     0.274 HD
ENDBRANCH  19  20
ENDBRANCH  18  19
ENDBRANCH  15  18
ENDBRANCH  11  12
BRANCH  10  24
HETATM   24  C13 UNL     1      52.036  21.207  39.414  1.00  0.00     0.268 C
HETATM   25  O2  UNL     1      53.002  20.661  38.919  1.00  0.00    -0.266 OA
HETATM   26  N5  UNL     1      52.320  22.309  40.272  1.00  0.00    -0.356 N
ATOM     27  H5  UNL     1      51.538  22.799  40.707  1.00  0.00     0.162 HD
BRANCH  26  28
HETATM   28  C14 UNL     1      53.664  22.764  40.554  1.00  0.00     0.123 C
BRANCH  28  29
HETATM   29  C15 UNL     1      53.922  23.061  42.003  1.00  0.00     0.020 C
BRANCH  29  30
HETATM   30  C16 UNL     1      53.013  24.196  42.421  1.00  0.00     0.001 C
BRANCH  30  31
HETATM   31  C17 UNL     1      52.238  23.937  43.667  1.00  0.00    -0.004 C
HETATM   32  C18 UNL     1      51.728  22.524  43.788  1.00  0.00     0.005 C
ENDBRANCH  30  31
ENDBRANCH  29  30
ENDBRANCH  28  29
ENDBRANCH  26  28
ENDBRANCH  10  24
BRANCH   4  33
HETATM   33  N3  UNL     1      45.477  18.459  38.416  1.00  0.00    -0.312 N
HETATM   34  C7  UNL     1      45.715  17.141  37.989  1.00  0.00     0.219 C
HETATM   35  C8  UNL     1      45.680  16.797  36.548  1.00  0.00     0.117 C
HETATM   36  O1  UNL     1      45.963  16.228  38.845  1.00  0.00    -0.274 OA
ATOM     37  H3  UNL     1      44.543  18.739  38.719  1.00  0.00     0.170 HD
ENDBRANCH   4  33
BRANCH   1  38
HETATM   38  N1  UNL     1      47.129  22.786  37.504  1.00  0.00    -0.384 N
ATOM     39  H1  UNL     1      46.606  23.455  38.070  1.00  0.00     0.160 HD
BRANCH  38  40
HETATM   40  C3  UNL     1      47.668  23.204  36.233  1.00  0.00     0.146 C
BRANCH  40  41
HETATM   41  C2  UNL     1      46.559  23.199  35.241  1.00  0.00    -0.018 C
HETATM   42  C1  UNL     1      46.587  23.979  34.174  1.00  0.00     0.008 C
ENDBRANCH  40  41
ENDBRANCH  38  40
ENDBRANCH   1  38
TORSDOF 13
ENDMDL