MODEL 3
REMARK VINA RESULT: -8.320523118      1.236      1.621
REMARK  13 active torsions:
REMARK  status: ('A' for Active; 'I' for Inactive)
REMARK    1  A    between atoms: C1_2  and  C2_4
REMARK    2  A    between atoms: C2_4  and  C3_5
REMARK    3  A    between atoms: C3_5  and  C4_6
REMARK    4  A    between atoms: C4_6  and  C5_7
REMARK    5  A    between atoms: C5_7  and  C6_8
REMARK    6  A    between atoms: C6_8  and  C7_9
REMARK    7  A    between atoms: C7_9  and  C8_10
REMARK    8  A    between atoms: C8_10  and  N1_11
REMARK    9  A    between atoms: C11_16  and  N3_17
REMARK   10  A    between atoms: N3_17  and  C12_19
REMARK   11  A    between atoms: C12_19  and  C13_20
REMARK   12  A    between atoms: C18_30  and  N6_31
REMARK   13  A    between atoms: N6_31  and  C19_33
ROOT
HETATM    1  N1  UNL     1      45.968  22.875  35.237  1.00  0.00    -0.327 N
HETATM    2  C9  UNL     1      44.675  22.526  35.137  1.00  0.00     0.185 A
HETATM    3  N2  UNL     1      44.315  21.783  36.207  1.00  0.00    -0.346 N
ATOM      4  H2  UNL     1      43.390  21.391  36.381  1.00  0.00     0.167 HD
HETATM    5  C10 UNL     1      45.390  21.654  37.002  1.00  0.00     0.123 A
HETATM    6  C11 UNL     1      45.567  21.002  38.205  1.00  0.00     0.147 A
HETATM    7  N5  UNL     1      46.788  21.061  38.762  1.00  0.00    -0.175 N
ATOM      8  H5  UNL     1      46.951  20.591  39.652  1.00  0.00     0.186 HD
HETATM    9  C18 UNL     1      47.813  21.734  38.168  1.00  0.00     0.681 A
HETATM   10  N8  UNL     1      47.632  22.363  37.002  1.00  0.00    -0.174 N
ATOM     11  H8  UNL     1      48.408  22.864  36.568  1.00  0.00     0.186 HD
HETATM   12  C24 UNL     1      46.418  22.337  36.394  1.00  0.00     0.155 A
ENDROOT
BRANCH   6  13
HETATM   13  N3  UNL     1      44.563  20.384  38.717  1.00  0.00    -0.373 N
ATOM     14  H3  UNL     1      43.904  20.885  39.312  1.00  0.00     0.161 HD
BRANCH  13  15
HETATM   15  C12 UNL     1      44.368  18.976  38.446  1.00  0.00     0.126 C
BRANCH  15  16
HETATM   16  C13 UNL     1      45.682  18.341  38.044  1.00  0.00     0.006 C
HETATM   17  C14 UNL     1      45.513  17.307  36.943  1.00  0.00     0.034 C
HETATM   18  C15 UNL     1      46.940  16.894  36.560  1.00  0.00     0.232 C
HETATM   19  N4  UNL     1      47.578  16.223  37.663  1.00  0.00    -0.075 N
HETATM   20  C16 UNL     1      47.589  16.976  38.887  1.00  0.00     0.232 C
ATOM     21  H42 UNL     1      47.158  15.306  37.813  1.00  0.00     0.277 HD
ATOM     22  H41 UNL     1      48.526  15.942  37.410  1.00  0.00     0.277 HD
HETATM   23  C17 UNL     1      46.248  17.584  39.232  1.00  0.00     0.034 C
ENDBRANCH  15  16
ENDBRANCH  13  15
ENDBRANCH   6  13
BRANCH   9  24
HETATM   24  N6  UNL     1      48.943  21.730  38.780  1.00  0.00    -0.221 N
ATOM     25  H6  UNL     1      49.318  22.634  39.069  1.00  0.00     0.178 HD
BRANCH  24  26
HETATM   26  C19 UNL     1      49.719  20.575  39.090  1.00  0.00     0.102 C
HETATM   27  C20 UNL     1      49.722  20.268  40.584  1.00  0.00     0.053 C
HETATM   28  C21 UNL     1      50.993  19.514  40.939  1.00  0.00     0.234 C
HETATM   29  N7  UNL     1      52.137  20.391  40.883  1.00  0.00    -0.075 N
HETATM   30  C22 UNL     1      51.944  21.397  39.848  1.00  0.00     0.234 C
ATOM     31  H72 UNL     1      52.342  20.810  41.790  1.00  0.00     0.277 HD
ATOM     32  H71 UNL     1      53.008  19.875  40.757  1.00  0.00     0.277 HD
HETATM   33  C23 UNL     1      51.177  20.767  38.702  1.00  0.00     0.053 C
ENDBRANCH  24  26
ENDBRANCH   9  24
BRANCH   1  34
HETATM   34  C8  UNL     1      46.742  23.667  34.299  1.00  0.00     0.131 C
BRANCH  34  35
HETATM   35  C7  UNL     1      45.874  24.846  33.921  1.00  0.00     0.020 C
BRANCH  35  36
HETATM   36  C6  UNL     1      46.159  25.334  32.503  1.00  0.00     0.002 C
BRANCH  36  37
HETATM   37  C5  UNL     1      45.761  24.234  31.566  1.00  0.00     0.000 C
BRANCH  37  38
HETATM   38  C4  UNL     1      45.762  24.680  30.107  1.00  0.00     0.001 C
BRANCH  38  39
HETATM   39  C3  UNL     1      44.378  24.948  29.657  1.00  0.00     0.010 C
BRANCH  39  40
HETATM   40  C2  UNL     1      44.026  26.405  29.647  1.00  0.00     0.113 C
BRANCH  40  41
HETATM   41  C1  UNL     1      42.861  26.681  30.481  1.00  0.00     0.172 C
HETATM   42  O1  UNL     1      41.779  27.067  30.036  1.00  0.00    -0.648 OA
HETATM   43  O2  UNL     1      43.011  26.484  31.865  1.00  0.00    -0.648 OA
ENDBRANCH  40  41
ENDBRANCH  39  40
ENDBRANCH  38  39
ENDBRANCH  37  38
ENDBRANCH  36  37
ENDBRANCH  35  36
ENDBRANCH  34  35
ENDBRANCH   1  34
TORSDOF 13
ENDMDL