MODEL 5
REMARK VINA RESULT: -7.680175796      2.227      3.151
REMARK  12 active torsions:
REMARK  status: ('A' for Active; 'I' for Inactive)
REMARK    1  A    between atoms: C4_5  and  C5_6
REMARK    2  A    between atoms: C5_6  and  C6_7
REMARK    3  A    between atoms: C5_6  and  C9_14
REMARK    4  A    between atoms: C6_7  and  C7_8
REMARK    5  A    between atoms: C7_8  and  C8_9
REMARK    6  A    between atoms: C8_9  and  N1_10
REMARK       I    between atoms: C9_14  and  N2_16
REMARK    7  A    between atoms: N2_16  and  C10_18
REMARK    8  A    between atoms: C10_18  and  C11_19
REMARK    9  A    between atoms: C11_19  and  C12_20
REMARK   10  A    between atoms: C12_20  and  C13_21
REMARK   11  A    between atoms: C13_21  and  C14_22
REMARK   12  A    between atoms: C14_22  and  N3_23
ROOT
HETATM    1  C12 UNL     1      47.287  15.811  35.117  1.00  0.00     0.003 C
ENDROOT
BRANCH   1   2
HETATM    2  C11 UNL     1      46.150  16.821  35.252  1.00  0.00     0.020 C
BRANCH   2   3
HETATM    3  C10 UNL     1      45.827  17.053  36.711  1.00  0.00     0.122 C
BRANCH   3   4
HETATM    4  N2  UNL     1      45.733  18.466  37.036  1.00  0.00    -0.360 N
HETATM    5  C9  UNL     1      44.756  19.020  37.860  1.00  0.00     0.228 C
HETATM    6  O2  UNL     1      43.906  18.201  38.336  1.00  0.00    -0.273 OA
ATOM      7  H2  UNL     1      46.429  19.095  36.634  1.00  0.00     0.162 HD
BRANCH   5   8
HETATM    8  C5  UNL     1      44.593  20.450  38.248  1.00  0.00     0.135 C
BRANCH   8   9
HETATM    9  C4  UNL     1      44.700  21.184  36.905  1.00  0.00     0.066 A
HETATM   10  O1  UNL     1      43.875  20.945  35.926  1.00  0.00    -0.326 OA
HETATM   11  C3  UNL     1      44.175  21.702  34.885  1.00  0.00     0.148 A
HETATM   12  C2  UNL     1      45.252  22.461  35.232  1.00  0.00    -0.037 A
HETATM   13  C1  UNL     1      45.925  23.455  34.373  1.00  0.00     0.050 C
HETATM   14  C26 UNL     1      45.603  22.137  36.534  1.00  0.00     0.042 A
ENDBRANCH   8   9
BRANCH   8  15
HETATM   15  C6  UNL     1      45.678  20.999  39.093  1.00  0.00     0.022 C
BRANCH  15  16
HETATM   16  C7  UNL     1      46.014  20.316  40.363  1.00  0.00     0.028 C
BRANCH  16  17
HETATM   17  C8  UNL     1      47.455  19.920  40.546  1.00  0.00     0.229 C
BRANCH  17  18
HETATM   18  N1  UNL     1      48.350  20.919  40.977  1.00  0.00    -0.079 N
ATOM     19  H13 UNL     1      47.880  21.824  40.963  1.00  0.00     0.274 HD
ATOM     20  H12 UNL     1      48.523  20.811  41.976  1.00  0.00     0.274 HD
ATOM     21  H11 UNL     1      49.241  20.993  40.485  1.00  0.00     0.274 HD
ENDBRANCH  17  18
ENDBRANCH  16  17
ENDBRANCH  15  16
ENDBRANCH   8  15
ENDBRANCH   5   8
ENDBRANCH   3   4
ENDBRANCH   2   3
ENDBRANCH   1   2
BRANCH   1  22
HETATM   22  C13 UNL     1      48.581  16.430  34.674  1.00  0.00     0.030 C
BRANCH  22  23
HETATM   23  C14 UNL     1      49.690  15.425  34.550  1.00  0.00     0.272 C
BRANCH  23  24
HETATM   24  N3  UNL     1      50.077  15.194  33.177  1.00  0.00     0.088 N
HETATM   25  C15 UNL     1      49.795  13.858  32.746  1.00  0.00     0.274 C
HETATM   26  C16 UNL     1      48.385  13.527  32.418  1.00  0.00     0.049 C
HETATM   27  C17 UNL     1      48.260  12.013  32.173  1.00  0.00     0.115 C
HETATM   28  N4  UNL     1      48.508  11.652  30.812  1.00  0.00    -0.421 N
HETATM   29  C18 UNL     1      49.717  10.932  30.564  1.00  0.00     0.115 C
ATOM     30  H4  UNL     1      47.860  11.893  30.062  1.00  0.00     0.153 HD
HETATM   31  C19 UNL     1      50.625  11.510  29.534  1.00  0.00     0.046 C
HETATM   32  C20 UNL     1      50.082  11.579  28.149  1.00  0.00     0.234 C
HETATM   33  N5  UNL     1      49.368  12.807  27.863  1.00  0.00    -0.074 N
HETATM   34  C21 UNL     1      50.141  13.786  27.162  1.00  0.00     0.251 C
ATOM     35  H52 UNL     1      48.503  12.607  27.360  1.00  0.00     0.277 HD
ATOM     36  H51 UNL     1      48.983  13.204  28.720  1.00  0.00     0.277 HD
HETATM   37  C22 UNL     1      50.582  14.945  28.044  1.00  0.00     0.141 C
HETATM   38  N6  UNL     1      49.557  15.173  29.006  1.00  0.00    -0.420 N
HETATM   39  C23 UNL     1      49.645  16.369  29.774  1.00  0.00     0.115 C
ATOM     40  H6  UNL     1      48.793  14.510  29.139  1.00  0.00     0.153 HD
HETATM   41  C24 UNL     1      50.493  16.252  30.998  1.00  0.00     0.049 C
HETATM   42  C25 UNL     1      49.601  16.191  32.249  1.00  0.00     0.274 C
ENDBRANCH  23  24
ENDBRANCH  22  23
ENDBRANCH   1  22
TORSDOF 12
ENDMDL