MODEL 4
REMARK VINA RESULT: -7.318027795      4.406      5.973
REMARK  13 active torsions:
REMARK  status: ('A' for Active; 'I' for Inactive)
REMARK    1  A    between atoms: O1_2  and  N1_3
REMARK    2  A    between atoms: C4_6  and  N2_7
REMARK    3  A    between atoms: C9_17  and  N5_18
REMARK    4  A    between atoms: N5_18  and  C10_20
REMARK    5  A    between atoms: C10_20  and  C11_21
REMARK    6  A    between atoms: C11_21  and  C12_22
REMARK    7  A    between atoms: C12_22  and  C13_23
REMARK    8  A    between atoms: C13_23  and  C14_24
REMARK    9  A    between atoms: C14_24  and  C15_25
REMARK   10  A    between atoms: C15_25  and  C16_26
REMARK   11  A    between atoms: C16_26  and  N6_27
REMARK   12  A    between atoms: N6_27  and  C17_29
REMARK   13  A    between atoms: C23_37  and  N8_38
ROOT
HETATM    1  N2  UNL     1      48.850  19.220  39.961  1.00  0.00    -0.350 N
HETATM    2  C5  UNL     1      50.125  19.558  40.571  1.00  0.00     0.228 C
HETATM    3  C6  UNL     1      50.851  20.446  39.592  1.00  0.00     0.240 C
HETATM    4  O2  UNL     1      52.042  20.213  39.249  1.00  0.00    -0.271 OA
HETATM    5  N3  UNL     1      50.150  21.547  39.074  1.00  0.00    -0.320 N
ATOM      6  H3  UNL     1      50.651  22.376  38.758  1.00  0.00     0.169 HD
HETATM    7  C7  UNL     1      48.728  21.489  38.993  1.00  0.00     0.124 A
HETATM    8  C8  UNL     1      48.113  20.327  39.440  1.00  0.00     0.150 A
HETATM    9  N4  UNL     1      46.763  20.301  39.351  1.00  0.00    -0.174 N
ATOM     10  H4  UNL     1      46.263  19.469  39.667  1.00  0.00     0.186 HD
HETATM   11  C9  UNL     1      46.058  21.337  38.861  1.00  0.00     0.681 A
HETATM   12  N7  UNL     1      46.675  22.466  38.429  1.00  0.00    -0.175 N
ATOM     13  H7  UNL     1      46.123  23.241  38.061  1.00  0.00     0.186 HD
HETATM   14  C23 UNL     1      48.013  22.563  38.486  1.00  0.00     0.145 A
ENDROOT
BRANCH  11  15
HETATM   15  N5  UNL     1      44.773  21.313  38.776  1.00  0.00    -0.226 N
ATOM     16  H5  UNL     1      44.222  21.954  39.348  1.00  0.00     0.177 HD
BRANCH  15  17
HETATM   17  C10 UNL     1      44.102  20.407  37.895  1.00  0.00     0.138 C
BRANCH  17  18
HETATM   18  C11 UNL     1      44.528  20.567  36.460  1.00  0.00     0.020 C
BRANCH  18  19
HETATM   19  C12 UNL     1      44.246  21.916  35.889  1.00  0.00     0.002 C
BRANCH  19  20
HETATM   20  C13 UNL     1      44.192  21.966  34.391  1.00  0.00     0.000 C
BRANCH  20  21
HETATM   21  C14 UNL     1      45.580  22.316  33.893  1.00  0.00     0.002 C
BRANCH  21  22
HETATM   22  C15 UNL     1      46.278  23.295  34.780  1.00  0.00     0.019 C
BRANCH  22  23
HETATM   23  C16 UNL     1      46.709  24.524  33.997  1.00  0.00     0.114 C
BRANCH  23  24
HETATM   24  N6  UNL     1      45.558  25.348  33.797  1.00  0.00    -0.417 N
ATOM     25  H6  UNL     1      44.927  25.599  34.560  1.00  0.00     0.153 HD
BRANCH  24  26
HETATM   26  C17 UNL     1      45.351  25.796  32.458  1.00  0.00     0.076 C
HETATM   27  C18 UNL     1      45.946  24.938  31.391  1.00  0.00     0.024 C
HETATM   28  C19 UNL     1      44.914  24.598  30.313  1.00  0.00     0.002 C
HETATM   29  C20 UNL     1      44.281  25.857  29.754  1.00  0.00     0.000 C
HETATM   30  C21 UNL     1      43.887  26.838  30.818  1.00  0.00     0.002 C
HETATM   31  C22 UNL     1      43.896  26.078  32.149  1.00  0.00     0.024 C
ENDBRANCH  24  26
ENDBRANCH  23  24
ENDBRANCH  22  23
ENDBRANCH  21  22
ENDBRANCH  20  21
ENDBRANCH  19  20
ENDBRANCH  18  19
ENDBRANCH  17  18
ENDBRANCH  15  17
ENDBRANCH  11  15
BRANCH  14  32
HETATM   32  N8  UNL     1      48.653  23.611  38.091  1.00  0.00    -0.383 N
ATOM     33  H82 UNL     1      49.449  23.563  37.455  1.00  0.00     0.157 HD
ATOM     34  H81 UNL     1      48.355  24.528  38.422  1.00  0.00     0.157 HD
ENDBRANCH  14  32
BRANCH   1  35
HETATM   35  C4  UNL     1      48.318  17.905  39.866  1.00  0.00     0.103 C
HETATM   36  C3  UNL     1      47.304  17.582  40.936  1.00  0.00     0.043 C
HETATM   37  C2  UNL     1      47.410  16.049  40.941  1.00  0.00     0.122 C
HETATM   38  N1  UNL     1      48.845  15.916  41.093  1.00  0.00    -0.196 NA
HETATM   39  C24 UNL     1      49.353  16.821  40.089  1.00  0.00     0.145 C
BRANCH  38  40
HETATM   40  O1  UNL     1      49.156  16.241  42.346  1.00  0.00    -0.308 OA
HETATM   41  C1  UNL     1      50.525  16.362  42.564  1.00  0.00     0.229 C
ENDBRANCH  38  40
ENDBRANCH   1  35
TORSDOF 13
ENDMDL