MODEL 4
REMARK VINA RESULT: -7.763087155      2.215      4.460
REMARK  13 active torsions:
REMARK  status: ('A' for Active; 'I' for Inactive)
REMARK    1  A    between atoms: C4_4  and  N1_5
REMARK    2  A    between atoms: C7_8  and  N2_9
REMARK    3  A    between atoms: C7_8  and  C8_13
REMARK    4  A    between atoms: C8_13  and  N3_14
REMARK       I    between atoms: N3_14  and  C9_16
REMARK    5  A    between atoms: C9_16  and  C10_18
REMARK    6  A    between atoms: C10_18  and  N4_19
REMARK    7  A    between atoms: N4_19  and  C11_22
REMARK    8  A    between atoms: C11_22  and  C12_23
REMARK    9  A    between atoms: C12_23  and  N5_24
REMARK   10  A    between atoms: N5_24  and  C13_27
REMARK   11  A    between atoms: C13_27  and  C14_28
REMARK   12  A    between atoms: C14_28  and  O2_29
REMARK   13  A    between atoms: C17_33  and  C18_34
ROOT
HETATM    1  N1  UNL     1      48.694  19.998  38.590  1.00  0.00    -0.380 N
HETATM    2  C5  UNL     1      47.709  19.061  38.070  1.00  0.00     0.126 C
HETATM    3  C6  UNL     1      46.333  19.543  38.237  1.00  0.00     0.064 C
HETATM    4  C7  UNL     1      46.125  21.052  38.372  1.00  0.00     0.158 C
HETATM    5  C15 UNL     1      47.203  21.796  37.737  1.00  0.00     0.064 C
HETATM    6  C16 UNL     1      48.602  21.316  37.997  1.00  0.00     0.126 C
ENDROOT
BRANCH   4   7
HETATM    7  N2  UNL     1      45.948  21.370  39.809  1.00  0.00    -0.066 N
ATOM      8  H23 UNL     1      45.369  20.685  40.294  1.00  0.00     0.275 HD
ATOM      9  H22 UNL     1      46.803  21.236  40.349  1.00  0.00     0.275 HD
ATOM     10  H21 UNL     1      45.581  22.319  39.884  1.00  0.00     0.275 HD
ENDBRANCH   4   7
BRANCH   4  11
HETATM   11  C8  UNL     1      44.768  21.345  37.781  1.00  0.00     0.102 C
BRANCH  11  12
HETATM   12  N3  UNL     1      44.694  22.061  36.591  1.00  0.00    -0.337 N
HETATM   13  C9  UNL     1      44.556  21.745  35.225  1.00  0.00     0.247 C
HETATM   14  O1  UNL     1      44.453  20.630  34.727  1.00  0.00    -0.271 OA
ATOM     15  H3  UNL     1      44.756  23.068  36.746  1.00  0.00     0.168 HD
BRANCH  13  16
HETATM   16  C10 UNL     1      44.530  22.902  34.245  1.00  0.00     0.335 C
BRANCH  16  17
HETATM   17  N4  UNL     1      45.486  23.898  34.568  1.00  0.00    -0.065 N
ATOM     18  H42 UNL     1      45.093  24.707  35.050  1.00  0.00     0.277 HD
ATOM     19  H41 UNL     1      46.134  23.626  35.307  1.00  0.00     0.277 HD
BRANCH  17  20
HETATM   20  C11 UNL     1      46.143  24.226  33.286  1.00  0.00     0.260 C
BRANCH  20  21
HETATM   21  C12 UNL     1      45.603  25.503  32.765  1.00  0.00     0.259 C
BRANCH  21  22
HETATM   22  N5  UNL     1      45.003  25.471  31.478  1.00  0.00    -0.072 N
ATOM     23  H52 UNL     1      45.714  25.461  30.746  1.00  0.00     0.277 HD
ATOM     24  H51 UNL     1      44.569  24.565  31.303  1.00  0.00     0.277 HD
BRANCH  22  25
HETATM   25  C13 UNL     1      44.051  26.552  31.262  1.00  0.00     0.258 C
BRANCH  25  26
HETATM   26  C14 UNL     1      43.492  26.556  29.866  1.00  0.00     0.191 C
BRANCH  26  27
HETATM   27  O2  UNL     1      42.091  26.592  30.014  1.00  0.00    -0.399 OA
ATOM     28  H2  UNL     1      41.816  25.685  30.088  1.00  0.00     0.209 HD
ENDBRANCH  26  27
ENDBRANCH  25  26
ENDBRANCH  22  25
ENDBRANCH  21  22
ENDBRANCH  20  21
ENDBRANCH  17  20
ENDBRANCH  16  17
ENDBRANCH  13  16
ENDBRANCH  11  12
ENDBRANCH   4  11
BRANCH   1  29
HETATM   29  C4  UNL     1      49.626  19.733  39.628  1.00  0.00     0.044 A
HETATM   30  C3  UNL     1      50.593  20.711  39.852  1.00  0.00     0.054 A
HETATM   31  C2  UNL     1      51.461  20.572  40.887  1.00  0.00     0.007 A
HETATM   32  C1  UNL     1      52.513  21.604  41.171  1.00  0.00     0.068 C
HETATM   33  N6  UNL     1      51.361  19.504  41.648  1.00  0.00    -0.363 N
HETATM   34  C26 UNL     1      50.404  18.508  41.442  1.00  0.00     0.018 A
ATOM     35  H6  UNL     1      52.013  19.398  42.425  1.00  0.00     0.165 HD
HETATM   36  C17 UNL     1      49.500  18.590  40.422  1.00  0.00     0.019 A
HETATM   37  C27 UNL     1      50.518  17.334  42.296  1.00  0.00     0.069 C
BRANCH  36  38
HETATM   38  C18 UNL     1      48.597  17.446  40.058  1.00  0.00    -0.048 C
HETATM   39  C19 UNL     1      47.577  17.068  41.019  1.00  0.00    -0.019 C
HETATM   40  C20 UNL     1      47.262  15.835  41.671  1.00  0.00     0.027 C
HETATM   41  C21 UNL     1      46.560  14.728  40.955  1.00  0.00     0.004 C
HETATM   42  C22 UNL     1      46.311  14.894  39.492  1.00  0.00     0.000 C
HETATM   43  C23 UNL     1      47.519  14.879  38.622  1.00  0.00     0.000 C
HETATM   44  C24 UNL     1      48.816  14.977  39.362  1.00  0.00     0.005 C
HETATM   45  C25 UNL     1      49.396  16.344  39.392  1.00  0.00     0.039 C
ENDBRANCH  36  38
ENDBRANCH   1  29
TORSDOF 13
ENDMDL