MODEL 5
REMARK VINA RESULT: -7.747645675      1.886      2.312
REMARK  14 active torsions:
REMARK  status: ('A' for Active; 'I' for Inactive)
REMARK    1  A    between atoms: C2_2  and  N1_3
REMARK       I    between atoms: N1_3  and  C3_5
REMARK    2  A    between atoms: C3_5  and  C4_7
REMARK    3  A    between atoms: C5_11  and  C6_12
REMARK    4  A    between atoms: C6_12  and  C7_13
REMARK    5  A    between atoms: C7_13  and  C8_14
REMARK    6  A    between atoms: C14_20  and  O2_21
REMARK    7  A    between atoms: C15_23  and  C16_24
REMARK    8  A    between atoms: C16_24  and  O3_25
REMARK    9  A    between atoms: C16_24  and  C17_27
REMARK   10  A    between atoms: C17_27  and  C18_28
REMARK   11  A    between atoms: C18_28  and  C20_30
REMARK   12  A    between atoms: C18_28  and  C21_32
REMARK   13  A    between atoms: C21_32  and  S1_33
REMARK   14  A    between atoms: S1_33  and  C22_34
ROOT
HETATM    1  C4  UNL     1      45.285  21.449  38.775  1.00  0.00     0.286 C
HETATM    2  N2  UNL     1      46.225  21.870  37.668  1.00  0.00    -0.055 N
ATOM      3  H21 UNL     1      46.930  21.186  37.392  1.00  0.00     0.278 HD
ATOM      4  H22 UNL     1      46.907  22.590  37.906  1.00  0.00     0.278 HD
HETATM    5  C5  UNL     1      45.230  22.232  36.636  1.00  0.00     0.216 C
HETATM    6  C14 UNL     1      44.530  20.879  36.571  1.00  0.00     0.157 C
HETATM    7  C15 UNL     1      44.400  20.453  38.009  1.00  0.00     0.085 C
ENDROOT
BRANCH   7   8
HETATM    8  C16 UNL     1      44.726  19.049  38.258  1.00  0.00     0.128 C
BRANCH   8   9
HETATM    9  O3  UNL     1      43.377  18.446  38.331  1.00  0.00    -0.395 OA
ATOM     10  H3  UNL     1      43.196  18.507  39.262  1.00  0.00     0.210 HD
ENDBRANCH   8   9
BRANCH   8  11
HETATM   11  C17 UNL     1      45.576  18.142  37.562  1.00  0.00     0.049 C
BRANCH  11  12
HETATM   12  C18 UNL     1      46.787  17.417  38.016  1.00  0.00     0.020 C
HETATM   13  C19 UNL     1      46.640  17.340  39.560  1.00  0.00     0.023 C
BRANCH  12  14
HETATM   14  C20 UNL     1      48.073  18.053  37.732  1.00  0.00     0.241 C
HETATM   15  O4  UNL     1      48.137  19.246  37.522  1.00  0.00    -0.306 OA
ENDBRANCH  12  14
BRANCH  12  16
HETATM   16  C21 UNL     1      46.732  15.950  37.565  1.00  0.00     0.097 C
BRANCH  16  17
HETATM   17  S1  UNL     1      47.243  14.714  38.606  1.00  0.00    -0.102 SA
BRANCH  17  18
HETATM   18  C22 UNL     1      48.772  14.377  39.242  1.00  0.00     0.149 C
HETATM   19  N3  UNL     1      48.889  13.203  40.139  1.00  0.00    -0.082 NA
HETATM   20  S2  UNL     1      50.230  15.127  39.089  1.00  0.00    -0.056 SA
ENDBRANCH  17  18
ENDBRANCH  16  17
ENDBRANCH  12  16
ENDBRANCH  11  12
ENDBRANCH   8  11
ENDBRANCH   7   8
BRANCH   1  21
HETATM   21  C3  UNL     1      46.141  20.977  39.818  1.00  0.00     0.249 C
HETATM   22  N1  UNL     1      47.606  21.015  39.636  1.00  0.00    -0.360 N
ATOM     23  H1  UNL     1      48.056  21.371  38.793  1.00  0.00     0.162 HD
HETATM   24  O1  UNL     1      45.842  20.487  40.925  1.00  0.00    -0.271 OA
BRANCH  22  25
HETATM   25  C2  UNL     1      48.330  20.504  40.754  1.00  0.00     0.118 C
HETATM   26  C1  UNL     1      49.751  20.133  40.461  1.00  0.00     0.026 C
ENDBRANCH  22  25
ENDBRANCH   1  21
BRANCH   6  27
HETATM   27  O2  UNL     1      43.386  21.020  35.845  1.00  0.00    -0.393 OA
ATOM     28  H2  UNL     1      42.703  20.504  36.257  1.00  0.00     0.210 HD
ENDBRANCH   6  27
BRANCH   5  29
HETATM   29  C6  UNL     1      46.021  22.510  35.362  1.00  0.00     0.036 C
BRANCH  29  30
HETATM   30  C7  UNL     1      45.277  23.284  34.335  1.00  0.00     0.007 C
BRANCH  30  31
HETATM   31  C8  UNL     1      46.199  24.206  33.561  1.00  0.00    -0.014 C
HETATM   32  C9  UNL     1      46.617  23.580  32.277  1.00  0.00     0.004 C
HETATM   33  C10 UNL     1      45.610  23.863  31.175  1.00  0.00     0.000 C
HETATM   34  C11 UNL     1      45.392  25.370  31.038  1.00  0.00     0.000 C
HETATM   35  C12 UNL     1      44.816  25.877  32.329  1.00  0.00     0.000 C
HETATM   36  C13 UNL     1      45.763  25.619  33.451  1.00  0.00     0.004 C
ENDBRANCH  30  31
ENDBRANCH  29  30
ENDBRANCH   5  29
TORSDOF 14
ENDMDL