MODEL 2
REMARK VINA RESULT: -7.660011771      1.655      4.177
REMARK  13 active torsions:
REMARK  status: ('A' for Active; 'I' for Inactive)
REMARK    1  A    between atoms: C2_2  and  C3_3
REMARK    2  A    between atoms: C2_2  and  C12_26
REMARK    3  A    between atoms: C3_3  and  C4_4
REMARK       I    between atoms: C4_4  and  N1_6
REMARK    4  A    between atoms: N1_6  and  C5_7
REMARK    5  A    between atoms: C5_7  and  C8_10
REMARK    6  A    between atoms: C8_10  and  O2_11
REMARK    7  A    between atoms: C8_10  and  C9_13
REMARK    8  A    between atoms: C10_16  and  N3_17
REMARK    9  A    between atoms: C13_27  and  C14_28
REMARK   10  A    between atoms: C15_29  and  C16_30
REMARK   11  A    between atoms: C16_30  and  C17_31
REMARK   12  A    between atoms: C17_31  and  C18_32
REMARK   13  A    between atoms: C18_32  and  C19_33
ROOT
HETATM    1  C4  UNL     1      46.091  17.951  36.879  1.00  0.00     0.291 C
HETATM    2  O1  UNL     1      45.541  18.000  35.706  1.00  0.00    -0.257 OA
HETATM    3  N1  UNL     1      46.280  18.956  37.686  1.00  0.00    -0.401 NA
ENDROOT
BRANCH   1   4
HETATM    4  C3  UNL     1      46.526  16.530  37.295  1.00  0.00     0.157 C
BRANCH   4   5
HETATM    5  C2  UNL     1      47.923  16.271  36.749  1.00  0.00    -0.051 C
HETATM    6  C1  UNL     1      48.834  16.961  37.401  1.00  0.00     0.020 C
BRANCH   5   7
HETATM    7  C12 UNL     1      48.009  15.307  35.683  1.00  0.00    -0.023 C
HETATM    8  C13 UNL     1      48.434  13.926  35.847  1.00  0.00     0.140 C
HETATM    9  C21 UNL     1      49.359  13.613  34.678  1.00  0.00     0.272 C
HETATM   10  O4  UNL     1      50.309  12.791  34.633  1.00  0.00    -0.264 OA
HETATM   11  O5  UNL     1      48.886  14.460  33.700  1.00  0.00    -0.305 OA
HETATM   12  C22 UNL     1      48.713  15.740  34.403  1.00  0.00     0.088 C
HETATM   13  C23 UNL     1      47.848  16.521  33.466  1.00  0.00     0.051 C
HETATM   14  C24 UNL     1      50.104  16.232  34.573  1.00  0.00     0.051 C
BRANCH   8  15
HETATM   15  C14 UNL     1      49.129  13.437  37.012  1.00  0.00    -0.012 C
HETATM   16  C15 UNL     1      48.621  13.046  38.181  1.00  0.00    -0.029 C
BRANCH  16  17
HETATM   17  C16 UNL     1      47.238  13.002  38.591  1.00  0.00     0.027 C
BRANCH  17  18
HETATM   18  C17 UNL     1      46.723  13.852  39.676  1.00  0.00     0.004 C
BRANCH  18  19
HETATM   19  C18 UNL     1      47.618  14.607  40.577  1.00  0.00    -0.000 C
BRANCH  19  20
HETATM   20  C19 UNL     1      47.166  15.997  40.865  1.00  0.00    -0.005 C
HETATM   21  C20 UNL     1      48.367  16.917  41.129  1.00  0.00     0.005 C
ENDBRANCH  19  20
ENDBRANCH  18  19
ENDBRANCH  17  18
ENDBRANCH  16  17
ENDBRANCH   8  15
ENDBRANCH   5   7
ENDBRANCH   4   5
ENDBRANCH   1   4
BRANCH   3  22
HETATM   22  C5  UNL     1      46.489  20.059  38.575  1.00  0.00     0.122 C
HETATM   23  C6  UNL     1      47.903  20.616  38.552  1.00  0.00     0.057 C
HETATM   24  C7  UNL     1      46.226  19.638  40.014  1.00  0.00     0.057 C
BRANCH  22  25
HETATM   25  C8  UNL     1      45.545  21.234  38.294  1.00  0.00     0.227 C
BRANCH  25  26
HETATM   26  O2  UNL     1      45.729  22.220  39.268  1.00  0.00    -0.384 OA
ATOM     27  H2  UNL     1      45.621  23.076  38.873  1.00  0.00     0.210 HD
ENDBRANCH  25  26
BRANCH  25  28
HETATM   28  C9  UNL     1      45.566  21.719  36.931  1.00  0.00     0.134 A
HETATM   29  N2  UNL     1      46.245  22.779  36.502  1.00  0.00    -0.178 N
HETATM   30  C10 UNL     1      46.217  23.216  35.242  1.00  0.00     0.681 A
ATOM     31  H2  UNL     1      46.820  23.285  37.175  1.00  0.00     0.185 HD
HETATM   32  N4  UNL     1      45.477  22.585  34.324  1.00  0.00    -0.141 N
HETATM   33  C11 UNL     1      44.773  21.512  34.707  1.00  0.00     0.340 A
ATOM     34  H4  UNL     1      45.450  22.912  33.358  1.00  0.00     0.189 HD
HETATM   35  O3  UNL     1      44.076  20.923  33.831  1.00  0.00    -0.246 OA
HETATM   36  N5  UNL     1      44.814  21.087  35.978  1.00  0.00    -0.295 N
ATOM     37  H5  UNL     1      44.269  20.267  36.243  1.00  0.00     0.172 HD
BRANCH  30  38
HETATM   38  N3  UNL     1      46.905  24.245  34.901  1.00  0.00    -0.234 N
ATOM     39  H32 UNL     1      47.592  24.628  35.550  1.00  0.00     0.174 HD
ATOM     40  H31 UNL     1      46.761  24.679  33.989  1.00  0.00     0.174 HD
ENDBRANCH  30  38
ENDBRANCH  25  28
ENDBRANCH  22  25
ENDBRANCH   3  22
TORSDOF 13
ENDMDL