MODEL 5
REMARK VINA RESULT: -7.202974063      4.646      9.690
REMARK  16 active torsions:
REMARK  status: ('A' for Active; 'I' for Inactive)
REMARK    1  A    between atoms: C2_2  and  C3_3
REMARK    2  A    between atoms: C7_7  and  N1_8
REMARK    3  A    between atoms: N1_8  and  C8_10
REMARK    4  A    between atoms: C9_13  and  N3_14
REMARK    5  A    between atoms: N3_14  and  C10_16
REMARK    6  A    between atoms: C10_16  and  C11_17
REMARK    7  A    between atoms: C11_17  and  C12_18
REMARK    8  A    between atoms: C12_18  and  C13_19
REMARK    9  A    between atoms: C13_19  and  C14_20
REMARK   10  A    between atoms: C14_20  and  N4_21
REMARK   11  A    between atoms: C17_29  and  C18_30
REMARK   12  A    between atoms: C18_30  and  C19_31
REMARK       I    between atoms: C19_31  and  N6_33
REMARK   13  A    between atoms: N6_33  and  C20_35
REMARK   14  A    between atoms: C20_35  and  C21_36
REMARK   15  A    between atoms: C21_36  and  C22_37
REMARK   16  A    between atoms: C22_37  and  N7_38
ROOT
HETATM    1  C8  UNL     1      45.843  19.515  38.027  1.00  0.00     0.685 A
HETATM    2  N2  UNL     1      45.601  18.744  36.955  1.00  0.00    -0.174 N
ATOM      3  H2  UNL     1      45.192  19.183  36.131  1.00  0.00     0.186 HD
HETATM    4  C9  UNL     1      45.862  17.447  36.906  1.00  0.00     0.146 A
HETATM    5  C15 UNL     1      46.422  16.845  38.032  1.00  0.00     0.104 A
HETATM    6  N5  UNL     1      46.703  15.517  38.020  1.00  0.00    -0.361 N
ATOM      7  H5  UNL     1      46.500  14.972  37.182  1.00  0.00     0.165 HD
HETATM    8  C16 UNL     1      47.242  14.907  39.084  1.00  0.00     0.096 A
HETATM    9  C17 UNL     1      47.512  15.670  40.225  1.00  0.00    -0.032 A
HETATM   10  C23 UNL     1      47.229  17.025  40.250  1.00  0.00     0.041 A
HETATM   11  C24 UNL     1      46.671  17.634  39.131  1.00  0.00     0.080 A
HETATM   12  N8  UNL     1      46.377  18.956  39.110  1.00  0.00    -0.189 N
ATOM     13  H8  UNL     1      46.568  19.529  39.932  1.00  0.00     0.184 HD
ENDROOT
BRANCH   9  14
HETATM   14  C18 UNL     1      48.105  15.025  41.412  1.00  0.00     0.142 C
BRANCH  14  15
HETATM   15  C19 UNL     1      47.015  14.634  42.341  1.00  0.00     0.221 C
HETATM   16  O1  UNL     1      46.825  15.346  43.359  1.00  0.00    -0.273 OA
HETATM   17  N6  UNL     1      46.198  13.504  42.119  1.00  0.00    -0.361 N
ATOM     18  H6  UNL     1      46.366  12.937  41.289  1.00  0.00     0.162 HD
BRANCH  17  19
HETATM   19  C20 UNL     1      45.147  13.119  43.008  1.00  0.00     0.124 C
BRANCH  19  20
HETATM   20  C21 UNL     1      43.874  12.741  42.322  1.00  0.00     0.047 C
BRANCH  20  21
HETATM   21  C22 UNL     1      43.927  11.290  41.844  1.00  0.00     0.231 C
BRANCH  21  22
HETATM   22  N7  UNL     1      44.060  11.250  40.412  1.00  0.00    -0.079 N
ATOM     23  H73 UNL     1      43.999  12.179  39.995  1.00  0.00     0.274 HD
ATOM     24  H72 UNL     1      45.011  11.020  40.122  1.00  0.00     0.274 HD
ATOM     25  H71 UNL     1      43.374  10.607  40.016  1.00  0.00     0.274 HD
ENDBRANCH  21  22
ENDBRANCH  20  21
ENDBRANCH  19  20
ENDBRANCH  17  19
ENDBRANCH  14  15
ENDBRANCH   9  14
BRANCH   4  26
HETATM   26  N3  UNL     1      45.636  16.698  35.901  1.00  0.00    -0.374 N
ATOM     27  H3  UNL     1      44.903  15.993  35.972  1.00  0.00     0.161 HD
BRANCH  26  28
HETATM   28  C10 UNL     1      46.370  16.808  34.675  1.00  0.00     0.121 C
BRANCH  28  29
HETATM   29  C11 UNL     1      47.712  16.171  34.664  1.00  0.00     0.020 C
BRANCH  29  30
HETATM   30  C12 UNL     1      48.624  16.495  33.548  1.00  0.00     0.003 C
BRANCH  30  31
HETATM   31  C13 UNL     1      48.036  16.974  32.274  1.00  0.00     0.027 C
BRANCH  31  32
HETATM   32  C14 UNL     1      49.232  17.222  31.324  1.00  0.00     0.229 C
BRANCH  32  33
HETATM   33  N4  UNL     1      48.785  17.789  30.086  1.00  0.00    -0.079 N
ATOM     34  H43 UNL     1      48.063  17.219  29.647  1.00  0.00     0.274 HD
ATOM     35  H42 UNL     1      48.240  18.639  30.234  1.00  0.00     0.274 HD
ATOM     36  H41 UNL     1      49.573  17.950  29.458  1.00  0.00     0.274 HD
ENDBRANCH  32  33
ENDBRANCH  31  32
ENDBRANCH  30  31
ENDBRANCH  29  30
ENDBRANCH  28  29
ENDBRANCH  26  28
ENDBRANCH   4  26
BRANCH   1  37
HETATM   37  N1  UNL     1      45.566  20.750  37.995  1.00  0.00    -0.185 N
ATOM     38  H1  UNL     1      44.921  21.093  38.707  1.00  0.00     0.185 HD
BRANCH  37  39
HETATM   39  C7  UNL     1      46.062  21.705  37.068  1.00  0.00     0.096 A
HETATM   40  C5  UNL     1      47.256  22.368  37.022  1.00  0.00    -0.027 A
HETATM   41  C4  UNL     1      47.443  23.229  36.001  1.00  0.00     0.024 A
HETATM   42  C6  UNL     1      48.293  22.105  38.102  1.00  0.00     0.051 C
HETATM   43  C3  UNL     1      46.420  23.363  35.101  1.00  0.00    -0.015 A
HETATM   44  S1  UNL     1      45.238  22.293  35.701  1.00  0.00    -0.076 SA
BRANCH  43  45
HETATM   45  C2  UNL     1      46.370  24.247  33.880  1.00  0.00     0.041 C
HETATM   46  C1  UNL     1      46.680  23.402  32.690  1.00  0.00     0.010 C
ENDBRANCH  43  45
ENDBRANCH  37  39
ENDBRANCH   1  37
TORSDOF 16
ENDMDL