MODEL 1
REMARK VINA RESULT: -7.644989932      0.000      0.000
REMARK  13 active torsions:
REMARK  status: ('A' for Active; 'I' for Inactive)
REMARK    1  A    between atoms: C2_2  and  C3_3
REMARK    2  A    between atoms: C3_3  and  C4_4
REMARK    3  A    between atoms: C12_12  and  O1_13
REMARK    4  A    between atoms: N1_15  and  C13_16
REMARK    5  A    between atoms: C13_16  and  C15_18
REMARK    6  A    between atoms: C15_18  and  O2_19
REMARK    7  A    between atoms: C19_24  and  C20_25
REMARK    8  A    between atoms: C20_25  and  N2_26
REMARK    9  A    between atoms: N2_26  and  O3_27
REMARK       I    between atoms: N2_26  and  C21_29
REMARK       I    between atoms: C21_29  and  N3_31
REMARK   10  A    between atoms: N3_31  and  C22_33
REMARK   11  A    between atoms: N4_39  and  C28_40
REMARK   12  A    between atoms: C28_40  and  C30_42
REMARK   13  A    between atoms: C30_42  and  O5_43
ROOT
HETATM    1  C4  UNL     1      46.332  19.304  11.402  1.00  0.00    -0.050 A
HETATM    2  C5  UNL     1      45.502  18.599  12.240  1.00  0.00     0.039 A
HETATM    3  C6  UNL     1      45.539  17.189  12.393  1.00  0.00     0.061 A
HETATM    4  C7  UNL     1      46.447  16.484  11.674  1.00  0.00     0.049 A
HETATM    5  C8  UNL     1      47.294  17.242  10.816  1.00  0.00    -0.039 A
HETATM    6  C9  UNL     1      48.352  16.573   9.977  1.00  0.00     0.050 C
HETATM    7  C10 UNL     1      47.247  18.605  10.678  1.00  0.00    -0.049 A
HETATM    8  C11 UNL     1      48.210  19.302   9.739  1.00  0.00     0.049 C
HETATM    9  C12 UNL     1      46.734  15.055  11.609  1.00  0.00     0.151 C
HETATM   10  N1  UNL     1      45.931  13.909  11.426  1.00  0.00    -0.354 N
HETATM   11  C16 UNL     1      44.511  13.953  11.032  1.00  0.00     0.130 C
HETATM   12  C17 UNL     1      43.692  12.766  11.314  1.00  0.00     0.006 C
HETATM   13  C18 UNL     1      43.498  11.934  10.013  1.00  0.00     0.012 C
HETATM   14  C19 UNL     1      42.257  13.111  11.802  1.00  0.00     0.016 C
HETATM   15  C25 UNL     1      42.120  13.195  13.271  1.00  0.00     0.002 C
HETATM   16  C26 UNL     1      40.988  14.153  13.622  1.00  0.00     0.011 C
HETATM   17  C27 UNL     1      43.293  13.476  14.114  1.00  0.00     0.114 C
HETATM   18  N4  UNL     1      43.304  14.696  14.884  1.00  0.00    -0.186 NA
HETATM   19  S1  UNL     1      44.699  15.678  14.670  1.00  0.00     0.305 S
HETATM   20  O6  UNL     1      45.984  14.973  14.790  1.00  0.00    -0.188 OA
HETATM   21  O7  UNL     1      44.677  16.633  15.895  1.00  0.00    -0.188 OA
HETATM   22  N5  UNL     1      44.562  16.740  13.332  1.00  0.00    -0.267 N
HETATM   23  C31 UNL     1      43.193  17.274  13.142  1.00  0.00     0.171 C
ENDROOT
BRANCH  14  24
HETATM   24  C20 UNL     1      41.326  12.003  11.280  1.00  0.00     0.166 C
BRANCH  24  25
HETATM   25  N2  UNL     1      40.524  11.370  12.270  1.00  0.00    -0.210 N
HETATM   26  C21 UNL     1      39.153  11.664  12.403  1.00  0.00     0.342 C
HETATM   27  O4  UNL     1      38.485  11.067  13.315  1.00  0.00    -0.245 OA
HETATM   28  N3  UNL     1      38.422  12.583  11.605  1.00  0.00    -0.337 N
ATOM     29  H3  UNL     1      38.918  13.077  10.863  1.00  0.00     0.164 HD
BRANCH  25  30
HETATM   30  O3  UNL     1      41.072  10.442  13.074  1.00  0.00    -0.283 OA
ATOM     31  H3  UNL     1      41.588  10.718  13.824  1.00  0.00     0.245 HD
ENDBRANCH  25  30
BRANCH  28  32
HETATM   32  C22 UNL     1      37.025  12.853  11.783  1.00  0.00     0.078 C
HETATM   33  C23 UNL     1      36.326  13.015  10.426  1.00  0.00     0.032 C
HETATM   34  C24 UNL     1      36.747  14.094  12.597  1.00  0.00     0.032 C
ENDBRANCH  28  32
ENDBRANCH  24  25
ENDBRANCH  14  24
BRANCH  10  35
HETATM   35  C13 UNL     1      46.473  12.586  11.568  1.00  0.00     0.105 C
HETATM   36  C14 UNL     1      47.578  12.445  10.501  1.00  0.00     0.034 C
BRANCH  35  37
HETATM   37  C15 UNL     1      46.988  12.128  12.890  1.00  0.00     0.189 C
BRANCH  37  38
HETATM   38  O2  UNL     1      46.163  12.142  13.966  1.00  0.00    -0.399 OA
ATOM     39  H2  UNL     1      45.463  11.503  14.025  1.00  0.00     0.209 HD
ENDBRANCH  37  38
ENDBRANCH  35  37
ENDBRANCH  10  35
BRANCH  18  40
HETATM   40  C28 UNL     1      43.015  14.485  16.291  1.00  0.00     0.095 C
HETATM   41  C29 UNL     1      42.473  13.110  16.602  1.00  0.00     0.029 C
BRANCH  40  42
HETATM   42  C30 UNL     1      42.236  15.573  16.946  1.00  0.00     0.184 C
BRANCH  42  43
HETATM   43  O5  UNL     1      43.024  16.005  18.043  1.00  0.00    -0.399 OA
ATOM     44  H5  UNL     1      42.820  16.925  18.161  1.00  0.00     0.209 HD
ENDBRANCH  42  43
ENDBRANCH  40  42
ENDBRANCH  18  40
BRANCH   9  45
HETATM   45  O1  UNL     1      48.009  14.762  11.739  1.00  0.00    -0.345 OA
ATOM     46  H1  UNL     1      48.462  14.635  10.913  1.00  0.00     0.219 HD
ENDBRANCH   9  45
BRANCH   1  47
HETATM   47  C3  UNL     1      46.261  20.777  11.263  1.00  0.00     0.039 C
BRANCH  47  48
HETATM   48  C2  UNL     1      45.345  21.400  12.292  1.00  0.00     0.000 C
HETATM   49  C1  UNL     1      44.488  22.485  11.704  1.00  0.00     0.005 C
ENDBRANCH  47  48
ENDBRANCH   1  47
TORSDOF 13
ENDMDL