MODEL 2
REMARK VINA RESULT: -8.892781917      1.229      1.767
REMARK  11 active torsions:
REMARK  status: ('A' for Active; 'I' for Inactive)
REMARK    1  A    between atoms: C2_2  and  C4_4
REMARK    2  A    between atoms: C4_4  and  C5_5
REMARK    3  A    between atoms: C6_8  and  O1_9
REMARK    4  A    between atoms: C10_14  and  C11_15
REMARK    5  A    between atoms: C12_16  and  O2_17
REMARK    6  A    between atoms: O2_17  and  C13_18
REMARK    7  A    between atoms: C13_18  and  C14_19
REMARK    8  A    between atoms: C14_19  and  O3_20
REMARK    9  A    between atoms: C17_27  and  C18_28
REMARK   10  A    between atoms: C18_28  and  C19_29
REMARK   11  A    between atoms: C28_40  and  C29_41
REMARK       I    between atoms: C29_41  and  N3_43
ROOT
HETATM    1  C5  UNL     1      45.492  11.085  11.657  1.00  0.00     0.183 C
HETATM    2  N1  UNL     1      46.421  12.001  12.255  1.00  0.00    -0.360 N
ATOM      3  H1  UNL     1      47.088  11.536  12.870  1.00  0.00     0.162 HD
HETATM    4  C6  UNL     1      46.621  13.362  12.192  1.00  0.00     0.117 C
HETATM    5  C7  UNL     1      47.016  14.322  11.157  1.00  0.00     0.074 C
HETATM    6  C8  UNL     1      47.005  13.906   9.748  1.00  0.00     0.014 C
HETATM    7  C9  UNL     1      46.854  15.202   8.970  1.00  0.00     0.010 C
HETATM    8  C10 UNL     1      46.761  16.325   9.973  1.00  0.00     0.024 C
HETATM    9  C15 UNL     1      46.228  15.622  11.198  1.00  0.00     0.097 C
HETATM   10  C16 UNL     1      46.530  16.376  12.442  1.00  0.00     0.224 C
HETATM   11  O4  UNL     1      47.773  16.447  12.718  1.00  0.00    -0.273 OA
HETATM   12  N2  UNL     1      45.570  16.987  13.289  1.00  0.00    -0.349 N
ATOM     13  H2  UNL     1      45.672  16.798  14.286  1.00  0.00     0.163 HD
HETATM   14  C17 UNL     1      44.484  17.829  12.927  1.00  0.00     0.158 C
HETATM   15  C23 UNL     1      43.139  17.182  12.947  1.00  0.00     0.183 C
HETATM   16  O5  UNL     1      42.189  17.946  12.819  1.00  0.00    -0.293 OA
HETATM   17  C24 UNL     1      42.842  15.763  13.101  1.00  0.00     0.241 C
HETATM   18  F1  UNL     1      41.957  15.417  12.062  1.00  0.00    -0.241 F
HETATM   19  C25 UNL     1      42.112  15.392  14.370  1.00  0.00     0.045 C
HETATM   20  C26 UNL     1      41.658  13.939  14.191  1.00  0.00     0.006 C
HETATM   21  C27 UNL     1      42.774  12.969  14.384  1.00  0.00     0.042 C
HETATM   22  C28 UNL     1      42.835  11.878  13.335  1.00  0.00     0.224 C
HETATM   23  O7  UNL     1      43.415  12.343  12.137  1.00  0.00    -0.305 OA
HETATM   24  C34 UNL     1      44.210  11.712  11.245  1.00  0.00     0.282 C
HETATM   25  O8  UNL     1      43.881  11.644  10.055  1.00  0.00    -0.263 OA
ENDROOT
BRANCH   8  26
HETATM   26  C11 UNL     1      48.133  16.869  10.155  1.00  0.00     0.003 C
HETATM   27  C12 UNL     1      48.496  18.050   9.706  1.00  0.00     0.131 C
BRANCH  27  28
HETATM   28  O2  UNL     1      49.773  18.535   9.886  1.00  0.00    -0.361 OA
BRANCH  28  29
HETATM   29  C13 UNL     1      50.050  19.930   9.739  1.00  0.00     0.200 C
BRANCH  29  30
HETATM   30  C14 UNL     1      49.083  20.564   8.792  1.00  0.00     0.190 C
BRANCH  30  31
HETATM   31  O3  UNL     1      49.469  20.540   7.476  1.00  0.00    -0.399 OA
ATOM     32  H3  UNL     1      50.107  19.870   7.261  1.00  0.00     0.209 HD
ENDBRANCH  30  31
ENDBRANCH  29  30
ENDBRANCH  28  29
ENDBRANCH  27  28
ENDBRANCH   8  26
BRANCH   4  33
HETATM   33  O1  UNL     1      46.422  14.000  13.313  1.00  0.00    -0.349 OA
ATOM     34  H1  UNL     1      46.327  13.444  14.078  1.00  0.00     0.219 HD
ENDBRANCH   4  33
BRANCH  14  35
HETATM   35  C18 UNL     1      44.325  19.072  13.771  1.00  0.00     0.041 C
BRANCH  35  36
HETATM   36  C19 UNL     1      44.627  20.361  13.112  1.00  0.00    -0.049 C
HETATM   37  C20 UNL     1      45.311  21.233  14.188  1.00  0.00     0.014 C
HETATM   38  C21 UNL     1      45.590  20.319  11.970  1.00  0.00     0.014 C
HETATM   39  C22 UNL     1      43.349  21.062  12.715  1.00  0.00     0.014 C
ENDBRANCH  35  36
ENDBRANCH  14  35
BRANCH   1  40
HETATM   40  C4  UNL     1      46.094  10.298  10.536  1.00  0.00     0.039 C
BRANCH  40  41
HETATM   41  C2  UNL     1      47.547  10.045  10.538  1.00  0.00    -0.020 C
HETATM   42  C1  UNL     1      48.319  10.346   9.309  1.00  0.00     0.009 C
HETATM   43  C3  UNL     1      47.712   8.540  10.837  1.00  0.00     0.009 C
ENDBRANCH  40  41
ENDBRANCH   1  40
BRANCH  22  44
HETATM   44  C29 UNL     1      41.489  11.362  13.011  1.00  0.00     0.249 C
HETATM   45  O6  UNL     1      40.984  11.639  11.896  1.00  0.00    -0.270 OA
HETATM   46  N3  UNL     1      40.724  10.564  13.892  1.00  0.00    -0.350 N
HETATM   47  C30 UNL     1      41.179  10.145  15.209  1.00  0.00     0.126 C
HETATM   48  C33 UNL     1      39.390  10.018  13.685  1.00  0.00     0.126 C
HETATM   49  C31 UNL     1      40.487   8.813  15.455  1.00  0.00     0.021 C
HETATM   50  C32 UNL     1      39.274   8.803  14.582  1.00  0.00     0.021 C
ENDBRANCH  22  44
TORSDOF 11
ENDMDL