MODEL 1
REMARK VINA RESULT: -10.007300237      0.000      0.000
REMARK  10 active torsions:
REMARK  status: ('A' for Active; 'I' for Inactive)
REMARK    1  A    between atoms: C2_2  and  C3_3
REMARK    2  A    between atoms: C8_8  and  N1_9
REMARK    3  A    between atoms: C8_8  and  C25_36
REMARK       I    between atoms: N1_9  and  C9_11
REMARK    4  A    between atoms: C9_11  and  C10_13
REMARK    5  A    between atoms: C12_16  and  C14_18
REMARK    6  A    between atoms: N2_20  and  C15_21
REMARK    7  A    between atoms: C15_21  and  O2_22
REMARK    8  A    between atoms: C16_24  and  N3_25
REMARK    9  A    between atoms: C16_24  and  C19_30
REMARK       I    between atoms: N3_25  and  C17_27
REMARK       I    between atoms: C25_36  and  N4_38
REMARK   10  A    between atoms: N4_38  and  C26_40
ROOT
HETATM    1  N1  UNL     1      47.757  17.798   9.485  1.00  0.00    -0.341 N
ATOM      2  H1  UNL     1      48.217  17.884   8.579  1.00  0.00     0.163 HD
HETATM    3  C9  UNL     1      47.430  19.072   9.941  1.00  0.00     0.242 C
HETATM    4  O1  UNL     1      46.800  19.214  10.994  1.00  0.00    -0.271 OA
ENDROOT
BRANCH   3   5
HETATM    5  C10 UNL     1      47.887  20.169   9.117  1.00  0.00     0.189 C
HETATM    6  C11 UNL     1      49.449  19.912   8.884  1.00  0.00     0.111 C
HETATM    7  S1  UNL     1      49.496  20.975   7.413  1.00  0.00    -0.134 SA
HETATM    8  C12 UNL     1      48.128  22.090   7.979  1.00  0.00     0.093 C
HETATM    9  C13 UNL     1      46.847  21.808   7.195  1.00  0.00     0.052 C
HETATM   10  N2  UNL     1      47.878  21.564   9.352  1.00  0.00    -0.327 N
BRANCH   8  11
HETATM   11  C14 UNL     1      48.636  23.421   7.746  1.00  0.00     0.157 C
HETATM   12 CL1  UNL     1      49.895  23.206   6.411  1.00  0.00    -0.127 Cl
ENDBRANCH   8  11
BRANCH  10  13
HETATM   13  C15 UNL     1      47.549  22.316  10.495  1.00  0.00     0.164 C
HETATM   14  C16 UNL     1      46.362  22.794  11.171  1.00  0.00     0.067 C
BRANCH  13  15
HETATM   15  O2  UNL     1      48.636  22.693  11.174  1.00  0.00    -0.345 OA
ATOM     16  H2  UNL     1      49.144  21.948  11.471  1.00  0.00     0.219 HD
ENDBRANCH  13  15
BRANCH  14  17
HETATM   17  N3  UNL     1      45.648  21.732  11.870  1.00  0.00    -0.327 N
HETATM   18  C17 UNL     1      45.562  21.580  13.265  1.00  0.00     0.218 C
HETATM   19  C18 UNL     1      44.837  20.479  13.919  1.00  0.00     0.117 C
HETATM   20  O3  UNL     1      46.145  22.433  14.013  1.00  0.00    -0.274 OA
ATOM     21  H3  UNL     1      45.168  21.039  11.296  1.00  0.00     0.168 HD
ENDBRANCH  14  17
BRANCH  14  22
HETATM   22  C19 UNL     1      45.675  24.019  10.818  1.00  0.00     0.040 C
HETATM   23  C20 UNL     1      44.271  24.091  11.424  1.00  0.00     0.011 C
HETATM   24  C21 UNL     1      43.195  24.381  10.430  1.00  0.00     0.001 C
HETATM   25  C22 UNL     1      43.433  25.665   9.664  1.00  0.00     0.000 C
HETATM   26  C23 UNL     1      44.910  25.897   9.464  1.00  0.00     0.001 C
HETATM   27  C24 UNL     1      45.563  24.506   9.431  1.00  0.00     0.011 C
ENDBRANCH  14  22
ENDBRANCH  10  13
ENDBRANCH   3   5
BRANCH   1  28
HETATM   28  C8  UNL     1      47.679  16.406   9.831  1.00  0.00     0.117 C
HETATM   29  C6  UNL     1      47.025  15.461   8.970  1.00  0.00     0.020 C
HETATM   30  C5  UNL     1      47.986  14.958   7.831  1.00  0.00     0.013 C
HETATM   31  C7  UNL     1      46.486  14.157   9.472  1.00  0.00     0.013 C
HETATM   32  C4  UNL     1      48.854  13.969   8.516  1.00  0.00    -0.001 A
HETATM   33  C3  UNL     1      50.350  14.074   8.604  1.00  0.00     0.016 A
HETATM   34  C32 UNL     1      49.462  14.556   9.736  1.00  0.00     0.001 A
HETATM   35  C31 UNL     1      49.198  16.014   9.810  1.00  0.00     0.047 C
BRANCH  33  36
HETATM   36  C2  UNL     1      50.999  12.712   8.677  1.00  0.00    -0.031 C
HETATM   37  C1  UNL     1      51.746  12.313   7.641  1.00  0.00     0.007 C
ENDBRANCH  33  36
BRANCH  28  38
HETATM   38  C25 UNL     1      47.390  16.371  11.323  1.00  0.00     0.247 C
HETATM   39  O4  UNL     1      48.313  16.455  12.173  1.00  0.00    -0.271 OA
HETATM   40  N4  UNL     1      46.077  16.271  11.889  1.00  0.00    -0.347 N
ATOM     41  H4  UNL     1      45.273  16.214  11.265  1.00  0.00     0.163 HD
BRANCH  40  42
HETATM   42  C26 UNL     1      45.858  16.247  13.324  1.00  0.00     0.158 C
HETATM   43  C27 UNL     1      45.955  14.913  13.969  1.00  0.00     0.059 C
HETATM   44  C28 UNL     1      44.619  14.466  14.487  1.00  0.00     0.170 C
HETATM   45  O5  UNL     1      44.160  15.441  15.383  1.00  0.00    -0.384 OA
HETATM   46  C29 UNL     1      43.603  16.499  14.628  1.00  0.00     0.248 C
HETATM   47  C30 UNL     1      44.489  16.853  13.517  1.00  0.00     0.172 C
HETATM   48  O6  UNL     1      44.120  17.668  12.698  1.00  0.00    -0.293 OA
ENDBRANCH  40  42
ENDBRANCH  28  38
ENDBRANCH   1  28
TORSDOF 10
ENDMDL