MODEL 5
REMARK VINA RESULT: -8.081020002      2.788      4.632
REMARK  14 active torsions:
REMARK  status: ('A' for Active; 'I' for Inactive)
REMARK    1  A    between atoms: C2_2  and  C4_4
REMARK    2  A    between atoms: C4_4  and  N1_5
REMARK    3  A    between atoms: C4_4  and  C10_13
REMARK       I    between atoms: N1_5  and  C5_6
REMARK    4  A    between atoms: C5_6  and  O2_8
REMARK    5  A    between atoms: O2_8  and  C6_9
REMARK    6  A    between atoms: C10_13  and  O3_14
REMARK    7  A    between atoms: C10_13  and  N2_16
REMARK    8  A    between atoms: C17_24  and  O4_25
REMARK    9  A    between atoms: C17_24  and  C18_27
REMARK   10  A    between atoms: C18_27  and  N4_28
REMARK   11  A    between atoms: C18_27  and  C25_40
REMARK   12  A    between atoms: N4_28  and  S1_30
REMARK   13  A    between atoms: S1_30  and  C19_33
REMARK   14  A    between atoms: C29_44  and  C30_45
ROOT
HETATM    1  N2  UNL     1      44.273  18.183  14.250  1.00  0.00    -0.332 N
HETATM    2  C11 UNL     1      43.466  17.330  15.237  1.00  0.00     0.133 C
HETATM    3  C12 UNL     1      42.125  17.266  14.651  1.00  0.00     0.014 A
HETATM    4  C13 UNL     1      40.822  17.088  15.250  1.00  0.00    -0.006 A
HETATM    5  C14 UNL     1      40.702  16.200  16.453  1.00  0.00     0.011 C
HETATM    6  C15 UNL     1      41.352  18.412  15.407  1.00  0.00     0.014 A
HETATM    7  C16 UNL     1      41.438  19.541  14.469  1.00  0.00     0.133 C
HETATM    8  N3  UNL     1      42.827  20.066  14.622  1.00  0.00    -0.333 N
HETATM    9  C17 UNL     1      42.886  21.200  15.377  1.00  0.00     0.140 C
HETATM   10  C29 UNL     1      44.040  19.534  13.980  1.00  0.00     0.293 C
ENDROOT
BRANCH   9  11
HETATM   11  O4  UNL     1      41.716  21.651  15.789  1.00  0.00    -0.348 OA
ATOM     12  H4  UNL     1      41.482  22.509  15.456  1.00  0.00     0.219 HD
ENDBRANCH   9  11
BRANCH   9  13
HETATM   13  C18 UNL     1      43.994  22.067  15.851  1.00  0.00     0.174 C
BRANCH  13  14
HETATM   14  N4  UNL     1      44.078  23.159  14.901  1.00  0.00    -0.302 N
ATOM     15  H4  UNL     1      43.232  23.615  14.559  1.00  0.00     0.173 HD
BRANCH  14  16
HETATM   16  S1  UNL     1      45.576  23.653  14.382  1.00  0.00     0.259 S
HETATM   17  O5  UNL     1      46.020  25.017  14.851  1.00  0.00    -0.201 OA
HETATM   18  O6  UNL     1      46.638  22.679  14.912  1.00  0.00    -0.201 OA
BRANCH  16  19
HETATM   19  C19 UNL     1      45.805  23.651  12.614  1.00  0.00     0.081 A
HETATM   20  C20 UNL     1      44.733  23.816  11.784  1.00  0.00     0.025 A
HETATM   21  C21 UNL     1      44.871  23.804  10.424  1.00  0.00     0.003 A
HETATM   22  C22 UNL     1      46.127  23.614   9.821  1.00  0.00     0.024 A
HETATM   23  C23 UNL     1      47.192  23.447  10.687  1.00  0.00     0.035 A
HETATM   24 CL1  UNL     1      48.783  23.237   9.929  1.00  0.00    -0.084 Cl
HETATM   25  C24 UNL     1      47.043  23.464  12.079  1.00  0.00     0.049 A
ENDBRANCH  16  19
ENDBRANCH  14  16
ENDBRANCH  13  14
BRANCH  13  26
HETATM   26  C25 UNL     1      43.633  22.647  17.237  1.00  0.00    -0.023 C
HETATM   27  C26 UNL     1      44.854  23.135  17.966  1.00  0.00     0.017 C
HETATM   28  C27 UNL     1      42.706  23.831  17.128  1.00  0.00     0.017 C
HETATM   29  C28 UNL     1      42.996  21.582  18.095  1.00  0.00     0.017 C
ENDBRANCH  13  26
ENDBRANCH   9  13
BRANCH  10  30
HETATM   30  C30 UNL     1      43.977  20.103  12.641  1.00  0.00     0.217 C
HETATM   31  O7  UNL     1      45.274  20.298  12.192  1.00  0.00    -0.645 OA
HETATM   32  O8  UNL     1      43.104  20.492  11.727  1.00  0.00    -0.645 OA
ENDBRANCH  10  30
BRANCH   1  33
HETATM   33  C10 UNL     1      45.317  17.430  13.758  1.00  0.00     0.153 C
BRANCH  33  34
HETATM   34  C4  UNL     1      45.485  16.331  12.793  1.00  0.00     0.246 C
BRANCH  34  35
HETATM   35  C2  UNL     1      46.155  15.159  13.553  1.00  0.00     0.022 C
HETATM   36  C1  UNL     1      47.350  14.612  12.838  1.00  0.00     0.013 C
HETATM   37  C3  UNL     1      45.153  14.142  13.986  1.00  0.00     0.013 C
ENDBRANCH  34  35
BRANCH  34  38
HETATM   38  N1  UNL     1      46.346  16.721  11.743  1.00  0.00    -0.376 NA
HETATM   39  C5  UNL     1      47.171  17.098  10.745  1.00  0.00     0.436 C
HETATM   40  O1  UNL     1      48.068  17.975  10.770  1.00  0.00    -0.221 OA
BRANCH  39  41
HETATM   41  O2  UNL     1      47.059  16.467   9.473  1.00  0.00    -0.283 OA
BRANCH  41  42
HETATM   42  C6  UNL     1      47.463  15.204   9.121  1.00  0.00     0.062 C
HETATM   43  C7  UNL     1      48.908  14.968   9.524  1.00  0.00     0.046 C
HETATM   44  C8  UNL     1      47.449  15.184   7.566  1.00  0.00     0.046 C
HETATM   45  C9  UNL     1      46.539  14.079   9.538  1.00  0.00     0.046 C
ENDBRANCH  41  42
ENDBRANCH  39  41
ENDBRANCH  34  38
ENDBRANCH  33  34
BRANCH  33  46
HETATM   46  O3  UNL     1      46.522  17.736  14.252  1.00  0.00    -0.347 OA
ATOM     47  H3  UNL     1      46.911  16.940  14.596  1.00  0.00     0.219 HD
ENDBRANCH  33  46
ENDBRANCH   1  33
TORSDOF 14
ENDMDL