MODEL 3
REMARK VINA RESULT: -9.181838920      3.557      5.615
REMARK  11 active torsions:
REMARK  status: ('A' for Active; 'I' for Inactive)
REMARK    1  A    between atoms: C4_7  and  C5_8
REMARK    2  A    between atoms: C5_8  and  C6_9
REMARK    3  A    between atoms: C6_9  and  C7_10
REMARK    4  A    between atoms: C7_10  and  C8_11
REMARK    5  A    between atoms: C17_21  and  C18_22
REMARK    6  A    between atoms: C18_22  and  O3_24
REMARK    7  A    between atoms: O3_24  and  C19_25
REMARK    8  A    between atoms: C24_30  and  N2_31
REMARK       I    between atoms: N2_31  and  C25_33
REMARK    9  A    between atoms: C25_33  and  C26_35
REMARK   10  A    between atoms: C26_35  and  N3_37
REMARK   11  A    between atoms: N3_37  and  S1_39
ROOT
HETATM    1  C1  UNL     1      44.930  12.722  12.506  1.00  0.00     0.021 C
HETATM    2  C2  UNL     1      46.363  12.532  12.092  1.00  0.00     0.087 C
HETATM    3  C3  UNL     1      47.324  13.420  12.770  1.00  0.00     0.222 C
HETATM    4  O1  UNL     1      48.559  13.127  12.593  1.00  0.00    -0.273 OA
HETATM    5  N1  UNL     1      47.063  14.534  13.580  1.00  0.00    -0.356 N
ATOM      6  H1  UNL     1      47.600  14.594  14.446  1.00  0.00     0.162 HD
HETATM    7  C4  UNL     1      46.124  15.612  13.340  1.00  0.00     0.084 C
HETATM    8  C9  UNL     1      46.854  16.885  12.904  1.00  0.00     0.026 C
HETATM    9  C10 UNL     1      46.399  17.229  11.507  1.00  0.00     0.009 C
HETATM   10  C11 UNL     1      47.520  17.695  10.630  1.00  0.00     0.012 C
HETATM   11  C12 UNL     1      47.530  17.072   9.245  1.00  0.00    -0.006 C
HETATM   12  C13 UNL     1      48.554  16.035   9.013  1.00  0.00     0.005 C
HETATM   13  C14 UNL     1      47.999  14.973   8.077  1.00  0.00     0.000 C
HETATM   14  C15 UNL     1      47.036  14.031   8.724  1.00  0.00     0.001 C
HETATM   15  C16 UNL     1      47.443  13.621  10.112  1.00  0.00     0.015 C
HETATM   16  C17 UNL     1      46.512  12.527  10.593  1.00  0.00     0.098 C
HETATM   17  C23 UNL     1      48.077  18.448   8.785  1.00  0.00     0.030 C
HETATM   18  C24 UNL     1      47.167  18.980   9.930  1.00  0.00     0.089 C
ENDROOT
BRANCH  18  19
HETATM   19  N2  UNL     1      47.668  20.206  10.438  1.00  0.00    -0.355 N
HETATM   20  C25 UNL     1      46.880  21.180  11.086  1.00  0.00     0.236 C
HETATM   21  O4  UNL     1      45.657  20.976  11.222  1.00  0.00    -0.272 OA
ATOM     22  H2  UNL     1      48.664  20.395  10.329  1.00  0.00     0.162 HD
BRANCH  20  23
HETATM   23  C26 UNL     1      47.482  22.418  11.591  1.00  0.00     0.164 C
HETATM   24  C27 UNL     1      46.625  22.898  12.828  1.00  0.00     0.037 C
BRANCH  23  25
HETATM   25  N3  UNL     1      47.448  23.553  10.719  1.00  0.00    -0.183 NA
HETATM   26  C28 UNL     1      46.097  23.920  10.362  1.00  0.00     0.133 C
BRANCH  25  27
HETATM   27  S1  UNL     1      48.277  23.116   9.230  1.00  0.00     0.185 S
HETATM   28  O5  UNL     1      47.455  22.209   8.385  1.00  0.00    -0.582 OA
HETATM   29  O6  UNL     1      48.531  24.383   8.423  1.00  0.00    -0.582 OA
HETATM   30  O7  UNL     1      49.750  22.449   9.648  1.00  0.00    -0.582 OA
ENDBRANCH  25  27
ENDBRANCH  23  25
ENDBRANCH  20  23
ENDBRANCH  18  19
BRANCH   7  31
HETATM   31  C5  UNL     1      45.308  15.908  14.596  1.00  0.00     0.025 C
BRANCH  31  32
HETATM   32  C6  UNL     1      43.860  15.572  14.468  1.00  0.00     0.003 C
BRANCH  32  33
HETATM   33  C7  UNL     1      43.410  15.979  13.072  1.00  0.00     0.011 C
BRANCH  33  34
HETATM   34  C8  UNL     1      42.415  17.096  13.086  1.00  0.00     0.085 C
HETATM   35 BR1  UNL     1      43.279  18.807  13.119  1.00  0.00    -0.097 Br
ENDBRANCH  33  34
ENDBRANCH  32  33
ENDBRANCH  31  32
ENDBRANCH   7  31
BRANCH  16  36
HETATM   36  C18 UNL     1      46.925  11.199  10.056  1.00  0.00     0.264 C
HETATM   37  O2  UNL     1      46.102  10.337   9.650  1.00  0.00    -0.265 OA
BRANCH  36  38
HETATM   38  O3  UNL     1      48.271  10.830   9.975  1.00  0.00    -0.311 OA
BRANCH  38  39
HETATM   39  C19 UNL     1      48.837  10.466   8.727  1.00  0.00     0.060 C
HETATM   40  C20 UNL     1      49.820  11.520   8.254  1.00  0.00     0.045 C
HETATM   41  C21 UNL     1      47.838  10.222   7.647  1.00  0.00     0.045 C
HETATM   42  C22 UNL     1      49.628   9.176   8.948  1.00  0.00     0.045 C
ENDBRANCH  38  39
ENDBRANCH  36  38
ENDBRANCH  16  36
TORSDOF 11
ENDMDL