MODEL 2
REMARK VINA RESULT: -7.521243247      3.007      9.162
REMARK  11 active torsions:
REMARK  status: ('A' for Active; 'I' for Inactive)
REMARK    1  A    between atoms: C2_2  and  C3_3
REMARK    2  A    between atoms: C3_3  and  C5_5
REMARK    3  A    between atoms: C7_7  and  C8_8
REMARK       I    between atoms: C8_8  and  N1_10
REMARK    4  A    between atoms: N1_10  and  C9_12
REMARK    5  A    between atoms: C9_12  and  C10_13
REMARK    6  A    between atoms: C9_12  and  C12_17
REMARK    7  A    between atoms: C10_13  and  C11_15
REMARK    8  A    between atoms: C18_23  and  O3_24
REMARK    9  A    between atoms: C19_28  and  C20_29
REMARK   10  A    between atoms: C20_29  and  C21_30
REMARK   11  A    between atoms: C25_36  and  C26_37
ROOT
HETATM    1  C5  UNL     1      44.338  13.255  12.126  1.00  0.00     0.089 C
HETATM    2  C6  UNL     1      43.888  14.654  12.016  1.00  0.00     0.044 C
HETATM    3  C7  UNL     1      44.663  15.838  12.256  1.00  0.00     0.113 C
HETATM    4  C16 UNL     1      45.885  15.927  13.005  1.00  0.00    -0.020 C
HETATM    5  C17 UNL     1      46.073  15.055  14.221  1.00  0.00     0.049 C
HETATM    6  C18 UNL     1      47.204  16.017  12.341  1.00  0.00     0.139 C
HETATM    7  N2  UNL     1      47.687  15.686  11.086  1.00  0.00    -0.357 N
ATOM      8  H2  UNL     1      48.646  15.341  11.102  1.00  0.00     0.162 HD
HETATM    9  C19 UNL     1      47.124  15.725   9.775  1.00  0.00     0.183 C
HETATM   10  C24 UNL     1      47.908  14.851   8.799  1.00  0.00     0.282 C
HETATM   11  O4  UNL     1      47.392  14.953   7.620  1.00  0.00    -0.263 OA
HETATM   12  O5  UNL     1      48.950  14.086   9.015  1.00  0.00    -0.304 OA
HETATM   13  C25 UNL     1      49.318  12.893   9.583  1.00  0.00     0.227 C
HETATM   14  C29 UNL     1      48.525  11.705   9.199  1.00  0.00     0.250 C
HETATM   15  O6  UNL     1      48.476  11.525   7.919  1.00  0.00    -0.270 OA
HETATM   16  N3  UNL     1      47.849  10.789  10.010  1.00  0.00    -0.341 N
HETATM   17  C30 UNL     1      48.096   9.349   9.743  1.00  0.00     0.153 C
HETATM   18  C31 UNL     1      46.913  11.078  11.085  1.00  0.00     0.174 C
HETATM   19  C32 UNL     1      47.565  11.809  12.212  1.00  0.00     0.042 C
HETATM   20  C33 UNL     1      45.649  11.641  10.575  1.00  0.00     0.240 C
HETATM   21  O7  UNL     1      45.186  10.861   9.651  1.00  0.00    -0.271 OA
HETATM   22  N4  UNL     1      44.908  12.750  10.857  1.00  0.00    -0.354 N
ATOM     23  H4  UNL     1      44.710  13.337  10.047  1.00  0.00     0.162 HD
ENDROOT
BRANCH   3  24
HETATM   24  C8  UNL     1      43.665  16.946  12.744  1.00  0.00     0.230 C
HETATM   25  O1  UNL     1      42.453  16.618  12.746  1.00  0.00    -0.272 OA
HETATM   26  N1  UNL     1      44.126  18.170  13.133  1.00  0.00    -0.326 N
ATOM     27  H1  UNL     1      45.139  18.142  13.020  1.00  0.00     0.168 HD
BRANCH  26  28
HETATM   28  C9  UNL     1      43.819  19.455  13.622  1.00  0.00     0.067 C
BRANCH  28  29
HETATM   29  C10 UNL     1      44.240  20.551  12.735  1.00  0.00     0.186 C
HETATM   30  O2  UNL     1      43.455  20.823  11.806  1.00  0.00    -0.290 OA
BRANCH  29  31
HETATM   31  C11 UNL     1      45.438  21.355  12.804  1.00  0.00     0.199 C
HETATM   32 CL1  UNL     1      45.538  22.387  11.285  1.00  0.00    -0.122 Cl
ENDBRANCH  29  31
ENDBRANCH  28  29
BRANCH  28  33
HETATM   33  C12 UNL     1      44.054  19.605  15.080  1.00  0.00    -0.005 C
HETATM   34  C13 UNL     1      43.045  18.815  15.884  1.00  0.00     0.021 C
HETATM   35  C14 UNL     1      45.408  18.913  15.376  1.00  0.00     0.021 C
HETATM   36  C15 UNL     1      44.063  20.978  15.659  1.00  0.00     0.021 C
ENDBRANCH  28  33
ENDBRANCH  26  28
ENDBRANCH   3  24
BRANCH   1  37
HETATM   37  C3  UNL     1      43.312  12.358  12.705  1.00  0.00     0.004 C
HETATM   38  C4  UNL     1      42.081  12.206  11.787  1.00  0.00     0.012 C
BRANCH  37  39
HETATM   39  C2  UNL     1      42.815  12.429  14.059  1.00  0.00     0.002 C
HETATM   40  C1  UNL     1      43.051  11.363  15.054  1.00  0.00     0.005 C
ENDBRANCH  37  39
ENDBRANCH   1  37
BRANCH   6  41
HETATM   41  O3  UNL     1      48.105  16.524  13.135  1.00  0.00    -0.346 OA
ATOM     42  H3  UNL     1      47.833  17.370  13.474  1.00  0.00     0.219 HD
ENDBRANCH   6  41
BRANCH   9  43
HETATM   43  C20 UNL     1      46.996  17.066   9.129  1.00  0.00     0.039 C
BRANCH  43  44
HETATM   44  C21 UNL     1      47.855  18.161   9.642  1.00  0.00    -0.020 C
HETATM   45  C22 UNL     1      48.121  19.072   8.421  1.00  0.00     0.009 C
HETATM   46  C23 UNL     1      47.170  19.067  10.637  1.00  0.00     0.009 C
ENDBRANCH  43  44
ENDBRANCH   9  43
BRANCH  13  47
HETATM   47  C26 UNL     1      50.767  12.667   9.071  1.00  0.00     0.016 C
HETATM   48  C27 UNL     1      51.592  13.909   9.168  1.00  0.00     0.012 C
HETATM   49  C28 UNL     1      50.792  12.217   7.643  1.00  0.00     0.012 C
ENDBRANCH  13  47
TORSDOF 11
ENDMDL