MODEL 1
REMARK VINA RESULT: -7.634676297      0.000      0.000
REMARK  10 active torsions:
REMARK  status: ('A' for Active; 'I' for Inactive)
REMARK    1  A    between atoms: C2_2  and  C3_3
REMARK    2  A    between atoms: C3_3  and  C5_5
REMARK    3  A    between atoms: C12_18  and  O3_19
REMARK    4  A    between atoms: O3_19  and  C13_20
REMARK    5  A    between atoms: C20_28  and  O4_29
REMARK    6  A    between atoms: C21_31  and  O5_32
REMARK    7  A    between atoms: C22_34  and  C23_35
REMARK    8  A    between atoms: C23_35  and  C24_36
REMARK    9  A    between atoms: C28_43  and  C29_44
REMARK   10  A    between atoms: C29_44  and  C30_45
ROOT
HETATM    1  C5  UNL     1      41.959  16.463  16.496  1.00  0.00     0.188 C
HETATM    2  N1  UNL     1      42.874  17.466  16.031  1.00  0.00    -0.345 N
ATOM      3  H1  UNL     1      43.442  17.894  16.762  1.00  0.00     0.163 HD
HETATM    4  C6  UNL     1      43.113  17.946  14.763  1.00  0.00     0.246 C
HETATM    5  O1  UNL     1      42.931  19.201  14.533  1.00  0.00    -0.271 OA
HETATM    6  C7  UNL     1      43.582  17.185  13.545  1.00  0.00     0.106 C
HETATM    7  C8  UNL     1      44.638  18.066  12.832  1.00  0.00     0.048 C
HETATM    8  C9  UNL     1      42.436  17.134  12.602  1.00  0.00     0.048 C
HETATM    9  N2  UNL     1      44.245  15.972  13.859  1.00  0.00    -0.342 N
ATOM     10  H2  UNL     1      45.005  16.100  14.527  1.00  0.00     0.163 HD
HETATM   11  C10 UNL     1      44.096  14.653  13.464  1.00  0.00     0.244 C
HETATM   12  O2  UNL     1      43.937  13.815  14.437  1.00  0.00    -0.271 OA
HETATM   13  C11 UNL     1      44.085  14.042  12.135  1.00  0.00     0.207 C
HETATM   14  C12 UNL     1      45.529  13.922  11.620  1.00  0.00     0.155 C
HETATM   15  C18 UNL     1      46.053  12.955  12.671  1.00  0.00     0.054 C
HETATM   16  C19 UNL     1      44.943  11.960  12.866  1.00  0.00     0.129 C
HETATM   17  N3  UNL     1      43.797  12.605  12.185  1.00  0.00    -0.344 N
HETATM   18  C20 UNL     1      42.676  11.945  11.648  1.00  0.00     0.171 C
HETATM   19  C21 UNL     1      41.283  12.050  11.895  1.00  0.00     0.116 C
HETATM   20  C22 UNL     1      40.537  12.343  13.140  1.00  0.00     0.146 C
HETATM   21  N4  UNL     1      40.419  13.765  13.341  1.00  0.00    -0.348 N
ATOM     22  H4  UNL     1      41.023  14.316  12.731  1.00  0.00     0.163 HD
HETATM   23  C27 UNL     1      39.651  14.529  14.194  1.00  0.00     0.247 C
HETATM   24  O6  UNL     1      38.904  15.453  13.673  1.00  0.00    -0.271 OA
HETATM   25  C28 UNL     1      39.506  14.499  15.668  1.00  0.00     0.224 C
HETATM   26  O7  UNL     1      39.509  15.850  16.182  1.00  0.00    -0.305 OA
HETATM   27  C33 UNL     1      40.537  16.724  16.112  1.00  0.00     0.283 C
HETATM   28  O8  UNL     1      40.315  17.908  15.680  1.00  0.00    -0.263 OA
ENDROOT
BRANCH  14  29
HETATM   29  O3  UNL     1      46.215  15.079  11.502  1.00  0.00    -0.378 OA
BRANCH  29  30
HETATM   30  C13 UNL     1      47.210  14.959  10.534  1.00  0.00     0.122 C
HETATM   31  C14 UNL     1      46.753  14.525   9.188  1.00  0.00     0.032 C
HETATM   32  C15 UNL     1      47.548  15.407   8.198  1.00  0.00     0.002 C
HETATM   33  C16 UNL     1      47.465  16.729   8.951  1.00  0.00     0.002 C
HETATM   34  C17 UNL     1      47.826  16.328  10.352  1.00  0.00     0.032 C
ENDBRANCH  29  30
ENDBRANCH  14  29
BRANCH  18  35
HETATM   35  O4  UNL     1      42.987  11.051  10.730  1.00  0.00    -0.344 OA
ATOM     36  H4  UNL     1      42.485  11.143   9.929  1.00  0.00     0.219 HD
ENDBRANCH  18  35
BRANCH  19  37
HETATM   37  O5  UNL     1      40.524  11.859  10.857  1.00  0.00    -0.359 OA
ATOM     38  H5  UNL     1      40.127  12.643  10.499  1.00  0.00     0.217 HD
ENDBRANCH  19  37
BRANCH  20  39
HETATM   39  C23 UNL     1      40.921  11.549  14.339  1.00  0.00     0.036 C
BRANCH  39  40
HETATM   40  C24 UNL     1      39.922  10.602  14.889  1.00  0.00    -0.020 C
HETATM   41  C25 UNL     1      38.653  10.556  14.022  1.00  0.00     0.009 C
HETATM   42  C26 UNL     1      40.375   9.275  15.345  1.00  0.00     0.009 C
ENDBRANCH  39  40
ENDBRANCH  20  39
BRANCH   1  43
HETATM   43  C3  UNL     1      41.943  16.243  17.966  1.00  0.00     0.014 C
HETATM   44  C4  UNL     1      41.081  17.212  18.746  1.00  0.00     0.012 C
BRANCH  43  45
HETATM   45  C2  UNL     1      41.812  14.856  18.468  1.00  0.00     0.002 C
HETATM   46  C1  UNL     1      42.300  13.743  17.632  1.00  0.00     0.005 C
ENDBRANCH  43  45
ENDBRANCH   1  43
BRANCH  25  47
HETATM   47  C29 UNL     1      38.151  13.941  16.067  1.00  0.00     0.046 C
BRANCH  47  48
HETATM   48  C30 UNL     1      38.339  13.031  17.244  1.00  0.00    -0.020 C
HETATM   49  C31 UNL     1      37.416  11.866  17.295  1.00  0.00     0.009 C
HETATM   50  C32 UNL     1      38.252  13.798  18.548  1.00  0.00     0.009 C
ENDBRANCH  47  48
ENDBRANCH  25  47
TORSDOF 10
ENDMDL