MODEL 5
REMARK VINA RESULT: -7.607926478      1.140      1.530
REMARK  11 active torsions:
REMARK  status: ('A' for Active; 'I' for Inactive)
REMARK    1  A    between atoms: C3_3  and  N1_4
REMARK       I    between atoms: N1_4  and  C4_6
REMARK    2  A    between atoms: C4_6  and  C5_8
REMARK    3  A    between atoms: C5_8  and  C7_10
REMARK    4  A    between atoms: N2_15  and  C11_16
REMARK    5  A    between atoms: C11_16  and  C13_18
REMARK    6  A    between atoms: C13_18  and  O3_19
REMARK    7  A    between atoms: C19_26  and  O4_27
REMARK    8  A    between atoms: C22_32  and  C23_33
REMARK    9  A    between atoms: C23_33  and  N3_34
REMARK   10  A    between atoms: N3_34  and  S1_36
REMARK   11  A    between atoms: S1_36  and  C25_39
ROOT
HETATM    1  C1  UNL     1      45.465  19.103  15.046  1.00  0.00     0.017 C
HETATM    2  C2  UNL     1      44.435  18.834  14.277  1.00  0.00    -0.051 C
HETATM    3  C3  UNL     1      44.081  17.403  14.093  1.00  0.00     0.206 C
HETATM    4  C10 UNL     1      43.841  16.595  15.261  1.00  0.00     0.247 C
HETATM    5  O2  UNL     1      44.789  16.384  16.100  1.00  0.00    -0.271 OA
HETATM    6  N2  UNL     1      42.589  15.949  15.629  1.00  0.00    -0.343 N
HETATM    7  C14 UNL     1      41.396  16.484  15.083  1.00  0.00     0.131 C
HETATM    8  C15 UNL     1      40.210  16.682  15.929  1.00  0.00     0.006 C
HETATM    9  C16 UNL     1      38.972  16.677  15.006  1.00  0.00     0.012 C
HETATM   10  C17 UNL     1      40.151  18.036  16.615  1.00  0.00     0.018 C
HETATM   11  C18 UNL     1      38.762  18.100  17.266  1.00  0.00     0.013 C
HETATM   12  C19 UNL     1      40.271  19.180  15.682  1.00  0.00     0.150 C
HETATM   13  C20 UNL     1      41.601  19.939  15.882  1.00  0.00     0.147 C
HETATM   14  C21 UNL     1      41.389  20.725  17.192  1.00  0.00     0.042 C
HETATM   15  O5  UNL     1      41.768  20.721  14.806  1.00  0.00    -0.377 OA
HETATM   16  C22 UNL     1      42.994  20.946  14.266  1.00  0.00     0.144 C
HETATM   17  C31 UNL     1      43.641  19.833  13.539  1.00  0.00     0.042 C
HETATM   18  C32 UNL     1      44.429  20.341  12.316  1.00  0.00     0.017 C
ENDROOT
BRANCH  16  19
HETATM   19  C23 UNL     1      43.898  21.852  15.069  1.00  0.00     0.139 C
BRANCH  19  20
HETATM   20  N3  UNL     1      44.076  23.136  14.432  1.00  0.00    -0.208 NA
HETATM   21  C24 UNL     1      43.558  24.150  15.350  1.00  0.00     0.129 C
BRANCH  20  22
HETATM   22  S1  UNL     1      45.709  23.562  14.131  1.00  0.00     0.243 S
HETATM   23  O6  UNL     1      46.658  22.556  14.731  1.00  0.00    -0.206 OA
HETATM   24  O7  UNL     1      46.050  24.949  14.618  1.00  0.00    -0.206 OA
BRANCH  22  25
HETATM   25  C25 UNL     1      45.980  23.571  12.405  1.00  0.00     0.074 A
HETATM   26  C26 UNL     1      45.017  23.902  11.475  1.00  0.00     0.026 A
HETATM   27  C27 UNL     1      45.278  23.894  10.135  1.00  0.00     0.025 A
HETATM   28  C28 UNL     1      46.544  23.542   9.712  1.00  0.00     0.034 A
HETATM   29 CL1  UNL     1      46.888  23.525   8.009  1.00  0.00    -0.084 Cl
HETATM   30  C29 UNL     1      47.524  23.206  10.638  1.00  0.00     0.025 A
HETATM   31  C30 UNL     1      47.260  23.216  11.978  1.00  0.00     0.026 A
ENDBRANCH  22  25
ENDBRANCH  20  22
ENDBRANCH  19  20
ENDBRANCH  16  19
BRANCH  12  32
HETATM   32  O4  UNL     1      39.280  20.154  15.943  1.00  0.00    -0.393 OA
ATOM     33  H4  UNL     1      38.796  19.943  16.734  1.00  0.00     0.210 HD
ENDBRANCH  12  32
BRANCH   3  34
HETATM   34  N1  UNL     1      45.216  16.840  13.353  1.00  0.00    -0.344 N
HETATM   35  C4  UNL     1      45.105  15.704  12.517  1.00  0.00     0.222 C
HETATM   36  O1  UNL     1      43.983  15.159  12.408  1.00  0.00    -0.273 OA
ATOM     37  H1  UNL     1      46.128  17.288  13.446  1.00  0.00     0.163 HD
BRANCH  35  38
HETATM   38  C5  UNL     1      46.245  15.136  11.772  1.00  0.00     0.077 C
HETATM   39  C6  UNL     1      47.365  14.689  12.705  1.00  0.00     0.020 C
BRANCH  38  40
HETATM   40  C7  UNL     1      46.834  16.154  10.833  1.00  0.00    -0.010 C
HETATM   41  C8  UNL     1      47.167  15.452   9.529  1.00  0.00     0.010 C
HETATM   42  C9  UNL     1      48.099  16.783  11.355  1.00  0.00     0.010 C
ENDBRANCH  38  40
ENDBRANCH  35  38
ENDBRANCH   3  34
BRANCH   6  43
HETATM   43  C11 UNL     1      42.683  14.789  16.498  1.00  0.00     0.106 C
HETATM   44  C12 UNL     1      42.059  15.013  17.872  1.00  0.00     0.034 C
BRANCH  43  45
HETATM   45  C13 UNL     1      42.196  13.525  15.868  1.00  0.00     0.189 C
BRANCH  45  46
HETATM   46  O3  UNL     1      42.828  13.216  14.680  1.00  0.00    -0.399 OA
ATOM     47  H3  UNL     1      42.530  13.735  13.942  1.00  0.00     0.209 HD
ENDBRANCH  45  46
ENDBRANCH  43  45
ENDBRANCH   6  43
TORSDOF 11
ENDMDL