MODEL 3
REMARK VINA RESULT: -5.325409498      1.026      1.169
REMARK  11 active torsions:
REMARK  status: ('A' for Active; 'I' for Inactive)
REMARK    1  A    between atoms: C2_2  and  C3_3
REMARK    2  A    between atoms: C3_3  and  C4_4
REMARK    3  A    between atoms: C5_7  and  O1_8
REMARK    4  A    between atoms: C6_10  and  C7_11
REMARK    5  A    between atoms: C7_11  and  C8_12
REMARK    6  A    between atoms: N2_15  and  S1_16
REMARK    7  A    between atoms: S1_16  and  C11_19
REMARK    8  A    between atoms: C16_27  and  C17_28
REMARK    9  A    between atoms: C26_42  and  C27_43
REMARK   10  A    between atoms: C27_43  and  C29_45
REMARK   11  A    between atoms: C31_47  and  O8_48
ROOT
HETATM    1  C4  UNL     1      41.562  12.848  12.114  1.00  0.00     0.114 C
HETATM    2  N1  UNL     1      42.055  14.043  12.671  1.00  0.00    -0.365 N
ATOM      3  H1  UNL     1      42.175  14.753  11.949  1.00  0.00     0.161 HD
HETATM    4  C5  UNL     1      42.427  14.542  13.913  1.00  0.00     0.138 C
HETATM    5  C6  UNL     1      41.612  14.901  15.103  1.00  0.00     0.195 C
HETATM    6  N2  UNL     1      40.965  16.134  15.009  1.00  0.00    -0.198 N
HETATM    7  N3  UNL     1      39.863  16.428  15.736  1.00  0.00    -0.251 N
HETATM    8  C14 UNL     1      40.096  17.034  17.071  1.00  0.00     0.182 C
HETATM    9  C15 UNL     1      38.510  16.303  15.397  1.00  0.00     0.261 C
HETATM   10  O4  UNL     1      37.730  17.333  15.469  1.00  0.00    -0.269 OA
HETATM   11  C16 UNL     1      37.772  15.070  14.930  1.00  0.00     0.181 C
HETATM   12  N4  UNL     1      36.984  15.508  13.809  1.00  0.00    -0.347 N
ATOM     13  H4  UNL     1      36.397  16.320  13.997  1.00  0.00     0.163 HD
HETATM   14  C20 UNL     1      36.883  15.012  12.504  1.00  0.00     0.223 C
HETATM   15  O5  UNL     1      37.292  15.836  11.588  1.00  0.00    -0.273 OA
HETATM   16  C21 UNL     1      36.397  13.733  11.990  1.00  0.00     0.087 C
HETATM   17  C22 UNL     1      34.921  13.561  12.313  1.00  0.00     0.020 C
HETATM   18  C23 UNL     1      37.219  12.516  12.313  1.00  0.00     0.094 C
HETATM   19  C24 UNL     1      36.220  11.344  12.327  1.00  0.00     0.021 C
HETATM   20  C25 UNL     1      38.184  12.196  11.238  1.00  0.00     0.264 C
HETATM   21  O6  UNL     1      37.826  12.480  10.070  1.00  0.00    -0.265 OA
HETATM   22  O7  UNL     1      39.379  11.632  11.501  1.00  0.00    -0.313 OA
HETATM   23  C26 UNL     1      39.901  11.060  12.668  1.00  0.00     0.166 C
HETATM   24  C31 UNL     1      41.209  11.707  12.991  1.00  0.00     0.170 C
ENDROOT
BRANCH   6  25
HETATM   25  S1  UNL     1      41.568  17.456  14.235  1.00  0.00     0.271 S
HETATM   26  O2  UNL     1      42.691  18.209  14.800  1.00  0.00    -0.200 OA
HETATM   27  O3  UNL     1      42.048  17.022  12.844  1.00  0.00    -0.200 OA
BRANCH  25  28
HETATM   28  C11 UNL     1      40.277  18.602  13.881  1.00  0.00     0.170 C
HETATM   29  C12 UNL     1      40.121  19.710  14.579  1.00  0.00     0.102 C
HETATM   30  C13 UNL     1      39.021  20.641  14.242  1.00  0.00     0.082 C
HETATM   31  F1  UNL     1      40.976  19.971  15.593  1.00  0.00    -0.211 F
ENDBRANCH  25  28
ENDBRANCH   6  25
BRANCH   5  32
HETATM   32  C7  UNL     1      42.457  14.843  16.342  1.00  0.00     0.040 C
BRANCH  32  33
HETATM   33  C8  UNL     1      42.186  13.740  17.303  1.00  0.00    -0.020 C
HETATM   34  C9  UNL     1      40.949  12.980  16.966  1.00  0.00     0.009 C
HETATM   35  C10 UNL     1      42.187  14.223  18.745  1.00  0.00     0.009 C
ENDBRANCH  32  33
ENDBRANCH   5  32
BRANCH   4  36
HETATM   36  O1  UNL     1      43.695  14.756  14.128  1.00  0.00    -0.348 OA
ATOM     37  H1  UNL     1      44.298  14.036  13.979  1.00  0.00     0.219 HD
ENDBRANCH   4  36
BRANCH  11  38
HETATM   38  C17 UNL     1      36.966  14.644  16.143  1.00  0.00     0.009 C
HETATM   39  C18 UNL     1      35.501  14.727  15.878  1.00  0.00     0.012 C
HETATM   40  C19 UNL     1      37.361  13.285  16.683  1.00  0.00     0.012 C
ENDBRANCH  11  38
BRANCH   1  41
HETATM   41  C3  UNL     1      42.494  12.384  10.974  1.00  0.00     0.027 C
BRANCH  41  42
HETATM   42  C2  UNL     1      43.728  13.208  10.877  1.00  0.00    -0.002 C
HETATM   43  C1  UNL     1      44.877  12.224  10.570  1.00  0.00     0.005 C
ENDBRANCH  41  42
ENDBRANCH   1  41
BRANCH  24  44
HETATM   44  O8  UNL     1      42.296  10.802  12.863  1.00  0.00    -0.391 OA
ATOM     45  H8  UNL     1      42.296  10.306  13.673  1.00  0.00     0.210 HD
ENDBRANCH  24  44
BRANCH  23  46
HETATM   46  C27 UNL     1      39.878   9.561  12.645  1.00  0.00     0.013 C
HETATM   47  C28 UNL     1      39.151   8.905  13.791  1.00  0.00     0.012 C
BRANCH  46  48
HETATM   48  C29 UNL     1      39.793   8.896  11.338  1.00  0.00     0.002 C
HETATM   49  C30 UNL     1      38.548   8.253  10.896  1.00  0.00     0.005 C
ENDBRANCH  46  48
ENDBRANCH  23  46
TORSDOF 11
ENDMDL