MODEL 2
REMARK VINA RESULT: -8.782528046      1.915      3.733
REMARK  10 active torsions:
REMARK  status: ('A' for Active; 'I' for Inactive)
REMARK    1  A    between atoms: C2_2  and  C3_3
REMARK    2  A    between atoms: C5_5  and  C6_6
REMARK    3  A    between atoms: C8_8  and  C9_9
REMARK    4  A    between atoms: C9_9  and  O1_10
REMARK    5  A    between atoms: C12_14  and  C14_16
REMARK    6  A    between atoms: C14_16  and  O2_17
REMARK    7  A    between atoms: O2_17  and  C15_18
REMARK    8  A    between atoms: C19_26  and  C20_27
REMARK    9  A    between atoms: C21_29  and  O4_31
REMARK   10  A    between atoms: C31_43  and  O6_44
ROOT
HETATM    1  C15 UNL     1      44.249  18.948  13.868  1.00  0.00     0.318 C
HETATM    2  C16 UNL     1      44.461  18.592  15.359  1.00  0.00     0.268 C
HETATM    3  O3  UNL     1      45.382  19.248  15.852  1.00  0.00    -0.269 OA
HETATM    4  N1  UNL     1      43.777  17.672  16.174  1.00  0.00    -0.340 N
ATOM      5  H1  UNL     1      44.010  17.770  17.162  1.00  0.00     0.164 HD
HETATM    6  C17 UNL     1      42.814  16.617  15.926  1.00  0.00     0.200 C
HETATM    7  C18 UNL     1      42.784  15.707  17.085  1.00  0.00     0.085 C
HETATM    8  N2  UNL     1      42.775  14.967  18.002  1.00  0.00    -0.195 NA
HETATM    9  C19 UNL     1      41.425  17.083  15.679  1.00  0.00     0.076 C
HETATM   10  C21 UNL     1      41.082  17.380  14.245  1.00  0.00     0.142 C
HETATM   11  C22 UNL     1      41.361  16.249  13.299  1.00  0.00     0.057 C
HETATM   12  C23 UNL     1      41.603  18.681  13.759  1.00  0.00     0.256 C
HETATM   13  O5  UNL     1      40.753  19.392  13.117  1.00  0.00    -0.270 OA
HETATM   14  N3  UNL     1      42.837  19.407  13.799  1.00  0.00    -0.319 N
HETATM   15  C24 UNL     1      42.704  20.847  13.794  1.00  0.00     0.155 C
ENDROOT
BRANCH   9  16
HETATM   16  C20 UNL     1      41.099  18.287  16.513  1.00  0.00     0.096 C
HETATM   17 BR1  UNL     1      39.776  17.887  17.864  1.00  0.00    -0.096 Br
ENDBRANCH   9  16
BRANCH  10  18
HETATM   18  O4  UNL     1      39.668  17.521  14.237  1.00  0.00    -0.380 OA
ATOM     19  H4  UNL     1      39.487  18.077  13.488  1.00  0.00     0.211 HD
ENDBRANCH  10  18
BRANCH   1  20
HETATM   20  O2  UNL     1      44.510  17.901  13.111  1.00  0.00    -0.357 OA
BRANCH  20  21
HETATM   21  C14 UNL     1      45.593  17.217  12.861  1.00  0.00     0.181 C
BRANCH  21  22
HETATM   22  C12 UNL     1      45.622  15.712  12.836  1.00  0.00    -0.012 C
HETATM   23  C11 UNL     1      46.722  15.245  11.936  1.00  0.00     0.053 C
HETATM   24  C10 UNL     1      46.653  16.037  10.651  1.00  0.00    -0.013 C
HETATM   25  C31 UNL     1      46.659  13.817  11.470  1.00  0.00     0.073 C
HETATM   26  C8  UNL     1      47.739  16.157   9.839  1.00  0.00    -0.059 C
HETATM   27  C7  UNL     1      49.085  15.551  10.093  1.00  0.00     0.044 C
HETATM   28  C6  UNL     1      48.912  14.010  10.254  1.00  0.00     0.015 C
HETATM   29  C33 UNL     1      47.516  13.609  10.210  1.00  0.00     0.048 C
HETATM   30  C27 UNL     1      45.241  13.745  10.912  1.00  0.00     0.034 A
HETATM   31  C26 UNL     1      44.445  13.708  12.240  1.00  0.00     0.002 A
HETATM   32  C28 UNL     1      44.175  12.865  11.144  1.00  0.00    -0.037 A
HETATM   33  C25 UNL     1      44.275  15.167  12.505  1.00  0.00     0.018 C
HETATM   34  C29 UNL     1      44.476  11.376  11.248  1.00  0.00     0.015 C
HETATM   35  C30 UNL     1      42.874  13.099  10.374  1.00  0.00     0.015 C
HETATM   36  C13 UNL     1      45.925  15.329  14.304  1.00  0.00     0.018 C
BRANCH  26  37
HETATM   37  C9  UNL     1      47.640  16.933   8.598  1.00  0.00     0.198 C
BRANCH  37  38
HETATM   38  O1  UNL     1      48.189  18.211   8.702  1.00  0.00    -0.397 OA
ATOM     39  H1  UNL     1      48.033  18.619   9.546  1.00  0.00     0.209 HD
ENDBRANCH  37  38
ENDBRANCH  26  37
BRANCH  28  40
HETATM   40  C5  UNL     1      49.712  13.394   9.178  1.00  0.00    -0.015 C
HETATM   41  C3  UNL     1      49.838  12.242   8.654  1.00  0.00    -0.066 C
HETATM   42  C4  UNL     1      50.883  12.172   7.517  1.00  0.00     0.048 C
BRANCH  41  43
HETATM   43  C2  UNL     1      49.192  10.987   8.921  1.00  0.00    -0.004 C
HETATM   44  C1  UNL     1      48.188  10.567   8.113  1.00  0.00     0.012 C
ENDBRANCH  41  43
ENDBRANCH  28  40
BRANCH  25  45
HETATM   45  O6  UNL     1      46.760  12.831  12.359  1.00  0.00    -0.384 OA
HETATM   46  C32 UNL     1      47.615  11.820  12.319  1.00  0.00     0.202 C
ENDBRANCH  25  45
ENDBRANCH  21  22
ENDBRANCH  20  21
ENDBRANCH   1  20
TORSDOF 10
ENDMDL