MODEL 3
REMARK VINA RESULT: -6.826397829      4.500      7.859
REMARK  7 active torsions:
REMARK  status: ('A' for Active; 'I' for Inactive)
REMARK    1  A    between atoms: C5_5  and  C6_6
REMARK    2  A    between atoms: N1_7  and  N2_9
REMARK    3  A    between atoms: N2_9  and  C7_11
REMARK    4  A    between atoms: C8_14  and  N4_15
REMARK    5  A    between atoms: N4_15  and  N5_17
REMARK    6  A    between atoms: C10_24  and  S1_25
REMARK    7  A    between atoms: S1_25  and  C11_26
ROOT
HETATM    1  C11 UNL     1     -32.300 -12.120 -19.100  1.00  0.00     0.204 C
HETATM    2  C12 UNL     1     -31.769 -12.560 -20.387  1.00  0.00     0.069 C
HETATM    3  N7  UNL     1     -31.355 -12.902 -21.426  1.00  0.00    -0.197 NA
ENDROOT
BRANCH   1   4
HETATM    4  S1  UNL     1     -31.022 -11.231 -18.198  1.00  0.00    -0.096 SA
BRANCH   4   5
HETATM    5  C10 UNL     1     -30.821 -11.971 -16.580  1.00  0.00     0.108 A
HETATM    6  N6  UNL     1     -31.496 -13.076 -16.248  1.00  0.00    -0.183 N
HETATM    7  C8  UNL     1     -31.292 -13.577 -15.009  1.00  0.00     0.699 A
ATOM      8  H6  UNL     1     -32.138 -13.523 -16.903  1.00  0.00     0.185 HD
HETATM    9  N3  UNL     1     -30.434 -12.970 -14.151  1.00  0.00    -0.172 N
HETATM   10  C7  UNL     1     -29.753 -11.860 -14.478  1.00  0.00     0.156 A
ATOM     11  H3  UNL     1     -30.301 -13.373 -13.223  1.00  0.00     0.186 HD
HETATM   12  C13 UNL     1     -29.937 -11.332 -15.719  1.00  0.00     0.091 A
HETATM   13  S2  UNL     1     -29.062  -9.850 -16.226  1.00  0.00    -0.045 SA
BRANCH   7  14
HETATM   14  N4  UNL     1     -31.948 -14.639 -14.706  1.00  0.00    -0.130 N
ATOM     15  H4  UNL     1     -31.914 -15.424 -15.357  1.00  0.00     0.205 HD
BRANCH  14  16
HETATM   16  N5  UNL     1     -32.702 -14.787 -13.543  1.00  0.00    -0.266 N
HETATM   17  C9  UNL     1     -33.935 -14.449 -13.519  1.00  0.00     0.190 C
HETATM   18 CL1  UNL     1     -34.894 -14.634 -12.052  1.00  0.00    -0.050 Cl
HETATM   19 CL2  UNL     1     -34.690 -13.798 -14.939  1.00  0.00    -0.050 Cl
ATOM     20  H5  UNL     1     -32.267 -15.170 -12.704  1.00  0.00     0.189 HD
ENDBRANCH  14  16
ENDBRANCH   7  14
BRANCH  10  21
HETATM   21  N2  UNL     1     -28.951 -11.324 -13.626  1.00  0.00    -0.284 N
ATOM     22  H2  UNL     1     -28.328 -10.564 -13.902  1.00  0.00     0.188 HD
BRANCH  21  23
HETATM   23  N1  UNL     1     -28.953 -11.801 -12.325  1.00  0.00    -0.309 N
HETATM   24  C6  UNL     1     -29.460 -11.113 -11.384  1.00  0.00     0.126 C
ATOM     25  H1  UNL     1     -28.545 -12.713 -12.120  1.00  0.00     0.186 HD
BRANCH  24  26
HETATM   26  C5  UNL     1     -30.045  -9.795 -11.707  1.00  0.00     0.022 A
HETATM   27  C4  UNL     1     -29.414  -8.577 -11.703  1.00  0.00     0.021 A
HETATM   28  C3  UNL     1     -30.149  -7.502 -12.033  1.00  0.00     0.015 A
HETATM   29  C2  UNL     1     -31.458  -7.705 -12.344  1.00  0.00    -0.021 A
HETATM   30  C1  UNL     1     -32.493  -6.693 -12.745  1.00  0.00     0.056 C
HETATM   31  S3  UNL     1     -31.640  -9.390 -12.172  1.00  0.00    -0.094 SA
ENDBRANCH  24  26
ENDBRANCH  21  23
ENDBRANCH  10  21
ENDBRANCH   4   5
ENDBRANCH   1   4
TORSDOF 7
ENDMDL