MODEL 2
REMARK VINA RESULT: -8.091626927      2.883      3.897
REMARK  5 active torsions:
REMARK  status: ('A' for Active; 'I' for Inactive)
REMARK    1  A    between atoms: C4_8  and  C5_9
REMARK    2  A    between atoms: C7_11  and  O3_12
REMARK    3  A    between atoms: O3_12  and  C8_13
REMARK    4  A    between atoms: C12_21  and  N3_22
REMARK    5  A    between atoms: C14_26  and  N4_27
ROOT
HETATM    1  C5  UNL     1     -29.315 -10.745 -15.806  1.00  0.00     0.003 A
HETATM    2  C6  UNL     1     -29.951 -11.938 -15.468  1.00  0.00     0.054 A
HETATM    3  C7  UNL     1     -30.792 -12.597 -16.341  1.00  0.00     0.111 A
HETATM    4  C12 UNL     1     -31.005 -12.057 -17.584  1.00  0.00     0.139 A
HETATM    5  C13 UNL     1     -30.361 -10.861 -17.901  1.00  0.00     0.075 A
HETATM    6  C14 UNL     1     -29.524 -10.186 -17.053  1.00  0.00     0.115 A
ENDROOT
BRANCH   1   7
HETATM    7  C4  UNL     1     -28.468 -10.088 -14.826  1.00  0.00     0.057 C
HETATM    8  C3  UNL     1     -28.895  -9.232 -13.926  1.00  0.00     0.149 A
HETATM    9  C2  UNL     1     -30.211  -8.696 -13.634  1.00  0.00     0.283 A
HETATM   10  O8  UNL     1     -28.036  -8.623 -12.982  1.00  0.00    -0.255 OA
HETATM   11  N1  UNL     1     -30.074  -7.795 -12.530  1.00  0.00    -0.267 N
HETATM   12  O2  UNL     1     -31.262  -8.981 -14.249  1.00  0.00    -0.265 OA
HETATM   13  C1  UNL     1     -28.727  -7.774 -12.156  1.00  0.00     0.373 A
ATOM     14  H1  UNL     1     -30.827  -7.262 -12.095  1.00  0.00     0.174 HD
HETATM   15  O1  UNL     1     -28.270  -7.077 -11.212  1.00  0.00    -0.238 OA
ENDBRANCH   1   7
BRANCH   6  16
HETATM   16  N4  UNL     1     -28.930  -8.939 -17.433  1.00  0.00    -0.115 N
HETATM   17  O6  UNL     1     -27.841  -8.841 -18.025  1.00  0.00    -0.532 OA
HETATM   18  O7  UNL     1     -29.591  -7.776 -17.123  1.00  0.00    -0.532 OA
ENDBRANCH   6  16
BRANCH   3  19
HETATM   19  O3  UNL     1     -31.412 -13.787 -15.960  1.00  0.00    -0.289 OA
BRANCH  19  20
HETATM   20  C8  UNL     1     -32.107 -13.922 -14.760  1.00  0.00     0.171 A
HETATM   21  N2  UNL     1     -31.698 -14.590 -13.643  1.00  0.00    -0.326 N
HETATM   22  C9  UNL     1     -32.636 -14.507 -12.685  1.00  0.00     0.107 A
ATOM     23  H2  UNL     1     -30.809 -15.082 -13.550  1.00  0.00     0.169 HD
HETATM   24 CL1  UNL     1     -32.615 -15.179 -11.069  1.00  0.00    -0.064 Cl
HETATM   25  C10 UNL     1     -33.670 -13.760 -13.213  1.00  0.00     0.070 A
HETATM   26  C11 UNL     1     -33.344 -13.395 -14.505  1.00  0.00     0.088 A
HETATM   27 CL2  UNL     1     -34.366 -12.438 -15.550  1.00  0.00    -0.080 Cl
ENDBRANCH  19  20
ENDBRANCH   3  19
BRANCH   4  28
HETATM   28  N3  UNL     1     -31.830 -12.676 -18.589  1.00  0.00    -0.113 N
HETATM   29  O4  UNL     1     -32.996 -12.298 -18.743  1.00  0.00    -0.532 OA
HETATM   30  O5  UNL     1     -31.271 -13.703 -19.302  1.00  0.00    -0.532 OA
ENDBRANCH   4  28
TORSDOF 5
ENDMDL