MODEL 3
REMARK VINA RESULT: -7.880439635      2.098      2.601
REMARK  7 active torsions:
REMARK  status: ('A' for Active; 'I' for Inactive)
REMARK    1  A    between atoms: C3_4  and  N2_5
REMARK    2  A    between atoms: C4_7  and  C5_8
REMARK    3  A    between atoms: C6_9  and  C7_10
REMARK    4  A    between atoms: C11_15  and  O2_16
REMARK    5  A    between atoms: C12_18  and  C13_19
REMARK    6  A    between atoms: C13_19  and  C14_21
REMARK    7  A    between atoms: N3_29  and  O4_30
ROOT
HETATM    1  N1  UNL     1     -32.075 -12.854 -21.376  1.00  0.00    -0.191 NA
HETATM    2  C1  UNL     1     -31.676 -12.550 -20.322  1.00  0.00     0.107 C
HETATM    3  C2  UNL     1     -31.195 -12.151 -19.017  1.00  0.00     0.144 A
HETATM    4  C3  UNL     1     -31.522 -12.972 -17.955  1.00  0.00     0.094 A
HETATM    5  C11 UNL     1     -31.058 -12.583 -16.724  1.00  0.00     0.127 A
HETATM    6  C12 UNL     1     -30.294 -11.405 -16.571  1.00  0.00     0.152 A
HETATM    7  N3  UNL     1     -29.993 -10.630 -17.622  1.00  0.00    -0.180 N
HETATM    8  C20 UNL     1     -30.447 -11.010 -18.839  1.00  0.00     0.295 A
HETATM    9  O5  UNL     1     -30.154 -10.267 -19.810  1.00  0.00    -0.264 OA
ENDROOT
BRANCH   4  10
HETATM   10  N2  UNL     1     -32.302 -14.150 -18.096  1.00  0.00    -0.362 N
HETATM   11  C4  UNL     1     -33.579 -14.018 -17.920  1.00  0.00     0.088 C
ATOM     12  H2  UNL     1     -31.880 -15.051 -18.322  1.00  0.00     0.165 HD
BRANCH  11  13
HETATM   13  C5  UNL     1     -34.506 -15.140 -18.032  1.00  0.00     0.020 C
HETATM   14  C6  UNL     1     -34.781 -15.727 -19.170  1.00  0.00     0.038 C
BRANCH  14  15
HETATM   15  C7  UNL     1     -35.719 -16.854 -19.232  1.00  0.00     0.074 A
HETATM   16  C8  UNL     1     -36.860 -16.888 -20.034  1.00  0.00     0.039 A
HETATM   17  C9  UNL     1     -37.460 -18.097 -19.809  1.00  0.00     0.027 A
HETATM   18  C10 UNL     1     -36.674 -18.747 -18.891  1.00  0.00     0.142 A
HETATM   19  O1  UNL     1     -35.676 -17.976 -18.592  1.00  0.00    -0.323 OA
ENDBRANCH  14  15
ENDBRANCH  11  13
ENDBRANCH   4  10
BRANCH   5  20
HETATM   20  O2  UNL     1     -31.341 -13.354 -15.605  1.00  0.00    -0.356 OA
ATOM     21  H2  UNL     1     -32.050 -13.986 -15.634  1.00  0.00     0.218 HD
ENDBRANCH   5  20
BRANCH   7  22
HETATM   22  O4  UNL     1     -29.212  -9.480 -17.509  1.00  0.00    -0.279 OA
ATOM     23  H4  UNL     1     -28.344  -9.411 -17.889  1.00  0.00     0.245 HD
ENDBRANCH   7  22
BRANCH   6  24
HETATM   24  C13 UNL     1     -29.827 -11.093 -15.241  1.00  0.00     0.215 C
HETATM   25  O3  UNL     1     -28.685 -11.539 -14.858  1.00  0.00    -0.285 OA
BRANCH  24  26
HETATM   26  C14 UNL     1     -30.536 -10.312 -14.272  1.00  0.00     0.040 A
HETATM   27  C15 UNL     1     -30.809  -8.980 -14.487  1.00  0.00     0.017 A
HETATM   28  C16 UNL     1     -31.497  -8.214 -13.569  1.00  0.00     0.003 A
HETATM   29  C17 UNL     1     -31.917  -8.818 -12.404  1.00  0.00     0.026 A
HETATM   30  C18 UNL     1     -31.667 -10.140 -12.151  1.00  0.00     0.056 A
HETATM   31 CL1  UNL     1     -32.233 -10.845 -10.652  1.00  0.00    -0.083 Cl
HETATM   32  C19 UNL     1     -30.980 -10.877 -13.084  1.00  0.00     0.070 A
HETATM   33 CL2  UNL     1     -30.668 -12.560 -12.694  1.00  0.00    -0.081 Cl
ENDBRANCH  24  26
ENDBRANCH   6  24
TORSDOF 7
ENDMDL