MODEL 1
REMARK VINA RESULT: -8.462669946      0.000      0.000
REMARK  6 active torsions:
REMARK  status: ('A' for Active; 'I' for Inactive)
REMARK    1  A    between atoms: C4_4  and  O1_5
REMARK    2  A    between atoms: C5_7  and  N1_8
REMARK    3  A    between atoms: C7_12  and  N2_13
REMARK    4  A    between atoms: C8_16  and  O6_17
REMARK    5  A    between atoms: O6_17  and  N3_18
REMARK       I    between atoms: C9_20  and  N5_22
REMARK    6  A    between atoms: N6_24  and  C10_26
ROOT
HETATM    1  C1  UNL     1     -33.952 -12.702 -15.446  1.00  0.00     0.018 C
HETATM    2  C2  UNL     1     -33.207 -12.320 -16.333  1.00  0.00    -0.072 C
HETATM    3  C3  UNL     1     -32.314 -11.846 -17.373  1.00  0.00     0.090 A
HETATM    4  C4  UNL     1     -31.458 -10.840 -17.109  1.00  0.00     0.120 A
HETATM    5  C5  UNL     1     -30.623 -10.404 -18.102  1.00  0.00     0.140 A
HETATM    6  C6  UNL     1     -30.657 -10.985 -19.344  1.00  0.00     0.078 A
HETATM    7  C7  UNL     1     -31.550 -12.035 -19.614  1.00  0.00     0.142 A
HETATM    8  C8  UNL     1     -32.396 -12.490 -18.644  1.00  0.00     0.153 A
ENDROOT
BRANCH   4   9
HETATM    9  O1  UNL     1     -31.422 -10.249 -15.852  1.00  0.00    -0.357 OA
ATOM     10  H1  UNL     1     -30.729 -10.459 -15.238  1.00  0.00     0.218 HD
ENDBRANCH   4   9
BRANCH   8  11
HETATM   11  O6  UNL     1     -33.285 -13.465 -18.765  1.00  0.00    -0.231 OA
BRANCH  11  12
HETATM   12  N3  UNL     1     -33.616 -14.523 -19.416  1.00  0.00    -0.231 N
HETATM   13  C9  UNL     1     -34.488 -15.406 -19.004  1.00  0.00     0.227 C
HETATM   14  N4  UNL     1     -35.095 -15.158 -17.755  1.00  0.00    -0.060 NA
HETATM   15  N5  UNL     1     -34.713 -16.490 -19.857  1.00  0.00    -0.272 N
HETATM   16  N6  UNL     1     -35.371 -17.527 -19.695  1.00  0.00    -0.297 N
ATOM     17  H5  UNL     1     -34.260 -16.413 -20.767  1.00  0.00     0.189 HD
ATOM     18  H6  UNL     1     -35.416 -18.211 -20.450  1.00  0.00     0.187 HD
ATOM     19  H3  UNL     1     -33.168 -14.684 -20.318  1.00  0.00     0.197 HD
BRANCH  16  20
HETATM   20  C10 UNL     1     -36.058 -17.785 -18.491  1.00  0.00     0.070 A
HETATM   21  C11 UNL     1     -35.410 -18.202 -17.343  1.00  0.00     0.034 A
HETATM   22  C12 UNL     1     -36.135 -18.439 -16.220  1.00  0.00     0.026 A
HETATM   23  C13 UNL     1     -37.500 -18.267 -16.220  1.00  0.00     0.035 A
HETATM   24 CL1  UNL     1     -38.362 -18.595 -14.728  1.00  0.00    -0.084 Cl
HETATM   25  C14 UNL     1     -38.165 -17.853 -17.355  1.00  0.00     0.050 A
HETATM   26  C15 UNL     1     -37.432 -17.611 -18.499  1.00  0.00     0.063 A
HETATM   27 CL2  UNL     1     -38.233 -17.081 -19.976  1.00  0.00    -0.082 Cl
ENDBRANCH  16  20
ENDBRANCH  11  12
ENDBRANCH   8  11
BRANCH   5  28
HETATM   28  N1  UNL     1     -29.718  -9.341 -17.831  1.00  0.00    -0.113 N
HETATM   29  O2  UNL     1     -28.537  -9.484 -18.202  1.00  0.00    -0.532 OA
HETATM   30  O3  UNL     1     -30.104  -8.181 -17.184  1.00  0.00    -0.532 OA
ENDBRANCH   5  28
BRANCH   7  31
HETATM   31  N2  UNL     1     -31.533 -12.579 -20.918  1.00  0.00    -0.113 N
HETATM   32  O4  UNL     1     -32.426 -13.133 -21.532  1.00  0.00    -0.532 OA
HETATM   33  O5  UNL     1     -30.297 -12.515 -21.609  1.00  0.00    -0.532 OA
ENDBRANCH   7  31
TORSDOF 6
ENDMDL