MODEL 3
REMARK VINA RESULT: -7.001496513      4.129      5.607
REMARK  7 active torsions:
REMARK  status: ('A' for Active; 'I' for Inactive)
REMARK    1  A    between atoms: C2_3  and  O1_4
REMARK    2  A    between atoms: C3_6  and  N2_7
REMARK    3  A    between atoms: N3_9  and  C4_11
REMARK    4  A    between atoms: C4_11  and  C5_12
REMARK    5  A    between atoms: C5_12  and  C6_13
REMARK    6  A    between atoms: N4_16  and  N5_18
REMARK    7  A    between atoms: C7_20  and  C8_21
ROOT
HETATM    1  C4  UNL     1     -34.726 -15.151 -17.568  1.00  0.00     0.120 C
HETATM    2  N4  UNL     1     -34.060 -14.833 -18.603  1.00  0.00    -0.288 N
ATOM      3  H4  UNL     1     -34.110 -15.407 -19.444  1.00  0.00     0.188 HD
ENDROOT
BRANCH   1   4
HETATM    4  N3  UNL     1     -34.651 -14.352 -16.408  1.00  0.00    -0.286 N
HETATM    5  N2  UNL     1     -34.236 -14.836 -15.303  1.00  0.00    -0.289 N
ATOM      6  H2  UNL     1     -33.944 -15.809 -15.211  1.00  0.00     0.188 HD
ATOM      7  H3  UNL     1     -34.931 -13.373 -16.453  1.00  0.00     0.188 HD
BRANCH   5   8
HETATM    8  C3  UNL     1     -34.207 -13.913 -14.191  1.00  0.00     0.145 A
HETATM    9  C2  UNL     1     -33.402 -13.953 -13.080  1.00  0.00     0.181 A
HETATM   10  N1  UNL     1     -33.545 -13.011 -12.193  1.00  0.00    -0.291 N
HETATM   11  C1  UNL     1     -32.729 -12.952 -10.952  1.00  0.00     0.162 C
HETATM   12  C14 UNL     1     -34.458 -12.064 -12.408  1.00  0.00     0.294 A
HETATM   13  S1  UNL     1     -35.138 -12.511 -13.906  1.00  0.00    -0.005 SA
HETATM   14  O4  UNL     1     -34.749 -11.060 -11.662  1.00  0.00    -0.259 OA
BRANCH   9  15
HETATM   15  O1  UNL     1     -32.461 -15.021 -12.965  1.00  0.00    -0.344 OA
ATOM     16  H1  UNL     1     -32.224 -15.598 -13.681  1.00  0.00     0.219 HD
ENDBRANCH   9  15
ENDBRANCH   5   8
ENDBRANCH   1   4
BRANCH   1  17
HETATM   17  C5  UNL     1     -35.580 -16.351 -17.562  1.00  0.00     0.192 C
BRANCH  17  18
HETATM   18  C6  UNL     1     -35.618 -17.114 -18.801  1.00  0.00     0.179 C
HETATM   19  O2  UNL     1     -35.325 -18.331 -18.820  1.00  0.00    -0.648 OA
HETATM   20  O3  UNL     1     -35.988 -16.463 -19.967  1.00  0.00    -0.648 OA
ENDBRANCH  17  18
ENDBRANCH   1  17
BRANCH   2  21
HETATM   21  N5  UNL     1     -33.261 -13.693 -18.576  1.00  0.00    -0.310 N
HETATM   22  C7  UNL     1     -31.976 -13.723 -18.686  1.00  0.00     0.122 C
ATOM     23  H5  UNL     1     -33.715 -12.787 -18.463  1.00  0.00     0.186 HD
BRANCH  22  24
HETATM   24  C8  UNL     1     -31.264 -12.453 -18.641  1.00  0.00     0.024 A
HETATM   25  C9  UNL     1     -30.994 -11.745 -19.802  1.00  0.00     0.047 A
HETATM   26 CL1  UNL     1     -31.526 -12.403 -21.331  1.00  0.00    -0.083 Cl
HETATM   27  C10 UNL     1     -30.320 -10.546 -19.739  1.00  0.00     0.025 A
HETATM   28  C11 UNL     1     -29.912 -10.046 -18.533  1.00  0.00     0.003 A
HETATM   29  C12 UNL     1     -30.192 -10.773 -17.382  1.00  0.00     0.025 A
HETATM   30  C13 UNL     1     -30.864 -11.974 -17.412  1.00  0.00     0.047 A
HETATM   31 CL2  UNL     1     -31.206 -12.870 -15.948  1.00  0.00    -0.083 Cl
ENDBRANCH  22  24
ENDBRANCH   2  21
TORSDOF 7
ENDMDL