MODEL 5
REMARK VINA RESULT: -7.823263520      3.175      7.334
REMARK  6 active torsions:
REMARK  status: ('A' for Active; 'I' for Inactive)
REMARK    1  A    between atoms: C1_2  and  C2_3
REMARK       I    between atoms: C1_2  and  N2_17
REMARK    2  A    between atoms: N1_4  and  C3_6
REMARK    3  A    between atoms: C3_6  and  C4_7
REMARK    4  A    between atoms: C5_8  and  O2_9
REMARK    5  A    between atoms: N2_17  and  C10_19
REMARK    6  A    between atoms: C11_20  and  N3_21
ROOT
HETATM    1  O1  UNL     1     -32.321 -11.402 -18.891  1.00  0.00    -0.267 OA
HETATM    2  C1  UNL     1     -31.390 -12.227 -18.632  1.00  0.00     0.261 C
HETATM    3  N2  UNL     1     -30.385 -11.874 -17.756  1.00  0.00    -0.319 N
ATOM      4  H2  UNL     1     -29.666 -12.579 -17.591  1.00  0.00     0.169 HD
ENDROOT
BRANCH   2   5
HETATM    5  C2  UNL     1     -31.456 -13.523 -19.305  1.00  0.00     0.162 C
HETATM    6  N1  UNL     1     -32.442 -14.115 -19.669  1.00  0.00    -0.369 N
ATOM      7  H1  UNL     1     -32.059 -14.961 -20.090  1.00  0.00     0.164 HD
BRANCH   6   8
HETATM    8  C3  UNL     1     -33.798 -14.275 -19.829  1.00  0.00     0.105 C
BRANCH   8   9
HETATM    9  C4  UNL     1     -34.405 -15.058 -18.668  1.00  0.00     0.053 A
HETATM   10  C5  UNL     1     -34.901 -16.335 -18.953  1.00  0.00     0.080 A
HETATM   11  C6  UNL     1     -35.502 -17.082 -17.994  1.00  0.00     0.039 A
HETATM   12  C7  UNL     1     -35.651 -16.597 -16.683  1.00  0.00     0.030 A
HETATM   13  C8  UNL     1     -35.146 -15.320 -16.409  1.00  0.00     0.073 A
HETATM   14 CL1  UNL     1     -35.338 -14.734 -14.782  1.00  0.00    -0.081 Cl
HETATM   15  C9  UNL     1     -34.530 -14.564 -17.401  1.00  0.00     0.152 A
HETATM   16  F1  UNL     1     -34.063 -13.304 -17.103  1.00  0.00    -0.203 F
BRANCH  10  17
HETATM   17  O2  UNL     1     -34.747 -16.804 -20.265  1.00  0.00    -0.360 OA
ATOM     18  H2  UNL     1     -34.134 -17.516 -20.403  1.00  0.00     0.217 HD
ENDBRANCH  10  17
ENDBRANCH   8   9
ENDBRANCH   6   8
ENDBRANCH   2   5
BRANCH   3  19
HETATM   19  C10 UNL     1     -30.232 -10.651 -17.060  1.00  0.00     0.088 A
HETATM   20  C11 UNL     1     -29.536  -9.585 -17.609  1.00  0.00     0.131 A
HETATM   21  C12 UNL     1     -29.520  -8.413 -16.838  1.00  0.00     0.041 A
HETATM   22  C13 UNL     1     -30.132  -8.296 -15.626  1.00  0.00     0.041 A
HETATM   23  C14 UNL     1     -30.833  -9.397 -15.086  1.00  0.00     0.099 A
HETATM   24  O5  UNL     1     -31.440  -9.400 -13.963  1.00  0.00    -0.268 OA
HETATM   25  C16 UNL     1     -30.858 -10.545 -15.830  1.00  0.00     0.073 A
HETATM   26  C15 UNL     1     -32.050 -10.465 -13.558  1.00  0.00     0.332 A
HETATM   27  O6  UNL     1     -32.699 -10.617 -12.448  1.00  0.00    -0.251 OA
HETATM   28  S1  UNL     1     -31.769 -11.565 -14.822  1.00  0.00    -0.016 SA
BRANCH  20  29
HETATM   29  N3  UNL     1     -28.880  -9.711 -18.845  1.00  0.00    -0.113 N
HETATM   30  O3  UNL     1     -27.657  -9.603 -18.920  1.00  0.00    -0.532 OA
HETATM   31  O4  UNL     1     -29.572  -9.912 -20.004  1.00  0.00    -0.532 OA
ENDBRANCH  20  29
ENDBRANCH   3  19
TORSDOF 6
ENDMDL