MODEL 3
REMARK VINA RESULT: -7.589807724      2.724      5.045
REMARK  9 active torsions:
REMARK  status: ('A' for Active; 'I' for Inactive)
REMARK    1  A    between atoms: N1_1  and  N2_4
REMARK    2  A    between atoms: N2_4  and  C1_6
REMARK    3  A    between atoms: C3_9  and  N4_10
REMARK    4  A    between atoms: N4_10  and  O1_12
REMARK    5  A    between atoms: C4_14  and  C5_15
REMARK    6  A    between atoms: C5_15  and  O2_16
REMARK    7  A    between atoms: O2_16  and  C6_17
REMARK    8  A    between atoms: C6_17  and  C7_19
REMARK    9  A    between atoms: N5_28  and  C14_29
ROOT
HETATM    1  C1  UNL     1     -33.988 -13.656 -15.914  1.00  0.00     0.153 A
HETATM    2  C2  UNL     1     -34.451 -13.611 -14.622  1.00  0.00     0.121 A
HETATM    3  N3  UNL     1     -35.370 -14.536 -14.093  1.00  0.00    -0.096 NA
HETATM    4  C3  UNL     1     -33.891 -12.666 -13.798  1.00  0.00     0.092 A
HETATM    5  C4  UNL     1     -32.925 -11.822 -14.291  1.00  0.00     0.013 A
HETATM    6  C13 UNL     1     -32.485 -11.918 -15.628  1.00  0.00     0.110 A
HETATM    7  N5  UNL     1     -33.032 -12.827 -16.386  1.00  0.00    -0.305 N
ENDROOT
BRANCH   5   8
HETATM    8  C5  UNL     1     -32.514 -10.715 -13.393  1.00  0.00     0.221 C
BRANCH   8   9
HETATM    9  O2  UNL     1     -31.459 -10.012 -13.635  1.00  0.00    -0.313 OA
BRANCH   9  10
HETATM   10  C6  UNL     1     -30.595  -9.297 -14.277  1.00  0.00     0.295 C
HETATM   11  O3  UNL     1     -29.868  -8.481 -13.592  1.00  0.00    -0.259 OA
BRANCH  10  12
HETATM   12  C7  UNL     1     -30.443  -9.423 -15.738  1.00  0.00     0.061 A
HETATM   13  C8  UNL     1     -31.074  -8.612 -16.657  1.00  0.00     0.021 A
HETATM   14  C9  UNL     1     -30.879  -8.781 -18.018  1.00  0.00     0.025 A
HETATM   15  C10 UNL     1     -30.039  -9.778 -18.492  1.00  0.00     0.035 A
HETATM   16 CL1  UNL     1     -29.792 -10.039 -20.208  1.00  0.00    -0.084 Cl
HETATM   17  C11 UNL     1     -29.409 -10.592 -17.588  1.00  0.00     0.048 A
HETATM   18  C12 UNL     1     -29.610 -10.416 -16.214  1.00  0.00     0.051 A
HETATM   19 CL2  UNL     1     -28.805 -11.455 -15.068  1.00  0.00    -0.083 Cl
ENDBRANCH  10  12
ENDBRANCH   9  10
ENDBRANCH   8   9
ENDBRANCH   5   8
BRANCH   4  20
HETATM   20  N4  UNL     1     -34.233 -12.590 -12.399  1.00  0.00    -0.267 N
ATOM     21  H4  UNL     1     -33.586 -12.840 -11.652  1.00  0.00     0.194 HD
BRANCH  20  22
HETATM   22  O1  UNL     1     -35.440 -12.174 -12.183  1.00  0.00    -0.289 OA
ATOM     23  H1  UNL     1     -35.771 -12.400 -11.322  1.00  0.00     0.244 HD
ENDBRANCH  20  22
ENDBRANCH   4  20
BRANCH   7  24
HETATM   24  C14 UNL     1     -32.658 -13.143 -17.723  1.00  0.00     0.040 A
HETATM   25  C15 UNL     1     -33.059 -12.205 -18.716  1.00  0.00     0.030 A
HETATM   26  C16 UNL     1     -32.607 -12.272 -20.012  1.00  0.00     0.002 A
HETATM   27  C17 UNL     1     -31.722 -13.290 -20.408  1.00  0.00     0.000 A
HETATM   28  C18 UNL     1     -31.328 -14.195 -19.472  1.00  0.00     0.002 A
HETATM   29  C19 UNL     1     -31.800 -14.114 -18.139  1.00  0.00     0.030 A
ENDBRANCH   7  24
BRANCH   1  30
HETATM   30  N2  UNL     1     -34.505 -14.485 -16.760  1.00  0.00    -0.290 N
ATOM     31  H2  UNL     1     -34.915 -14.120 -17.620  1.00  0.00     0.188 HD
BRANCH  30  32
HETATM   32  N1  UNL     1     -34.521 -15.845 -16.540  1.00  0.00    -0.344 N
ATOM     33  H12 UNL     1     -33.944 -16.213 -15.784  1.00  0.00     0.176 HD
ATOM     34  H11 UNL     1     -35.086 -16.480 -17.104  1.00  0.00     0.176 HD
ENDBRANCH  30  32
ENDBRANCH   1  30
TORSDOF 9
ENDMDL