MODEL 3
REMARK VINA RESULT: -6.237944274      3.562      5.527
REMARK  8 active torsions:
REMARK  status: ('A' for Active; 'I' for Inactive)
REMARK    1  A    between atoms: O1_2  and  C2_3
REMARK    2  A    between atoms: C2_3  and  C3_5
REMARK    3  A    between atoms: C3_5  and  C4_6
REMARK    4  A    between atoms: C4_6  and  C5_7
REMARK    5  A    between atoms: C6_8  and  O3_9
REMARK    6  A    between atoms: C8_13  and  C9_14
REMARK    7  A    between atoms: C12_19  and  N1_20
REMARK    8  A    between atoms: N2_23  and  O6_24
ROOT
HETATM    1  C5  UNL     1     -32.066 -12.882 -17.543  1.00  0.00     0.076 A
HETATM    2  C6  UNL     1     -33.211 -12.969 -16.833  1.00  0.00     0.115 A
HETATM    3  C7  UNL     1     -33.067 -12.131 -15.724  1.00  0.00     0.099 A
HETATM    4 CL1  UNL     1     -34.250 -11.855 -14.463  1.00  0.00    -0.079 Cl
HETATM    5  C8  UNL     1     -31.803 -11.538 -15.786  1.00  0.00     0.107 A
HETATM    6  N2  UNL     1     -31.253 -12.011 -16.878  1.00  0.00    -0.223 N
ENDROOT
BRANCH   5   7
HETATM    7  C9  UNL     1     -31.371 -10.511 -14.814  1.00  0.00     0.070 A
HETATM    8  S1  UNL     1     -31.479 -10.772 -13.095  1.00  0.00    -0.078 SA
HETATM    9  C10 UNL     1     -30.835  -9.298 -12.557  1.00  0.00     0.054 A
HETATM   10 BR1  UNL     1     -30.556  -8.669 -10.754  1.00  0.00    -0.043 Br
HETATM   11  C11 UNL     1     -30.553  -8.650 -13.715  1.00  0.00     0.064 A
HETATM   12  C12 UNL     1     -30.832  -9.288 -14.888  1.00  0.00     0.124 A
BRANCH  12  13
HETATM   13  N1  UNL     1     -30.468  -8.634 -16.143  1.00  0.00    -0.114 N
HETATM   14  O4  UNL     1     -31.290  -8.024 -16.836  1.00  0.00    -0.532 OA
HETATM   15  O5  UNL     1     -29.175  -8.783 -16.635  1.00  0.00    -0.532 OA
ENDBRANCH  12  13
ENDBRANCH   5   7
BRANCH   6  16
HETATM   16  O6  UNL     1     -30.020 -11.651 -17.411  1.00  0.00    -0.282 OA
ATOM     17  H6  UNL     1     -29.670 -12.108 -18.166  1.00  0.00     0.245 HD
ENDBRANCH   6  16
BRANCH   2  18
HETATM   18  O3  UNL     1     -34.386 -13.681 -17.009  1.00  0.00    -0.357 OA
ATOM     19  H3  UNL     1     -35.304 -13.453 -16.929  1.00  0.00     0.217 HD
ENDBRANCH   2  18
BRANCH   1  20
HETATM   20  C4  UNL     1     -31.660 -13.535 -18.792  1.00  0.00     0.072 C
BRANCH  20  21
HETATM   21  C3  UNL     1     -32.203 -12.987 -20.037  1.00  0.00     0.117 C
BRANCH  21  22
HETATM   22  C2  UNL     1     -31.096 -12.198 -20.712  1.00  0.00     0.258 C
HETATM   23  O2  UNL     1     -30.614 -12.589 -21.797  1.00  0.00    -0.265 OA
BRANCH  22  24
HETATM   24  O1  UNL     1     -30.601 -11.039 -20.149  1.00  0.00    -0.326 OA
HETATM   25  C1  UNL     1     -29.712 -10.167 -20.824  1.00  0.00     0.213 C
ENDBRANCH  22  24
ENDBRANCH  21  22
ENDBRANCH  20  21
ENDBRANCH   1  20
TORSDOF 8
ENDMDL