MODEL 5
REMARK VINA RESULT: -7.139303666      0.777      1.130
REMARK  8 active torsions:
REMARK  status: ('A' for Active; 'I' for Inactive)
REMARK    1  A    between atoms: O1_2  and  C2_3
REMARK    2  A    between atoms: C2_3  and  C3_5
REMARK    3  A    between atoms: C3_5  and  S1_6
REMARK    4  A    between atoms: S1_6  and  C4_7
REMARK    5  A    between atoms: N3_13  and  C6_15
REMARK    6  A    between atoms: C6_15  and  S2_19
REMARK    7  A    between atoms: S2_19  and  C7_20
REMARK    8  A    between atoms: C7_20  and  C8_21
ROOT
HETATM    1  C4  UNL     1     -29.515 -10.212 -11.431  1.00  0.00     0.130 A
HETATM    2  N1  UNL     1     -28.858 -11.222 -11.956  1.00  0.00    -0.286 N
ATOM      3  H1  UNL     1     -27.839 -11.239 -11.933  1.00  0.00     0.188 HD
HETATM    4  N2  UNL     1     -29.490 -12.160 -12.483  1.00  0.00    -0.278 N
ATOM      5  H2  UNL     1     -28.988 -12.951 -12.886  1.00  0.00     0.189 HD
HETATM    6  C5  UNL     1     -30.872 -12.126 -12.521  1.00  0.00     0.167 A
HETATM    7  N3  UNL     1     -31.689 -12.934 -13.012  1.00  0.00    -0.316 N
ATOM      8  H3  UNL     1     -32.654 -12.633 -12.874  1.00  0.00     0.170 HD
HETATM    9  S3  UNL     1     -31.133 -10.616 -11.711  1.00  0.00    -0.026 SA
ENDROOT
BRANCH   7  10
HETATM   10  C6  UNL     1     -31.614 -14.124 -13.691  1.00  0.00     0.140 C
HETATM   11  N4  UNL     1     -31.646 -15.241 -12.928  1.00  0.00    -0.380 N
ATOM     12  H42 UNL     1     -31.811 -15.215 -11.921  1.00  0.00     0.158 HD
ATOM     13  H41 UNL     1     -31.590 -16.125 -13.432  1.00  0.00     0.158 HD
BRANCH  10  14
HETATM   14  S2  UNL     1     -31.327 -14.168 -15.432  1.00  0.00    -0.090 SA
BRANCH  14  15
HETATM   15  C7  UNL     1     -32.394 -12.841 -16.221  1.00  0.00     0.124 C
BRANCH  15  16
HETATM   16  C8  UNL     1     -32.298 -13.062 -17.674  1.00  0.00    -0.005 A
HETATM   17  C9  UNL     1     -31.386 -12.349 -18.411  1.00  0.00     0.042 A
HETATM   18 CL1  UNL     1     -30.155 -11.417 -17.525  1.00  0.00    -0.084 Cl
HETATM   19  C10 UNL     1     -31.333 -12.368 -19.811  1.00  0.00     0.024 A
HETATM   20  C11 UNL     1     -32.281 -13.187 -20.437  1.00  0.00     0.003 A
HETATM   21  C12 UNL     1     -33.190 -13.899 -19.708  1.00  0.00     0.024 A
HETATM   22  C13 UNL     1     -33.194 -13.833 -18.333  1.00  0.00     0.042 A
HETATM   23 CL2  UNL     1     -34.375 -14.692 -17.416  1.00  0.00    -0.084 Cl
ENDBRANCH  15  16
ENDBRANCH  14  15
ENDBRANCH  10  14
ENDBRANCH   7  10
BRANCH   1  24
HETATM   24  S1  UNL     1     -28.862  -8.635 -10.760  1.00  0.00    -0.094 SA
BRANCH  24  25
HETATM   25  C3  UNL     1     -30.130  -7.981  -9.629  1.00  0.00     0.192 C
BRANCH  25  26
HETATM   26  C2  UNL     1     -30.712  -6.722 -10.106  1.00  0.00     0.268 C
HETATM   27  O2  UNL     1     -31.086  -5.803  -9.355  1.00  0.00    -0.264 OA
BRANCH  26  28
HETATM   28  O1  UNL     1     -30.868  -6.481 -11.486  1.00  0.00    -0.326 OA
HETATM   29  C1  UNL     1     -32.175  -6.949 -12.003  1.00  0.00     0.213 C
ENDBRANCH  26  28
ENDBRANCH  25  26
ENDBRANCH  24  25
ENDBRANCH   1  24
TORSDOF 8
ENDMDL