MODEL 1
REMARK VINA RESULT: -7.546967450      0.000      0.000
REMARK  8 active torsions:
REMARK  status: ('A' for Active; 'I' for Inactive)
REMARK    1  A    between atoms: C1_2  and  O2_3
REMARK    2  A    between atoms: C1_2  and  C12_21
REMARK    3  A    between atoms: O2_3  and  C2_4
REMARK    4  A    between atoms: C3_6  and  S1_7
REMARK    5  A    between atoms: S1_7  and  C4_8
REMARK    6  A    between atoms: C10_15  and  O4_16
REMARK    7  A    between atoms: C11_18  and  O5_19
REMARK    8  A    between atoms: C15_24  and  N1_25
ROOT
HETATM    1  C2  UNL     1     -30.302 -10.368 -13.770  1.00  0.00     0.302 C
HETATM    2  O3  UNL     1     -31.006  -9.426 -14.520  1.00  0.00    -0.340 OA
HETATM    3  C3  UNL     1     -30.083  -8.770 -15.311  1.00  0.00     0.222 C
HETATM    4  C10 UNL     1     -28.932  -9.700 -15.538  1.00  0.00     0.191 C
HETATM    5  C11 UNL     1     -29.374 -10.947 -14.812  1.00  0.00     0.206 C
ENDROOT
BRANCH   1   6
HETATM    6  O2  UNL     1     -31.155 -11.314 -13.202  1.00  0.00    -0.283 OA
BRANCH   6   7
HETATM    7  C1  UNL     1     -32.492 -11.454 -13.500  1.00  0.00     0.295 C
HETATM    8  O1  UNL     1     -33.325 -10.818 -12.807  1.00  0.00    -0.259 OA
BRANCH   7   9
HETATM    9  C12 UNL     1     -32.964 -12.318 -14.592  1.00  0.00     0.042 A
HETATM   10  C13 UNL     1     -34.221 -12.165 -15.139  1.00  0.00     0.020 A
HETATM   11  C14 UNL     1     -34.613 -13.005 -16.167  1.00  0.00     0.040 A
HETATM   12  C15 UNL     1     -33.780 -13.994 -16.661  1.00  0.00     0.141 A
HETATM   13  C16 UNL     1     -32.536 -14.137 -16.111  1.00  0.00     0.150 A
HETATM   14  F1  UNL     1     -31.643 -15.071 -16.519  1.00  0.00    -0.203 F
HETATM   15  C17 UNL     1     -32.139 -13.304 -15.088  1.00  0.00     0.062 A
BRANCH  12  16
HETATM   16  N1  UNL     1     -34.173 -14.855 -17.709  1.00  0.00    -0.113 N
HETATM   17  O6  UNL     1     -33.659 -14.689 -18.853  1.00  0.00    -0.532 OA
HETATM   18  O7  UNL     1     -35.091 -15.843 -17.466  1.00  0.00    -0.532 OA
ENDBRANCH  12  16
ENDBRANCH   7   9
ENDBRANCH   6   7
ENDBRANCH   1   6
BRANCH   5  19
HETATM   19  O5  UNL     1     -28.317 -11.647 -14.253  1.00  0.00    -0.388 OA
ATOM     20  H5  UNL     1     -28.586 -12.195 -13.525  1.00  0.00     0.210 HD
ENDBRANCH   5  19
BRANCH   3  21
HETATM   21  S1  UNL     1     -30.893  -8.259 -16.846  1.00  0.00    -0.095 SA
BRANCH  21  22
HETATM   22  C4  UNL     1     -30.974  -9.643 -18.001  1.00  0.00     0.003 A
HETATM   23  C5  UNL     1     -30.221  -9.579 -19.154  1.00  0.00     0.020 A
HETATM   24  C6  UNL     1     -30.242 -10.608 -20.076  1.00  0.00     0.025 A
HETATM   25  C7  UNL     1     -31.044 -11.695 -19.798  1.00  0.00     0.034 A
HETATM   26 CL1  UNL     1     -31.107 -13.027 -20.937  1.00  0.00    -0.084 Cl
HETATM   27  C8  UNL     1     -31.799 -11.775 -18.660  1.00  0.00     0.025 A
HETATM   28  C9  UNL     1     -31.766 -10.741 -17.751  1.00  0.00     0.020 A
ENDBRANCH  21  22
ENDBRANCH   3  21
BRANCH   4  29
HETATM   29  O4  UNL     1     -27.804  -9.141 -14.912  1.00  0.00    -0.389 OA
ATOM     30  H4  UNL     1     -27.146  -9.824 -14.841  1.00  0.00     0.210 HD
ENDBRANCH   4  29
TORSDOF 8
ENDMDL