MODEL 4
REMARK VINA RESULT: -10.133781206      5.748      9.506
REMARK  11 active torsions:
REMARK  status: ('A' for Active; 'I' for Inactive)
REMARK    1  A    between atoms: C2_2  and  C3_3
REMARK    2  A    between atoms: C3_3  and  C4_4
REMARK    3  A    between atoms: C9_9  and  N1_10
REMARK    4  A    between atoms: C10_11  and  C11_12
REMARK    5  A    between atoms: C11_12  and  C12_13
REMARK    6  A    between atoms: C12_13  and  C15_16
REMARK    7  A    between atoms: C20_25  and  O3_26
REMARK    8  A    between atoms: O3_26  and  C21_27
REMARK    9  A    between atoms: C21_27  and  C22_28
REMARK   10  A    between atoms: C26_34  and  C27_35
REMARK   11  A    between atoms: C28_39  and  C29_40
ROOT
HETATM    1  N1  UNL     1     -92.870 167.043 -16.739  1.00  0.00    -0.324 N
HETATM    2  C10 UNL     1     -93.729 167.449 -17.639  1.00  0.00     0.086 A
HETATM    3  N2  UNL     1     -94.087 168.729 -17.310  1.00  0.00    -0.347 N
ATOM      4  H2  UNL     1     -94.746 169.303 -17.837  1.00  0.00     0.167 HD
HETATM    5  C16 UNL     1     -93.464 169.114 -16.222  1.00  0.00     0.049 A
HETATM    6  C17 UNL     1     -92.680 168.058 -15.833  1.00  0.00     0.037 A
HETATM    7  C18 UNL     1     -91.890 168.263 -14.598  1.00  0.00     0.062 C
HETATM    8  C19 UNL     1     -91.215 169.585 -14.722  1.00  0.00     0.039 C
HETATM    9  C20 UNL     1     -92.206 170.773 -14.842  1.00  0.00     0.140 C
HETATM   10  C28 UNL     1     -93.497 170.411 -15.435  1.00  0.00     0.174 C
ENDROOT
BRANCH   9  11
HETATM   11  O3  UNL     1     -92.187 171.374 -13.623  1.00  0.00    -0.379 OA
BRANCH  11  12
HETATM   12  C21 UNL     1     -92.079 172.712 -13.525  1.00  0.00     0.226 C
BRANCH  12  13
HETATM   13  C22 UNL     1     -90.792 173.338 -13.874  1.00  0.00     0.048 A
HETATM   14  N3  UNL     1     -89.670 173.080 -13.207  1.00  0.00    -0.367 N
HETATM   15  C23 UNL     1     -88.489 173.623 -13.490  1.00  0.00     0.088 A
ATOM     16  H3  UNL     1     -89.720 172.424 -12.427  1.00  0.00     0.165 HD
HETATM   17  C24 UNL     1     -88.387 174.501 -14.522  1.00  0.00     0.018 A
HETATM   18  C25 UNL     1     -89.498 174.809 -15.246  1.00  0.00     0.019 A
HETATM   19  C26 UNL     1     -90.713 174.242 -14.945  1.00  0.00     0.072 A
BRANCH  19  20
HETATM   20  C27 UNL     1     -91.914 174.583 -15.743  1.00  0.00     0.419 C
HETATM   21  F1  UNL     1     -92.845 175.292 -15.054  1.00  0.00    -0.166 F
HETATM   22  F2  UNL     1     -92.434 173.480 -16.418  1.00  0.00    -0.166 F
HETATM   23  F3  UNL     1     -91.486 175.434 -16.780  1.00  0.00    -0.166 F
ENDBRANCH  19  20
ENDBRANCH  12  13
ENDBRANCH  11  12
ENDBRANCH   9  11
BRANCH  10  24
HETATM   24  C29 UNL     1     -94.744 170.472 -14.650  1.00  0.00     0.399 C
HETATM   25  F4  UNL     1     -95.172 171.823 -14.701  1.00  0.00    -0.170 F
HETATM   26  F5  UNL     1     -94.656 170.193 -13.313  1.00  0.00    -0.170 F
HETATM   27  F6  UNL     1     -95.828 169.773 -15.121  1.00  0.00    -0.170 F
ENDBRANCH  10  24
BRANCH   1  28
HETATM   28  C9  UNL     1     -92.117 165.863 -16.571  1.00  0.00     0.153 C
HETATM   29  C8  UNL     1     -91.345 165.217 -17.591  1.00  0.00     0.037 C
HETATM   30  C7  UNL     1     -90.543 164.078 -16.907  1.00  0.00     0.004 C
HETATM   31  C6  UNL     1     -89.160 164.658 -16.635  1.00  0.00     0.020 C
HETATM   32  C4  UNL     1     -89.293 165.553 -15.455  1.00  0.00     0.006 C
HETATM   33  C5  UNL     1     -89.001 164.682 -14.207  1.00  0.00     0.027 C
HETATM   34  S1  UNL     1     -90.951 166.201 -15.174  1.00  0.00    -0.134 SA
BRANCH  32  35
HETATM   35  C3  UNL     1     -88.343 166.692 -15.516  1.00  0.00     0.020 C
BRANCH  35  36
HETATM   36  C2  UNL     1     -87.092 166.560 -16.283  1.00  0.00    -0.003 C
HETATM   37  C1  UNL     1     -85.918 165.920 -15.642  1.00  0.00     0.005 C
ENDBRANCH  35  36
ENDBRANCH  32  35
ENDBRANCH   1  28
BRANCH   2  38
HETATM   38  C11 UNL     1     -94.365 166.786 -18.773  1.00  0.00     0.096 C
BRANCH  38  39
HETATM   39  C12 UNL     1     -95.846 166.480 -18.585  1.00  0.00     0.048 C
HETATM   40  C13 UNL     1     -96.173 166.384 -17.093  1.00  0.00     0.027 C
HETATM   41  C14 UNL     1     -96.339 165.245 -19.235  1.00  0.00     0.027 C
BRANCH  39  42
HETATM   42  C15 UNL     1     -96.654 167.622 -19.077  1.00  0.00     0.181 C
HETATM   43  O1  UNL     1     -96.972 167.727 -20.274  1.00  0.00    -0.647 OA
HETATM   44  O2  UNL     1     -97.054 168.584 -18.173  1.00  0.00    -0.647 OA
ENDBRANCH  39  42
ENDBRANCH  38  39
ENDBRANCH   2  38
TORSDOF 11
ENDMDL