MODEL 5
REMARK VINA RESULT: -9.170194874      1.442      3.091
REMARK  11 active torsions:
REMARK  status: ('A' for Active; 'I' for Inactive)
REMARK    1  A    between atoms: N1_2  and  C3_4
REMARK    2  A    between atoms: C3_4  and  C4_5
REMARK    3  A    between atoms: C4_5  and  O1_6
REMARK    4  A    between atoms: O1_6  and  C5_7
REMARK    5  A    between atoms: C7_11  and  C8_12
REMARK       I    between atoms: C8_12  and  N3_14
REMARK    6  A    between atoms: N3_14  and  C9_15
REMARK    7  A    between atoms: N3_14  and  C24_33
REMARK    8  A    between atoms: C9_15  and  C10_16
REMARK    9  A    between atoms: C13_20  and  C14_21
REMARK   10  A    between atoms: C18_25  and  C19_26
REMARK   11  A    between atoms: C26_36  and  C27_37
ROOT
HETATM    1  C8  UNL     1     -83.125 158.569 -15.353  1.00  0.00     0.293 C
HETATM    2  O2  UNL     1     -82.069 158.389 -15.997  1.00  0.00    -0.264 OA
HETATM    3  N3  UNL     1     -83.671 159.814 -15.027  1.00  0.00    -0.292 N
ENDROOT
BRANCH   3   4
HETATM    4  C9  UNL     1     -85.015 160.288 -15.288  1.00  0.00     0.180 C
BRANCH   4   5
HETATM    5  C10 UNL     1     -85.553 161.108 -14.138  1.00  0.00     0.009 A
HETATM    6  S1  UNL     1     -85.449 160.713 -12.483  1.00  0.00    -0.096 SA
HETATM    7  C11 UNL     1     -86.407 161.944 -11.838  1.00  0.00    -0.010 A
HETATM    8  C12 UNL     1     -86.806 162.667 -12.936  1.00  0.00    -0.028 A
HETATM    9  C23 UNL     1     -86.628 161.990 -10.384  1.00  0.00     0.046 C
HETATM   10  C13 UNL     1     -86.349 162.221 -14.166  1.00  0.00    -0.031 A
HETATM   11  C18 UNL     1     -87.638 163.919 -12.709  1.00  0.00     0.085 C
HETATM   12  C20 UNL     1     -88.473 163.828 -11.476  1.00  0.00     0.015 C
HETATM   13  C21 UNL     1     -87.848 164.188 -10.184  1.00  0.00     0.001 C
HETATM   14  C22 UNL     1     -86.767 163.298  -9.710  1.00  0.00     0.005 C
BRANCH  10  15
HETATM   15  C14 UNL     1     -86.627 162.970 -15.382  1.00  0.00     0.020 C
HETATM   16  C15 UNL     1     -85.730 164.156 -15.748  1.00  0.00     0.009 C
HETATM   17  C16 UNL     1     -86.822 164.436 -16.804  1.00  0.00     0.001 C
HETATM   18  C17 UNL     1     -87.779 163.780 -15.738  1.00  0.00     0.009 C
ENDBRANCH  10  15
BRANCH  11  19
HETATM   19  C19 UNL     1     -86.867 165.180 -12.742  1.00  0.00     0.361 C
HETATM   20  F1  UNL     1     -86.918 165.951 -13.849  1.00  0.00    -0.214 F
HETATM   21  F2  UNL     1     -85.511 164.750 -12.671  1.00  0.00    -0.214 F
ENDBRANCH  11  19
ENDBRANCH   4   5
ENDBRANCH   3   4
BRANCH   3  22
HETATM   22  C24 UNL     1     -82.685 160.782 -14.482  1.00  0.00     0.118 A
HETATM   23  C25 UNL     1     -82.127 161.781 -15.222  1.00  0.00     0.100 A
HETATM   24  S2  UNL     1     -81.056 162.513 -14.069  1.00  0.00    -0.076 SA
HETATM   25  C26 UNL     1     -81.393 161.493 -12.744  1.00  0.00     0.160 A
HETATM   26  N4  UNL     1     -82.287 160.674 -13.248  1.00  0.00    -0.332 N
ATOM     27  H4  UNL     1     -82.678 159.938 -12.660  1.00  0.00     0.168 HD
BRANCH  25  28
HETATM   28  C27 UNL     1     -80.773 161.518 -11.363  1.00  0.00     0.439 C
HETATM   29  F3  UNL     1     -80.425 162.824 -11.098  1.00  0.00    -0.164 F
HETATM   30  F4  UNL     1     -81.703 161.116 -10.405  1.00  0.00    -0.164 F
HETATM   31  F5  UNL     1     -79.722 160.637 -11.298  1.00  0.00    -0.164 F
ENDBRANCH  25  28
ENDBRANCH   3  22
BRANCH   1  32
HETATM   32  C7  UNL     1     -83.853 157.344 -14.876  1.00  0.00     0.177 A
HETATM   33  N2  UNL     1     -84.745 157.192 -13.934  1.00  0.00    -0.344 N
HETATM   34  C6  UNL     1     -85.081 155.919 -13.729  1.00  0.00     0.145 A
ATOM     35  H2  UNL     1     -85.145 157.970 -13.409  1.00  0.00     0.167 HD
HETATM   36  C5  UNL     1     -84.301 155.179 -14.654  1.00  0.00     0.159 A
HETATM   37  N5  UNL     1     -83.589 156.081 -15.314  1.00  0.00    -0.317 N
ATOM     38  H5  UNL     1     -82.926 155.858 -16.056  1.00  0.00     0.169 HD
BRANCH  36  39
HETATM   39  O1  UNL     1     -84.367 153.825 -14.744  1.00  0.00    -0.333 OA
BRANCH  39  40
HETATM   40  C4  UNL     1     -84.003 152.859 -13.834  1.00  0.00     0.197 C
BRANCH  40  41
HETATM   41  C3  UNL     1     -82.802 152.099 -14.486  1.00  0.00     0.142 C
BRANCH  41  42
HETATM   42  N1  UNL     1     -82.945 152.178 -15.889  1.00  0.00    -0.419 N
HETATM   43  C1  UNL     1     -83.693 151.204 -16.572  1.00  0.00     0.142 C
HETATM   44  C2  UNL     1     -81.756 152.639 -16.569  1.00  0.00     0.142 C
ENDBRANCH  41  42
ENDBRANCH  40  41
ENDBRANCH  39  40
ENDBRANCH  36  39
ENDBRANCH   1  32
TORSDOF 11
ENDMDL