MODEL 1
REMARK VINA RESULT: -11.215943863      0.000      0.000
REMARK  11 active torsions:
REMARK  status: ('A' for Active; 'I' for Inactive)
REMARK    1  A    between atoms: C2_2  and  C4_4
REMARK    2  A    between atoms: C4_4  and  N1_5
REMARK    3  A    between atoms: C5_8  and  C6_9
REMARK    4  A    between atoms: C12_18  and  C13_19
REMARK    5  A    between atoms: C13_19  and  C14_20
REMARK    6  A    between atoms: C13_19  and  N5_35
REMARK    7  A    between atoms: C14_20  and  C15_21
REMARK    8  A    between atoms: C17_23  and  C18_24
REMARK    9  A    between atoms: C20_29  and  C21_30
REMARK   10  A    between atoms: N5_35  and  C23_37
REMARK   11  A    between atoms: C23_37  and  C24_38
ROOT
HETATM    1  C24 UNL     1     -85.823 163.621 -11.825  1.00  0.00     0.081 C
HETATM    2  C25 UNL     1     -86.301 164.899 -11.334  1.00  0.00     0.072 C
HETATM    3  N6  UNL     1     -86.693 165.919 -10.948  1.00  0.00    -0.196 NA
HETATM    4  C26 UNL     1     -84.321 163.618 -11.839  1.00  0.00     0.028 C
HETATM    5  C27 UNL     1     -83.882 162.153 -11.750  1.00  0.00     0.002 C
HETATM    6  C28 UNL     1     -84.046 161.785 -10.306  1.00  0.00     0.001 C
HETATM    7  C29 UNL     1     -85.499 161.955  -9.933  1.00  0.00     0.021 C
HETATM    8  C30 UNL     1     -86.385 162.501 -10.981  1.00  0.00     0.117 C
HETATM    9  C31 UNL     1     -87.550 163.102 -10.257  1.00  0.00     0.065 C
HETATM   10  N7  UNL     1     -88.469 163.550  -9.716  1.00  0.00    -0.197 NA
ENDROOT
BRANCH   1  11
HETATM   11  C23 UNL     1     -86.253 163.419 -13.259  1.00  0.00     0.146 C
BRANCH  11  12
HETATM   12  N5  UNL     1     -87.116 162.301 -13.464  1.00  0.00    -0.385 N
ATOM     13  H5  UNL     1     -87.503 161.714 -12.726  1.00  0.00     0.159 HD
BRANCH  12  14
HETATM   14  C13 UNL     1     -87.366 162.123 -14.938  1.00  0.00     0.075 C
BRANCH  14  15
HETATM   15  C12 UNL     1     -87.885 163.313 -15.521  1.00  0.00     0.150 A
HETATM   16  N1  UNL     1     -87.489 164.345 -16.263  1.00  0.00    -0.273 N
HETATM   17  N2  UNL     1     -88.527 165.133 -16.541  1.00  0.00    -0.285 N
HETATM   18  C5  UNL     1     -89.610 164.638 -15.985  1.00  0.00     0.102 A
ATOM     19  H2  UNL     1     -88.487 165.986 -17.098  1.00  0.00     0.188 HD
HETATM   20  N4  UNL     1     -89.259 163.547 -15.366  1.00  0.00    -0.328 N
ATOM     21  H4  UNL     1     -89.894 162.947 -14.840  1.00  0.00     0.169 HD
BRANCH  16  22
HETATM   22  C4  UNL     1     -86.150 164.691 -16.522  1.00  0.00     0.155 C
BRANCH  22  23
HETATM   23  C2  UNL     1     -85.829 166.086 -15.952  1.00  0.00    -0.003 C
HETATM   24  C1  UNL     1     -86.262 167.141 -16.959  1.00  0.00     0.011 C
HETATM   25  C3  UNL     1     -86.483 166.340 -14.615  1.00  0.00     0.011 C
ENDBRANCH  22  23
ENDBRANCH  16  22
BRANCH  18  26
HETATM   26  C6  UNL     1     -90.944 165.285 -16.001  1.00  0.00     0.058 C
HETATM   27  C7  UNL     1     -91.105 166.173 -14.794  1.00  0.00     0.032 C
HETATM   28  C8  UNL     1     -92.538 166.609 -14.702  1.00  0.00     0.117 C
HETATM   29  N3  UNL     1     -93.023 167.178 -15.906  1.00  0.00    -0.417 N
HETATM   30  C9  UNL     1     -92.959 168.603 -15.996  1.00  0.00     0.143 C
HETATM   31  C10 UNL     1     -92.753 166.446 -17.083  1.00  0.00     0.117 C
HETATM   32  C11 UNL     1     -91.254 166.089 -17.202  1.00  0.00     0.032 C
ENDBRANCH  18  26
ENDBRANCH  14  15
BRANCH  14  33
HETATM   33  C14 UNL     1     -86.679 160.991 -15.428  1.00  0.00     0.044 C
BRANCH  33  34
HETATM   34  C15 UNL     1     -85.223 160.851 -15.109  1.00  0.00    -0.032 A
HETATM   35  C16 UNL     1     -84.307 161.639 -15.730  1.00  0.00     0.027 A
HETATM   36  C17 UNL     1     -82.963 161.483 -15.514  1.00  0.00     0.049 A
HETATM   37  C19 UNL     1     -82.522 160.513 -14.645  1.00  0.00     0.032 A
HETATM   38  C20 UNL     1     -83.460 159.699 -13.994  1.00  0.00     0.049 A
HETATM   39  C22 UNL     1     -84.805 159.876 -14.233  1.00  0.00     0.027 A
BRANCH  36  40
HETATM   40  C18 UNL     1     -81.982 162.387 -16.251  1.00  0.00     0.417 C
HETATM   41  F1  UNL     1     -82.626 163.541 -16.548  1.00  0.00    -0.166 F
HETATM   42  F2  UNL     1     -80.920 162.655 -15.417  1.00  0.00    -0.166 F
HETATM   43  F3  UNL     1     -81.568 161.717 -17.363  1.00  0.00    -0.166 F
ENDBRANCH  36  40
BRANCH  38  44
HETATM   44  C21 UNL     1     -83.007 158.621 -13.065  1.00  0.00     0.417 C
HETATM   45  F4  UNL     1     -81.901 159.114 -12.376  1.00  0.00    -0.166 F
HETATM   46  F5  UNL     1     -84.044 158.387 -12.188  1.00  0.00    -0.166 F
HETATM   47  F6  UNL     1     -82.685 157.492 -13.792  1.00  0.00    -0.166 F
ENDBRANCH  38  44
ENDBRANCH  33  34
ENDBRANCH  14  33
ENDBRANCH  12  14
ENDBRANCH  11  12
ENDBRANCH   1  11
TORSDOF 11
ENDMDL