MODEL 4
REMARK VINA RESULT: -10.765253322      7.113     11.973
REMARK  12 active torsions:
REMARK  status: ('A' for Active; 'I' for Inactive)
REMARK    1  A    between atoms: C4_4  and  N1_5
REMARK    2  A    between atoms: N2_8  and  C7_9
REMARK    3  A    between atoms: N3_12  and  C10_13
REMARK    4  A    between atoms: C10_13  and  C11_14
REMARK    5  A    between atoms: C11_14  and  C12_15
REMARK    6  A    between atoms: C12_15  and  C13_16
REMARK    7  A    between atoms: C13_16  and  C14_17
REMARK    8  A    between atoms: C14_17  and  N4_18
REMARK    9  A    between atoms: C15_19  and  O1_20
REMARK   10  A    between atoms: C23_31  and  C24_32
REMARK   11  A    between atoms: C24_32  and  C25_35
REMARK   12  A    between atoms: C26_37  and  C27_38
ROOT
HETATM    1  N1  UNL     1     -86.824 163.620 -14.998  1.00  0.00    -0.377 N
HETATM    2  C5  UNL     1     -88.140 162.971 -15.082  1.00  0.00     0.153 C
HETATM    3  C6  UNL     1     -89.031 163.945 -15.846  1.00  0.00     0.292 C
HETATM    4  N2  UNL     1     -88.910 165.229 -15.234  1.00  0.00     0.096 N
HETATM    5  C20 UNL     1     -87.616 165.818 -15.509  1.00  0.00     0.292 C
HETATM    6  C21 UNL     1     -86.595 164.750 -15.848  1.00  0.00     0.153 C
ENDROOT
BRANCH   4   7
HETATM    7  C7  UNL     1     -89.990 166.133 -15.436  1.00  0.00     0.229 C
HETATM    8  C8  UNL     1     -90.526 165.987 -16.842  1.00  0.00     0.080 C
HETATM    9  C9  UNL     1     -91.962 166.504 -16.913  1.00  0.00     0.065 C
HETATM   10  N3  UNL     1     -92.271 167.373 -15.866  1.00  0.00    -0.374 N
HETATM   11  C18 UNL     1     -92.310 166.693 -14.605  1.00  0.00     0.129 C
HETATM   12  C19 UNL     1     -91.009 166.001 -14.362  1.00  0.00     0.056 C
BRANCH  10  13
HETATM   13  C10 UNL     1     -93.068 168.477 -16.066  1.00  0.00     0.063 C
BRANCH  13  14
HETATM   14  C11 UNL     1     -93.021 169.550 -15.039  1.00  0.00     0.044 C
BRANCH  14  15
HETATM   15  C12 UNL     1     -93.367 170.933 -15.500  1.00  0.00     0.007 C
BRANCH  15  16
HETATM   16  C13 UNL     1     -94.573 170.863 -16.445  1.00  0.00     0.021 C
BRANCH  16  17
HETATM   17  C14 UNL     1     -95.854 171.311 -15.872  1.00  0.00     0.133 C
BRANCH  17  18
HETATM   18  N4  UNL     1     -96.881 170.256 -16.053  1.00  0.00    -0.312 N
HETATM   19  C15 UNL     1     -97.494 170.094 -17.199  1.00  0.00     0.150 A
HETATM   20  C16 UNL     1     -98.401 169.076 -17.303  1.00  0.00     0.108 A
HETATM   21  S1  UNL     1     -98.340 168.384 -15.744  1.00  0.00    -0.068 SA
HETATM   22  C17 UNL     1     -97.171 169.425 -15.060  1.00  0.00     0.146 A
HETATM   23  S2  UNL     1     -96.564 169.330 -13.522  1.00  0.00    -0.052 SA
BRANCH  19  24
HETATM   24  O1  UNL     1     -97.271 170.919 -18.342  1.00  0.00    -0.346 OA
ATOM     25  H1  UNL     1     -96.838 170.619 -19.134  1.00  0.00     0.219 HD
ENDBRANCH  19  24
ENDBRANCH  17  18
ENDBRANCH  16  17
ENDBRANCH  15  16
ENDBRANCH  14  15
ENDBRANCH  13  14
ENDBRANCH  10  13
ENDBRANCH   4   7
BRANCH   1  26
HETATM   26  C4  UNL     1     -85.855 163.078 -14.090  1.00  0.00     0.031 A
HETATM   27  C3  UNL     1     -86.008 163.071 -12.739  1.00  0.00     0.037 A
HETATM   28  C2  UNL     1     -85.038 162.547 -11.908  1.00  0.00    -0.044 A
HETATM   29  C1  UNL     1     -85.303 162.552 -10.462  1.00  0.00     0.049 C
HETATM   30  C26 UNL     1     -83.833 161.992 -12.422  1.00  0.00     0.066 A
HETATM   31  C23 UNL     1     -83.669 161.994 -13.762  1.00  0.00     0.032 A
HETATM   32  C22 UNL     1     -84.685 162.537 -14.575  1.00  0.00     0.043 A
BRANCH  30  33
HETATM   33  C27 UNL     1     -82.872 161.486 -11.483  1.00  0.00     0.418 C
HETATM   34  F3  UNL     1     -81.865 162.484 -11.345  1.00  0.00    -0.166 F
HETATM   35  F4  UNL     1     -83.401 161.552 -10.140  1.00  0.00    -0.166 F
HETATM   36  F5  UNL     1     -82.171 160.377 -11.626  1.00  0.00    -0.166 F
ENDBRANCH  30  33
BRANCH  31  37
HETATM   37  C24 UNL     1     -82.514 161.494 -14.480  1.00  0.00     0.284 C
HETATM   38  F1  UNL     1     -81.268 161.907 -14.083  1.00  0.00    -0.200 F
HETATM   39  F2  UNL     1     -82.498 160.119 -14.386  1.00  0.00    -0.200 F
BRANCH  37  40
HETATM   40  C25 UNL     1     -82.616 161.722 -16.016  1.00  0.00     0.199 C
HETATM   41 CL1  UNL     1     -81.322 162.875 -16.498  1.00  0.00    -0.124 Cl
ENDBRANCH  37  40
ENDBRANCH  31  37
ENDBRANCH   1  26
TORSDOF 12
ENDMDL