MODEL 5
REMARK VINA RESULT: -8.835197166      2.984      8.734
REMARK  15 active torsions:
REMARK  status: ('A' for Active; 'I' for Inactive)
REMARK    1  A    between atoms: O1_2  and  C2_3
REMARK    2  A    between atoms: C2_3  and  C3_4
REMARK    3  A    between atoms: C2_3  and  O3_10
REMARK    4  A    between atoms: C2_3  and  C29_41
REMARK    5  A    between atoms: C3_4  and  O2_5
REMARK    6  A    between atoms: O2_5  and  C4_6
REMARK    7  A    between atoms: O3_10  and  C8_11
REMARK    8  A    between atoms: C10_13  and  N1_14
REMARK    9  A    between atoms: N1_14  and  C11_15
REMARK   10  A    between atoms: N1_14  and  C19_27
REMARK   11  A    between atoms: C11_15  and  C12_16
REMARK   12  A    between atoms: C12_16  and  N2_18
REMARK       I    between atoms: N2_18  and  C14_20
REMARK   13  A    between atoms: C14_20  and  O5_22
REMARK   14  A    between atoms: O5_22  and  C15_23
REMARK   15  A    between atoms: C25_34  and  C26_35
ROOT
HETATM    1  C8  UNL     1     -84.691 161.286 -14.150  1.00  0.00     0.082 A
HETATM    2  C9  UNL     1     -85.711 162.241 -14.272  1.00  0.00     0.066 A
HETATM    3  C10 UNL     1     -85.640 163.332 -15.093  1.00  0.00     0.034 A
HETATM    4  C24 UNL     1     -84.497 163.483 -15.831  1.00  0.00     0.046 A
HETATM    5  C25 UNL     1     -83.473 162.558 -15.731  1.00  0.00     0.058 A
HETATM    6  C27 UNL     1     -83.553 161.453 -14.894  1.00  0.00    -0.013 A
HETATM    7  C28 UNL     1     -82.406 160.493 -14.806  1.00  0.00     0.052 C
ENDROOT
BRANCH   3   8
HETATM    8  N1  UNL     1     -86.718 164.287 -15.194  1.00  0.00    -0.374 N
BRANCH   8   9
HETATM    9  C11 UNL     1     -87.288 164.450 -16.484  1.00  0.00     0.148 C
BRANCH   9  10
HETATM   10  C12 UNL     1     -87.797 165.803 -16.855  1.00  0.00     0.100 C
HETATM   11  C13 UNL     1     -86.837 166.932 -16.909  1.00  0.00     0.034 C
BRANCH  10  12
HETATM   12  N2  UNL     1     -88.848 166.212 -15.903  1.00  0.00    -0.331 N
HETATM   13  C14 UNL     1     -90.164 165.699 -16.023  1.00  0.00     0.361 C
HETATM   14  O4  UNL     1     -90.423 164.883 -16.963  1.00  0.00    -0.238 OA
ATOM     15  H2  UNL     1     -88.626 166.869 -15.155  1.00  0.00     0.165 HD
BRANCH  13  16
HETATM   16  O5  UNL     1     -91.194 166.038 -15.171  1.00  0.00    -0.294 OA
BRANCH  16  17
HETATM   17  C15 UNL     1     -92.043 167.151 -15.347  1.00  0.00     0.061 C
HETATM   18  C16 UNL     1     -91.272 168.416 -15.033  1.00  0.00     0.046 C
HETATM   19  C17 UNL     1     -93.158 167.069 -14.326  1.00  0.00     0.046 C
HETATM   20  C18 UNL     1     -92.662 167.206 -16.717  1.00  0.00     0.046 C
ENDBRANCH  16  17
ENDBRANCH  13  16
ENDBRANCH  10  12
ENDBRANCH   9  10
ENDBRANCH   8   9
BRANCH   8  21
HETATM   21  C19 UNL     1     -87.170 165.024 -14.035  1.00  0.00     0.088 C
HETATM   22  C20 UNL     1     -88.117 164.259 -13.185  1.00  0.00     0.051 C
HETATM   23  C21 UNL     1     -87.792 164.056 -11.757  1.00  0.00     0.169 C
HETATM   24  O6  UNL     1     -86.988 165.076 -11.196  1.00  0.00    -0.391 OA
HETATM   25  C22 UNL     1     -85.774 164.929 -11.914  1.00  0.00     0.169 C
HETATM   26  C23 UNL     1     -86.013 165.570 -13.237  1.00  0.00     0.051 C
ENDBRANCH   8  21
ENDBRANCH   3   8
BRANCH   1  27
HETATM   27  O3  UNL     1     -84.917 160.283 -13.300  1.00  0.00    -0.303 OA
BRANCH  27  28
HETATM   28  C2  UNL     1     -84.366 159.759 -12.155  1.00  0.00     0.291 C
BRANCH  28  29
HETATM   29  O1  UNL     1     -85.456 159.440 -11.317  1.00  0.00    -0.351 OA
HETATM   30  C1  UNL     1     -86.467 160.360 -11.488  1.00  0.00     0.206 C
ENDBRANCH  28  29
BRANCH  28  31
HETATM   31  C3  UNL     1     -83.663 158.420 -12.450  1.00  0.00     0.247 C
BRANCH  31  32
HETATM   32  O2  UNL     1     -84.563 157.613 -13.105  1.00  0.00    -0.376 OA
BRANCH  32  33
HETATM   33  C4  UNL     1     -84.098 156.934 -14.193  1.00  0.00     0.050 C
HETATM   34  C5  UNL     1     -82.614 156.976 -14.267  1.00  0.00     0.045 C
HETATM   35  C6  UNL     1     -84.649 157.609 -15.445  1.00  0.00     0.045 C
HETATM   36  C7  UNL     1     -84.656 155.527 -14.192  1.00  0.00     0.045 C
ENDBRANCH  32  33
ENDBRANCH  31  32
ENDBRANCH  28  31
BRANCH  28  37
HETATM   37  C29 UNL     1     -83.402 160.579 -11.372  1.00  0.00     0.447 C
HETATM   38  F4  UNL     1     -83.964 160.835 -10.096  1.00  0.00    -0.165 F
HETATM   39  F5  UNL     1     -82.198 160.009 -11.118  1.00  0.00    -0.165 F
HETATM   40  F6  UNL     1     -83.295 161.907 -11.857  1.00  0.00    -0.165 F
ENDBRANCH  28  37
ENDBRANCH  27  28
ENDBRANCH   1  27
BRANCH   5  41
HETATM   41  C26 UNL     1     -82.236 162.789 -16.533  1.00  0.00     0.418 C
HETATM   42  F1  UNL     1     -82.301 164.097 -17.054  1.00  0.00    -0.166 F
HETATM   43  F2  UNL     1     -81.119 162.842 -15.677  1.00  0.00    -0.166 F
HETATM   44  F3  UNL     1     -82.076 161.940 -17.579  1.00  0.00    -0.166 F
ENDBRANCH   5  41
TORSDOF 15
ENDMDL