MODEL 1
REMARK VINA RESULT: -10.945054447      0.000      0.000
REMARK  13 active torsions:
REMARK  status: ('A' for Active; 'I' for Inactive)
REMARK    1  A    between atoms: C3_5  and  C4_6
REMARK    2  A    between atoms: C4_6  and  O2_8
REMARK    3  A    between atoms: O2_8  and  C5_9
REMARK    4  A    between atoms: C12_16  and  O3_17
REMARK    5  A    between atoms: O3_17  and  C13_18
REMARK    6  A    between atoms: C13_18  and  C14_19
REMARK    7  A    between atoms: C14_19  and  C15_20
REMARK    8  A    between atoms: C15_20  and  C16_21
REMARK    9  A    between atoms: C16_21  and  C17_23
REMARK   10  A    between atoms: C21_29  and  O5_30
REMARK   11  A    between atoms: O5_30  and  C22_31
REMARK   12  A    between atoms: C22_31  and  C23_32
REMARK   13  A    between atoms: C22_31  and  C24_36
ROOT
HETATM    1  C1  UNL     1     -85.102 154.039 -13.932  1.00  0.00     0.070 C
HETATM    2  C2  UNL     1     -84.570 155.379 -14.353  1.00  0.00     0.027 A
HETATM    3  N1  UNL     1     -85.110 156.576 -14.130  1.00  0.00    -0.353 N
ATOM      4  H1  UNL     1     -85.985 156.719 -13.626  1.00  0.00     0.166 HD
HETATM    5  C3  UNL     1     -84.369 157.580 -14.646  1.00  0.00     0.116 A
HETATM    6  C26 UNL     1     -83.283 156.974 -15.236  1.00  0.00    -0.006 A
HETATM    7  C27 UNL     1     -82.186 157.697 -15.933  1.00  0.00     0.052 C
HETATM    8  C28 UNL     1     -83.403 155.618 -15.057  1.00  0.00     0.075 A
HETATM    9  C29 UNL     1     -82.511 154.589 -15.497  1.00  0.00     0.102 C
HETATM   10  N3  UNL     1     -81.792 153.769 -15.842  1.00  0.00    -0.191 NA
ENDROOT
BRANCH   5  11
HETATM   11  C4  UNL     1     -84.662 159.018 -14.580  1.00  0.00     0.311 C
HETATM   12  O1  UNL     1     -85.848 159.374 -14.769  1.00  0.00    -0.258 OA
BRANCH  11  13
HETATM   13  O2  UNL     1     -83.714 159.966 -14.326  1.00  0.00    -0.306 OA
BRANCH  13  14
HETATM   14  C5  UNL     1     -83.908 161.094 -13.444  1.00  0.00     0.170 C
HETATM   15  C6  UNL     1     -82.519 161.588 -13.107  1.00  0.00     0.037 C
HETATM   16  C7  UNL     1     -81.927 162.412 -14.220  1.00  0.00     0.003 C
HETATM   17  C8  UNL     1     -81.896 161.737 -15.550  1.00  0.00     0.005 C
HETATM   18  C9  UNL     1     -83.123 161.876 -16.380  1.00  0.00     0.039 C
HETATM   19  C10 UNL     1     -84.183 162.523 -15.546  1.00  0.00    -0.041 A
HETATM   20  C11 UNL     1     -84.835 163.539 -16.204  1.00  0.00     0.064 A
HETATM   21  C25 UNL     1     -84.527 162.205 -14.259  1.00  0.00     0.029 A
HETATM   22  C12 UNL     1     -85.839 164.218 -15.525  1.00  0.00     0.144 A
HETATM   23  N2  UNL     1     -86.184 163.927 -14.282  1.00  0.00    -0.317 N
HETATM   24  C21 UNL     1     -85.528 162.900 -13.609  1.00  0.00     0.154 A
ATOM     25  H2  UNL     1     -86.925 164.452 -13.819  1.00  0.00     0.170 HD
BRANCH  22  26
HETATM   26  O3  UNL     1     -86.460 165.241 -16.266  1.00  0.00    -0.336 OA
BRANCH  26  27
HETATM   27  C13 UNL     1     -87.599 165.836 -15.694  1.00  0.00     0.178 C
BRANCH  27  28
HETATM   28  C14 UNL     1     -88.853 165.601 -16.487  1.00  0.00     0.034 C
BRANCH  28  29
HETATM   29  C15 UNL     1     -90.066 165.399 -15.633  1.00  0.00     0.081 C
BRANCH  29  30
HETATM   30  C16 UNL     1     -91.187 166.230 -16.094  1.00  0.00     0.134 C
HETATM   31  O4  UNL     1     -91.456 166.254 -17.294  1.00  0.00    -0.297 OA
BRANCH  30  32
HETATM   32  C17 UNL     1     -92.007 167.046 -15.159  1.00  0.00     0.009 C
HETATM   33  C18 UNL     1     -92.186 166.378 -13.816  1.00  0.00     0.022 C
HETATM   34  C19 UNL     1     -91.451 168.441 -15.004  1.00  0.00     0.022 C
HETATM   35  C20 UNL     1     -93.423 167.187 -15.733  1.00  0.00     0.022 C
ENDBRANCH  30  32
ENDBRANCH  29  30
ENDBRANCH  28  29
ENDBRANCH  27  28
ENDBRANCH  26  27
ENDBRANCH  22  26
BRANCH  24  36
HETATM   36  O5  UNL     1     -85.857 162.603 -12.381  1.00  0.00    -0.311 OA
BRANCH  36  37
HETATM   37  C22 UNL     1     -86.158 162.299 -11.167  1.00  0.00     0.344 C
BRANCH  37  38
HETATM   38  C23 UNL     1     -84.949 162.258 -10.186  1.00  0.00     0.422 C
HETATM   39  F1  UNL     1     -85.330 162.647  -8.942  1.00  0.00    -0.168 F
HETATM   40  F2  UNL     1     -84.401 161.007 -10.268  1.00  0.00    -0.168 F
HETATM   41  F3  UNL     1     -84.015 163.144 -10.745  1.00  0.00    -0.168 F
ENDBRANCH  37  38
BRANCH  37  42
HETATM   42  C24 UNL     1     -87.133 163.325 -10.548  1.00  0.00     0.422 C
HETATM   43  F4  UNL     1     -86.607 164.590 -10.623  1.00  0.00    -0.168 F
HETATM   44  F5  UNL     1     -87.379 163.026  -9.230  1.00  0.00    -0.168 F
HETATM   45  F6  UNL     1     -88.286 163.318 -11.310  1.00  0.00    -0.168 F
ENDBRANCH  37  42
ENDBRANCH  36  37
ENDBRANCH  24  36
ENDBRANCH  13  14
ENDBRANCH  11  13
ENDBRANCH   5  11
TORSDOF 13
ENDMDL