MODEL 1
REMARK VINA RESULT: -13.065287810      0.000      0.000
REMARK  12 active torsions:
REMARK  status: ('A' for Active; 'I' for Inactive)
REMARK    1  A    between atoms: O1_2  and  C2_3
REMARK    2  A    between atoms: C4_5  and  C5_6
REMARK    3  A    between atoms: C6_7  and  C7_8
REMARK    4  A    between atoms: C7_8  and  C8_10
REMARK    5  A    between atoms: C8_10  and  C9_11
REMARK    6  A    between atoms: C9_11  and  C10_13
REMARK    7  A    between atoms: C11_14  and  C12_15
REMARK    8  A    between atoms: C14_17  and  C15_18
REMARK    9  A    between atoms: C17_23  and  C18_24
REMARK   10  A    between atoms: C20_29  and  O4_30
REMARK   11  A    between atoms: C22_33  and  O5_34
REMARK   12  A    between atoms: O5_34  and  C23_35
ROOT
HETATM    1  C5  UNL     1     -89.308 165.909 -15.690  1.00  0.00     0.018 C
HETATM    2  C6  UNL     1     -90.513 166.245 -15.288  1.00  0.00     0.051 C
ENDROOT
BRANCH   1   3
HETATM    3  C4  UNL     1     -88.264 165.368 -14.815  1.00  0.00    -0.000 A
HETATM    4  C3  UNL     1     -88.566 164.488 -13.806  1.00  0.00     0.054 A
HETATM    5  C2  UNL     1     -87.532 163.945 -13.013  1.00  0.00     0.102 A
HETATM    6  C22 UNL     1     -86.214 164.263 -13.206  1.00  0.00     0.110 A
HETATM    7  C21 UNL     1     -85.970 165.159 -14.239  1.00  0.00     0.077 A
HETATM    8  C20 UNL     1     -86.957 165.709 -15.036  1.00  0.00     0.078 A
BRANCH   5   9
HETATM    9  O1  UNL     1     -87.926 163.067 -12.024  1.00  0.00    -0.353 OA
HETATM   10  C1  UNL     1     -88.007 163.425 -10.671  1.00  0.00     0.210 C
ENDBRANCH   5   9
BRANCH   6  11
HETATM   11  O5  UNL     1     -85.140 163.800 -12.496  1.00  0.00    -0.294 OA
BRANCH  11  12
HETATM   12  C23 UNL     1     -84.772 162.408 -12.391  1.00  0.00     0.419 C
HETATM   13  O6  UNL     1     -84.291 162.273 -11.078  1.00  0.00    -0.338 OA
HETATM   14  C24 UNL     1     -83.632 161.116 -10.880  1.00  0.00     0.180 C
HETATM   15  C25 UNL     1     -82.389 161.025 -11.749  1.00  0.00     0.040 C
HETATM   16  C26 UNL     1     -81.360 161.971 -11.205  1.00  0.00     0.015 C
HETATM   17  C27 UNL     1     -82.789 161.342 -13.190  1.00  0.00     0.071 C
HETATM   18  C28 UNL     1     -81.613 162.021 -13.896  1.00  0.00     0.038 C
HETATM   19  C31 UNL     1     -82.894 160.051 -13.975  1.00  0.00     0.038 C
HETATM   20  O7  UNL     1     -83.880 162.120 -13.320  1.00  0.00    -0.327 OA
HETATM   21  C29 UNL     1     -82.069 161.852 -15.359  1.00  0.00     0.003 C
HETATM   22  C30 UNL     1     -82.410 160.368 -15.351  1.00  0.00     0.003 C
ENDBRANCH  11  12
ENDBRANCH   6  11
BRANCH   8  23
HETATM   23  O4  UNL     1     -86.572 166.587 -16.040  1.00  0.00    -0.360 OA
ATOM     24  H4  UNL     1     -85.672 166.869 -16.157  1.00  0.00     0.217 HD
ENDBRANCH   8  23
ENDBRANCH   1   3
BRANCH   2  25
HETATM   25  C7  UNL     1     -91.507 166.770 -16.185  1.00  0.00     0.156 C
HETATM   26  O2  UNL     1     -91.579 166.317 -17.389  1.00  0.00    -0.293 OA
BRANCH  25  27
HETATM   27  C8  UNL     1     -92.502 167.822 -15.863  1.00  0.00     0.165 C
BRANCH  27  28
HETATM   28  C9  UNL     1     -92.083 168.648 -14.741  1.00  0.00     0.156 C
HETATM   29  O3  UNL     1     -92.261 168.100 -13.577  1.00  0.00    -0.293 OA
BRANCH  28  30
HETATM   30  C10 UNL     1     -91.518 169.953 -14.739  1.00  0.00     0.051 C
HETATM   31  C11 UNL     1     -91.852 170.954 -13.979  1.00  0.00     0.015 C
BRANCH  31  32
HETATM   32  C12 UNL     1     -91.230 172.272 -14.031  1.00  0.00    -0.035 A
HETATM   33  C13 UNL     1     -91.690 173.244 -14.893  1.00  0.00     0.027 A
HETATM   34  C14 UNL     1     -91.100 174.514 -14.986  1.00  0.00     0.049 A
HETATM   35  C16 UNL     1     -90.014 174.779 -14.174  1.00  0.00     0.032 A
HETATM   36  C17 UNL     1     -89.534 173.833 -13.308  1.00  0.00     0.049 A
HETATM   37  C19 UNL     1     -90.129 172.587 -13.228  1.00  0.00     0.027 A
BRANCH  34  38
HETATM   38  C15 UNL     1     -91.655 175.520 -15.930  1.00  0.00     0.417 C
HETATM   39  F1  UNL     1     -91.066 176.751 -15.795  1.00  0.00    -0.166 F
HETATM   40  F2  UNL     1     -91.587 175.023 -17.195  1.00  0.00    -0.166 F
HETATM   41  F3  UNL     1     -92.986 175.701 -15.533  1.00  0.00    -0.166 F
ENDBRANCH  34  38
BRANCH  36  42
HETATM   42  C18 UNL     1     -88.336 174.143 -12.455  1.00  0.00     0.417 C
HETATM   43  F4  UNL     1     -87.723 175.295 -12.921  1.00  0.00    -0.166 F
HETATM   44  F5  UNL     1     -88.765 174.270 -11.151  1.00  0.00    -0.166 F
HETATM   45  F6  UNL     1     -87.444 173.098 -12.537  1.00  0.00    -0.166 F
ENDBRANCH  36  42
ENDBRANCH  31  32
ENDBRANCH  28  30
ENDBRANCH  27  28
ENDBRANCH  25  27
ENDBRANCH   2  25
TORSDOF 12
ENDMDL