MODEL 2
REMARK VINA RESULT: -11.241417624      0.230      1.001
REMARK  14 active torsions:
REMARK  status: ('A' for Active; 'I' for Inactive)
REMARK    1  A    between atoms: C2_2  and  O1_3
REMARK    2  A    between atoms: C2_2  and  C26_46
REMARK    3  A    between atoms: O1_3  and  C3_4
REMARK    4  A    between atoms: C8_9  and  C9_10
REMARK    5  A    between atoms: C11_12  and  C12_13
REMARK    6  A    between atoms: N2_19  and  C13_20
REMARK    7  A    between atoms: C13_20  and  C14_22
REMARK    8  A    between atoms: C14_22  and  C15_23
REMARK    9  A    between atoms: N4_26  and  C16_27
REMARK   10  A    between atoms: C16_27  and  N5_28
REMARK   11  A    between atoms: N5_28  and  N6_30
REMARK   12  A    between atoms: C18_36  and  C19_37
REMARK   13  A    between atoms: C19_37  and  N8_38
REMARK   14  A    between atoms: N8_38  and  C20_40
ROOT
HETATM    1  C13 UNL     1     -88.203 165.380 -14.990  1.00  0.00     0.120 C
HETATM    2  S1  UNL     1     -87.448 166.369 -16.035  1.00  0.00    -0.059 SA
ENDROOT
BRANCH   1   3
HETATM    3  N2  UNL     1     -87.457 164.546 -14.140  1.00  0.00    -0.272 N
HETATM    4  C9  UNL     1     -86.031 164.395 -13.797  1.00  0.00     0.150 C
HETATM    5  C10 UNL     1     -86.360 164.690 -12.336  1.00  0.00     0.095 C
HETATM    6  C11 UNL     1     -87.387 163.653 -12.079  1.00  0.00     0.112 C
HETATM    7  N1  UNL     1     -88.032 163.601 -13.186  1.00  0.00    -0.296 N
ATOM      8  H1  UNL     1     -88.828 162.990 -13.373  1.00  0.00     0.186 HD
BRANCH   4   9
HETATM    9  C8  UNL     1     -85.795 162.979 -14.163  1.00  0.00     0.000 A
HETATM   10  C3  UNL     1     -84.857 162.126 -13.641  1.00  0.00     0.078 A
HETATM   11  C4  UNL     1     -84.612 160.892 -14.147  1.00  0.00     0.037 A
HETATM   12  C5  UNL     1     -85.363 160.443 -15.272  1.00  0.00     0.003 A
HETATM   13  C6  UNL     1     -86.268 161.208 -15.812  1.00  0.00     0.001 A
HETATM   14  C7  UNL     1     -86.540 162.505 -15.295  1.00  0.00     0.012 A
BRANCH  10  15
HETATM   15  O1  UNL     1     -84.143 162.658 -12.573  1.00  0.00    -0.337 OA
BRANCH  15  16
HETATM   16  C2  UNL     1     -83.052 162.400 -11.861  1.00  0.00     0.232 C
HETATM   17  C1  UNL     1     -81.734 162.324 -12.628  1.00  0.00     0.049 C
BRANCH  16  18
HETATM   18  C26 UNL     1     -83.064 161.345 -10.817  1.00  0.00     0.413 C
HETATM   19  F4  UNL     1     -83.857 161.822  -9.778  1.00  0.00    -0.168 F
HETATM   20  F5  UNL     1     -81.775 161.273 -10.178  1.00  0.00    -0.168 F
HETATM   21  F6  UNL     1     -83.489 160.123 -11.207  1.00  0.00    -0.168 F
ENDBRANCH  16  18
ENDBRANCH  15  16
ENDBRANCH  10  15
ENDBRANCH   4   9
BRANCH   6  22
HETATM   22  C12 UNL     1     -87.479 163.010 -10.751  1.00  0.00     0.430 C
HETATM   23  F1  UNL     1     -86.228 163.234 -10.113  1.00  0.00    -0.165 F
HETATM   24  F2  UNL     1     -87.608 161.623 -10.920  1.00  0.00    -0.165 F
HETATM   25  F3  UNL     1     -88.490 163.488  -9.964  1.00  0.00    -0.165 F
ENDBRANCH   6  22
ENDBRANCH   1   3
BRANCH   1  26
HETATM   26  C14 UNL     1     -89.642 165.306 -14.823  1.00  0.00     0.075 C
BRANCH  26  27
HETATM   27  C15 UNL     1     -90.611 165.701 -15.791  1.00  0.00     0.064 A
HETATM   28  N3  UNL     1     -90.872 165.291 -17.034  1.00  0.00    -0.296 N
HETATM   29  N4  UNL     1     -91.974 165.858 -17.466  1.00  0.00    -0.283 N
ATOM     30  H3  UNL     1     -90.300 164.636 -17.568  1.00  0.00     0.187 HD
HETATM   31  C17 UNL     1     -92.478 166.662 -16.527  1.00  0.00     0.127 A
HETATM   32  C18 UNL     1     -91.659 166.601 -15.459  1.00  0.00     0.024 A
BRANCH  29  33
HETATM   33  C16 UNL     1     -92.548 165.596 -18.782  1.00  0.00     0.288 C
BRANCH  33  34
HETATM   34  N5  UNL     1     -92.805 166.811 -19.473  1.00  0.00    -0.303 N
ATOM     35  H5  UNL     1     -92.206 167.613 -19.277  1.00  0.00     0.183 HD
BRANCH  34  36
HETATM   36  N6  UNL     1     -93.714 166.952 -20.299  1.00  0.00    -0.252 N
HETATM   37  N7  UNL     1     -94.871 167.090 -20.758  1.00  0.00    -0.331 N
ATOM     38  H72 UNL     1     -95.363 167.075 -19.865  1.00  0.00     0.178 HD
ATOM     39  H71 UNL     1     -95.621 167.205 -21.439  1.00  0.00     0.178 HD
ATOM     40  H6  UNL     1     -93.173 166.961 -21.164  1.00  0.00     0.207 HD
ENDBRANCH  34  36
ENDBRANCH  33  34
ENDBRANCH  29  33
BRANCH  32  41
HETATM   41  C19 UNL     1     -91.719 167.470 -14.217  1.00  0.00     0.098 C
BRANCH  41  42
HETATM   42  N8  UNL     1     -92.703 168.430 -14.491  1.00  0.00    -0.393 N
ATOM     43  H8  UNL     1     -93.676 168.143 -14.394  1.00  0.00     0.159 HD
BRANCH  42  44
HETATM   44  C20 UNL     1     -92.463 169.739 -14.885  1.00  0.00     0.081 C
HETATM   45  C21 UNL     1     -93.501 170.344 -15.787  1.00  0.00     0.025 C
HETATM   46  C22 UNL     1     -93.966 171.686 -15.209  1.00  0.00     0.002 C
HETATM   47  C23 UNL     1     -92.787 172.600 -14.981  1.00  0.00     0.000 C
HETATM   48  C24 UNL     1     -91.712 171.959 -14.146  1.00  0.00     0.002 C
HETATM   49  C25 UNL     1     -92.139 170.583 -13.681  1.00  0.00     0.025 C
ENDBRANCH  42  44
ENDBRANCH  41  42
ENDBRANCH  32  41
ENDBRANCH  26  27
ENDBRANCH   1  26
TORSDOF 14
ENDMDL