MODEL 1
REMARK VINA RESULT: -11.368333919      0.000      0.000
REMARK  11 active torsions:
REMARK  status: ('A' for Active; 'I' for Inactive)
REMARK    1  A    between atoms: C4_4  and  O1_5
REMARK    2  A    between atoms: O1_5  and  C5_6
REMARK    3  A    between atoms: N2_10  and  C7_11
REMARK    4  A    between atoms: C7_11  and  C8_12
REMARK    5  A    between atoms: C8_12  and  N3_13
REMARK    6  A    between atoms: C15_20  and  C16_21
REMARK    7  A    between atoms: C17_22  and  C18_23
REMARK    8  A    between atoms: C19_24  and  O2_25
REMARK    9  A    between atoms: O2_25  and  C20_26
REMARK   10  A    between atoms: C26_35  and  C27_36
REMARK   11  A    between atoms: C29_41  and  C30_42
ROOT
HETATM    1  C16 UNL     1     -87.270 162.261 -14.673  1.00  0.00     0.016 C
HETATM    2  C17 UNL     1     -86.595 161.448 -13.937  1.00  0.00     0.016 C
ENDROOT
BRANCH   1   3
HETATM    3  C15 UNL     1     -86.968 163.542 -15.301  1.00  0.00     0.013 A
HETATM    4  C4  UNL     1     -88.018 164.262 -15.857  1.00  0.00     0.089 A
HETATM    5  C3  UNL     1     -87.762 165.489 -16.417  1.00  0.00     0.062 A
HETATM    6  C2  UNL     1     -86.501 166.041 -16.454  1.00  0.00     0.007 A
HETATM    7  C1  UNL     1     -86.253 167.392 -17.059  1.00  0.00     0.068 C
HETATM    8  N5  UNL     1     -85.528 165.326 -15.918  1.00  0.00    -0.368 N
HETATM    9  C31 UNL     1     -85.710 164.112 -15.351  1.00  0.00     0.102 A
ATOM     10  H5  UNL     1     -84.584 165.712 -15.933  1.00  0.00     0.165 HD
BRANCH   4  11
HETATM   11  O1  UNL     1     -89.314 163.723 -15.852  1.00  0.00    -0.307 OA
BRANCH  11  12
HETATM   12  C5  UNL     1     -90.318 164.694 -15.972  1.00  0.00     0.110 A
HETATM   13  C6  UNL     1     -91.200 165.003 -16.956  1.00  0.00     0.146 A
HETATM   14  N1  UNL     1     -91.964 166.054 -16.508  1.00  0.00    -0.307 N
HETATM   15  N2  UNL     1     -91.617 166.422 -15.304  1.00  0.00    -0.299 N
ATOM     16  H1  UNL     1     -92.709 166.492 -17.049  1.00  0.00     0.186 HD
HETATM   17  C14 UNL     1     -90.593 165.600 -14.936  1.00  0.00     0.148 A
BRANCH  15  18
HETATM   18  C7  UNL     1     -92.182 167.478 -14.450  1.00  0.00     0.168 C
BRANCH  18  19
HETATM   19  C8  UNL     1     -91.590 168.801 -14.764  1.00  0.00     0.143 C
BRANCH  19  20
HETATM   20  N3  UNL     1     -92.167 169.909 -14.108  1.00  0.00    -0.392 N
HETATM   21  C9  UNL     1     -93.563 169.995 -13.970  1.00  0.00     0.058 C
HETATM   22  C10 UNL     1     -94.292 170.925 -14.887  1.00  0.00     0.044 C
HETATM   23  C11 UNL     1     -93.385 172.015 -15.428  1.00  0.00     0.007 C
HETATM   24  C12 UNL     1     -92.312 172.337 -14.419  1.00  0.00     0.020 C
HETATM   25  C13 UNL     1     -91.444 171.121 -14.110  1.00  0.00     0.122 C
ENDBRANCH  19  20
ENDBRANCH  18  19
ENDBRANCH  15  18
ENDBRANCH  11  12
ENDBRANCH   4  11
ENDBRANCH   1   3
BRANCH   2  26
HETATM   26  C18 UNL     1     -85.246 161.543 -13.473  1.00  0.00     0.012 A
HETATM   27  C19 UNL     1     -84.881 162.587 -12.631  1.00  0.00     0.081 A
HETATM   28  C25 UNL     1     -83.498 162.612 -12.281  1.00  0.00     0.053 A
HETATM   29  C26 UNL     1     -82.580 161.715 -12.702  1.00  0.00     0.051 A
HETATM   30  C28 UNL     1     -82.999 160.702 -13.526  1.00  0.00     0.033 A
HETATM   31  C29 UNL     1     -84.303 160.596 -13.918  1.00  0.00     0.061 A
BRANCH  27  32
HETATM   32  O2  UNL     1     -85.644 163.553 -12.114  1.00  0.00    -0.345 OA
BRANCH  32  33
HETATM   33  C20 UNL     1     -86.091 163.965 -10.914  1.00  0.00     0.132 C
HETATM   34  C21 UNL     1     -86.977 165.234 -11.110  1.00  0.00     0.060 C
HETATM   35  C22 UNL     1     -88.326 164.795 -11.555  1.00  0.00     0.235 C
HETATM   36  N4  UNL     1     -89.070 164.112 -10.539  1.00  0.00    -0.075 N
HETATM   37  C23 UNL     1     -88.147 163.706  -9.475  1.00  0.00     0.235 C
ATOM     38  H42 UNL     1     -89.852 164.666 -10.188  1.00  0.00     0.277 HD
ATOM     39  H41 UNL     1     -89.608 163.328 -10.909  1.00  0.00     0.277 HD
HETATM   40  C24 UNL     1     -86.988 163.000 -10.146  1.00  0.00     0.060 C
ENDBRANCH  32  33
ENDBRANCH  27  32
BRANCH  29  41
HETATM   41  C27 UNL     1     -81.157 161.823 -12.296  1.00  0.00     0.417 C
HETATM   42  F1  UNL     1     -80.518 162.484 -13.333  1.00  0.00    -0.166 F
HETATM   43  F2  UNL     1     -81.045 162.570 -11.152  1.00  0.00    -0.166 F
HETATM   44  F3  UNL     1     -80.575 160.588 -12.069  1.00  0.00    -0.166 F
ENDBRANCH  29  41
BRANCH  31  45
HETATM   45  C30 UNL     1     -84.753 159.446 -14.772  1.00  0.00     0.418 C
HETATM   46  F4  UNL     1     -85.124 158.344 -13.983  1.00  0.00    -0.166 F
HETATM   47  F5  UNL     1     -83.534 158.947 -15.346  1.00  0.00    -0.166 F
HETATM   48  F6  UNL     1     -85.558 159.719 -15.799  1.00  0.00    -0.166 F
ENDBRANCH  31  45
ENDBRANCH   2  26
TORSDOF 11
ENDMDL