MODEL 1
REMARK VINA RESULT: -8.283136063      0.000      0.000
REMARK  13 active torsions:
REMARK  status: ('A' for Active; 'I' for Inactive)
REMARK    1  A    between atoms: O1_2  and  N1_3
REMARK    2  A    between atoms: C2_5  and  C3_6
REMARK    3  A    between atoms: C2_5  and  C10_19
REMARK    4  A    between atoms: C3_6  and  C4_7
REMARK    5  A    between atoms: C4_7  and  N2_8
REMARK    6  A    between atoms: C4_7  and  C6_12
REMARK    7  A    between atoms: N2_8  and  O2_10
REMARK    8  A    between atoms: C6_12  and  C7_14
REMARK    9  A    between atoms: C7_14  and  O3_17
REMARK   10  A    between atoms: C13_22  and  N3_23
REMARK   11  A    between atoms: C25_36  and  C26_37
REMARK   12  A    between atoms: C27_41  and  C28_42
REMARK   13  A    between atoms: C28_42  and  C30_44
ROOT
HETATM    1  C10 UNL     1     -89.777 165.243 -14.174  1.00  0.00     0.004 A
HETATM    2  C11 UNL     1     -90.573 165.669 -13.139  1.00  0.00     0.017 A
HETATM    3  C12 UNL     1     -91.647 166.472 -13.310  1.00  0.00     0.031 A
HETATM    4  C13 UNL     1     -91.966 166.891 -14.614  1.00  0.00     0.050 A
HETATM    5  C25 UNL     1     -91.184 166.476 -15.704  1.00  0.00     0.086 A
HETATM    6  C27 UNL     1     -90.060 165.622 -15.483  1.00  0.00     0.001 A
ENDROOT
BRANCH   1   7
HETATM    7  C2  UNL     1     -88.449 164.673 -13.759  1.00  0.00     0.067 C
HETATM    8  N1  UNL     1     -87.546 165.375 -13.470  1.00  0.00    -0.267 N
ATOM      9  H1  UNL     1     -87.973 166.298 -13.546  1.00  0.00     0.194 HD
BRANCH   8  10
HETATM   10  O1  UNL     1     -86.348 165.674 -13.117  1.00  0.00    -0.285 OA
HETATM   11  C1  UNL     1     -85.755 165.777 -11.820  1.00  0.00     0.237 C
ENDBRANCH   8  10
BRANCH   7  12
HETATM   12  C3  UNL     1     -88.381 163.207 -13.814  1.00  0.00     0.062 C
BRANCH  12  13
HETATM   13  C4  UNL     1     -87.361 162.445 -13.172  1.00  0.00     0.071 C
BRANCH  13  14
HETATM   14  N2  UNL     1     -87.116 162.463 -11.936  1.00  0.00    -0.268 N
ATOM     15  H2  UNL     1     -86.148 162.364 -11.632  1.00  0.00     0.194 HD
BRANCH  14  16
HETATM   16  O2  UNL     1     -88.081 162.608 -10.990  1.00  0.00    -0.285 OA
HETATM   17  C5  UNL     1     -88.039 163.567  -9.958  1.00  0.00     0.237 C
ENDBRANCH  14  16
ENDBRANCH  13  14
BRANCH  13  18
HETATM   18  C6  UNL     1     -86.490 161.559 -14.000  1.00  0.00     0.255 C
HETATM   19  F1  UNL     1     -86.211 160.378 -13.378  1.00  0.00    -0.240 F
BRANCH  18  20
HETATM   20  C7  UNL     1     -85.266 162.166 -14.555  1.00  0.00     0.087 C
HETATM   21  C8  UNL     1     -84.966 161.938 -16.002  1.00  0.00     0.049 C
HETATM   22  C9  UNL     1     -84.032 161.650 -13.784  1.00  0.00     0.049 C
BRANCH  20  23
HETATM   23  O3  UNL     1     -85.213 163.560 -14.362  1.00  0.00    -0.387 OA
ATOM     24  H3  UNL     1     -85.308 163.810 -13.450  1.00  0.00     0.210 HD
ENDBRANCH  20  23
ENDBRANCH  18  20
ENDBRANCH  13  18
ENDBRANCH  12  13
ENDBRANCH   7  12
ENDBRANCH   1   7
BRANCH   6  25
HETATM   25  C28 UNL     1     -89.437 164.808 -16.526  1.00  0.00    -0.008 C
HETATM   26  C29 UNL     1     -90.123 163.654 -17.165  1.00  0.00     0.050 C
BRANCH  25  27
HETATM   27  C30 UNL     1     -88.108 165.194 -17.098  1.00  0.00     0.383 C
HETATM   28  F5  UNL     1     -87.548 166.389 -16.935  1.00  0.00    -0.209 F
HETATM   29  F6  UNL     1     -87.189 164.164 -16.821  1.00  0.00    -0.209 F
ENDBRANCH  25  27
ENDBRANCH   6  25
BRANCH   5  30
HETATM   30  C26 UNL     1     -91.634 166.845 -17.024  1.00  0.00     0.420 C
HETATM   31  F2  UNL     1     -92.791 166.102 -17.391  1.00  0.00    -0.166 F
HETATM   32  F3  UNL     1     -92.321 168.100 -17.100  1.00  0.00    -0.166 F
HETATM   33  F4  UNL     1     -90.811 166.717 -18.091  1.00  0.00    -0.166 F
ENDBRANCH   5  30
BRANCH   4  34
HETATM   34  N3  UNL     1     -93.130 167.706 -14.633  1.00  0.00    -0.348 N
HETATM   35  C14 UNL     1     -94.412 167.099 -14.821  1.00  0.00     0.138 C
HETATM   36  C15 UNL     1     -95.590 168.015 -14.894  1.00  0.00    -0.030 C
HETATM   37  C16 UNL     1     -96.068 168.265 -16.312  1.00  0.00     0.016 C
HETATM   38  C17 UNL     1     -96.769 167.273 -14.223  1.00  0.00     0.016 C
HETATM   39  C18 UNL     1     -95.485 169.308 -14.181  1.00  0.00     0.028 C
HETATM   40  C19 UNL     1     -94.184 169.983 -14.160  1.00  0.00     0.106 C
HETATM   41  C20 UNL     1     -94.002 171.142 -15.054  1.00  0.00     0.137 C
HETATM   42  C24 UNL     1     -93.009 169.091 -14.377  1.00  0.00     0.019 C
HETATM   43  O4  UNL     1     -94.754 171.443 -15.940  1.00  0.00    -0.297 OA
HETATM   44  C21 UNL     1     -92.793 171.977 -14.812  1.00  0.00     0.083 C
HETATM   45  C22 UNL     1     -91.758 171.205 -14.004  1.00  0.00     0.036 C
HETATM   46  C23 UNL     1     -91.845 169.748 -14.271  1.00  0.00    -0.001 C
ENDBRANCH   4  34
TORSDOF 13
ENDMDL