MODEL 5
REMARK VINA RESULT: -4.734453348      1.460      1.736
REMARK  2 active torsions:
REMARK  status: ('A' for Active; 'I' for Inactive)
REMARK    1  A    between atoms: C3_3  and  C4_4
REMARK    2  A    between atoms: C7_10  and  N2_11
ROOT
HETATM    1  C1  UNL     1      30.181  -2.964  -7.644  1.00  0.00     0.055 C
HETATM    2  C2  UNL     1      29.719  -3.859  -8.742  1.00  0.00     0.016 A
HETATM    3  C3  UNL     1      30.517  -4.079  -9.870  1.00  0.00     0.046 A
HETATM    4  N1  UNL     1      29.853  -5.034 -10.573  1.00  0.00    -0.262 N
ATOM      5  H1  UNL     1      30.160  -5.435 -11.459  1.00  0.00     0.194 HD
HETATM    6  O1  UNL     1      28.770  -5.355  -9.939  1.00  0.00    -0.220 OA
HETATM    7  C7  UNL     1      28.641  -4.663  -8.812  1.00  0.00     0.172 A
ENDROOT
BRANCH   3   8
HETATM    8  C4  UNL     1      31.771  -3.422 -10.229  1.00  0.00     0.030 C
HETATM    9  C5  UNL     1      32.937  -4.385  -9.797  1.00  0.00     0.016 C
HETATM   10  C6  UNL     1      32.018  -3.473 -11.775  1.00  0.00     0.016 C
ENDBRANCH   3   8
BRANCH   7  11
HETATM   11  N2  UNL     1      27.659  -4.764  -7.949  1.00  0.00    -0.378 N
ATOM     12  H22 UNL     1      27.097  -3.994  -7.583  1.00  0.00     0.158 HD
ATOM     13  H21 UNL     1      27.293  -5.612  -7.516  1.00  0.00     0.158 HD
ENDBRANCH   7  11
TORSDOF 2
ENDMDL