MODEL 5
REMARK VINA RESULT: -4.835512831      1.091      1.353
REMARK  2 active torsions:
REMARK  status: ('A' for Active; 'I' for Inactive)
REMARK    1  A    between atoms: C2_2  and  C3_3
REMARK    2  A    between atoms: C6_8  and  C7_9
ROOT
HETATM    1  C3  UNL     1      29.780  -3.333  -9.635  1.00  0.00     0.102 C
HETATM    2  C4  UNL     1      29.831  -4.624 -10.322  1.00  0.00     0.014 C
HETATM    3  C5  UNL     1      30.743  -4.815 -11.256  1.00  0.00     0.083 C
HETATM    4  N1  UNL     1      31.625  -3.748 -11.539  1.00  0.00    -0.379 N
ATOM      5  H1  UNL     1      32.022  -3.651 -12.474  1.00  0.00     0.161 HD
HETATM    6  C6  UNL     1      31.963  -2.808 -10.521  1.00  0.00     0.176 C
HETATM    7  N2  UNL     1      30.997  -2.636  -9.503  1.00  0.00    -0.394 N
ATOM      8  H2  UNL     1      31.175  -2.029  -8.702  1.00  0.00     0.155 HD
ENDROOT
BRANCH   1   9
HETATM    9  C2  UNL     1      29.060  -3.544  -8.302  1.00  0.00     0.024 C
HETATM   10  C1  UNL     1      28.031  -4.655  -8.494  1.00  0.00     0.007 C
ENDBRANCH   1   9
BRANCH   6  11
HETATM   11  C7  UNL     1      32.150  -1.448 -11.208  1.00  0.00     0.042 C
HETATM   12  C8  UNL     1      32.265  -0.332 -10.216  1.00  0.00     0.009 C
ENDBRANCH   6  11
TORSDOF 2
ENDMDL