MODEL 1
REMARK VINA RESULT: -5.140216203      0.000      0.000
REMARK  2 active torsions:
REMARK  status: ('A' for Active; 'I' for Inactive)
REMARK    1  A    between atoms: C2_2  and  C3_3
REMARK    2  A    between atoms: C3_3  and  C4_4
ROOT
HETATM    1  C3  UNL     1      30.158  -3.490  -9.762  1.00  0.00     0.148 C
HETATM    2  N1  UNL     1      31.404  -3.177  -9.063  1.00  0.00    -0.324 N
ATOM      3  H1  UNL     1      31.913  -3.595  -8.284  1.00  0.00     0.166 HD
HETATM    4  C7  UNL     1      31.619  -2.057  -9.905  1.00  0.00     0.217 C
HETATM    5  N2  UNL     1      32.572  -1.227 -10.212  1.00  0.00    -0.365 N
ATOM      6  H21 UNL     1      32.726  -0.421 -10.817  1.00  0.00     0.159 HD
ATOM      7  H22 UNL     1      33.539  -1.137  -9.902  1.00  0.00     0.159 HD
HETATM    8  O1  UNL     1      30.317  -2.178 -10.323  1.00  0.00    -0.290 OA
ENDROOT
BRANCH   1   9
HETATM    9  C2  UNL     1      30.304  -4.542 -10.802  1.00  0.00     0.057 C
HETATM   10  C1  UNL     1      31.402  -5.524 -10.579  1.00  0.00     0.010 C
ENDBRANCH   1   9
BRANCH   1  11
HETATM   11  C4  UNL     1      29.040  -3.577  -8.789  1.00  0.00     0.034 C
HETATM   12  C5  UNL     1      29.448  -3.307  -7.369  1.00  0.00     0.014 C
HETATM   13  C6  UNL     1      28.247  -4.855  -8.821  1.00  0.00     0.014 C
ENDBRANCH   1  11
TORSDOF 2
ENDMDL