MODEL 4
REMARK VINA RESULT: -4.935409902      3.794      4.881
REMARK  1 active torsions:
REMARK  status: ('A' for Active; 'I' for Inactive)
REMARK    1  A    between atoms: C3_3  and  C4_4
ROOT
HETATM    1  C1  UNL     1      27.886  -3.894  -7.744  1.00  0.00     0.012 C
HETATM    2  C2  UNL     1      28.370  -4.612  -8.583  1.00  0.00    -0.110 C
HETATM    3  C3  UNL     1      28.947  -5.497  -9.626  1.00  0.00     0.171 C
ENDROOT
BRANCH   3   4
HETATM    4  C4  UNL     1      29.921  -4.719 -10.403  1.00  0.00     0.109 A
HETATM    5  N1  UNL     1      30.662  -5.167 -11.411  1.00  0.00    -0.320 N
HETATM    6  C5  UNL     1      31.421  -4.149 -11.849  1.00  0.00     0.192 A
ATOM      7  H1  UNL     1      30.655  -6.115 -11.786  1.00  0.00     0.169 HD
HETATM    8  S1  UNL     1      32.515  -4.143 -13.070  1.00  0.00    -0.039 SA
HETATM    9  N2  UNL     1      31.138  -3.071 -11.099  1.00  0.00    -0.275 N
HETATM   10  N3  UNL     1      30.212  -3.436 -10.211  1.00  0.00    -0.286 N
ATOM     11  H2  UNL     1      31.554  -2.144 -11.192  1.00  0.00     0.189 HD
ATOM     12  H3  UNL     1      29.797  -2.832  -9.502  1.00  0.00     0.188 HD
ENDBRANCH   3   4
TORSDOF 1
ENDMDL