MODEL 3
REMARK VINA RESULT: -4.077954036      1.473      3.133
REMARK  1 active torsions:
REMARK  status: ('A' for Active; 'I' for Inactive)
REMARK    1  A    between atoms: C4_7  and  C5_8
ROOT
HETATM    1  C1  UNL     1      30.652  -4.994 -11.210  1.00  0.00     0.046 C
HETATM    2  C2  UNL     1      31.255  -3.650 -11.071  1.00  0.00     0.128 C
HETATM    3  C3  UNL     1      31.746  -3.129 -12.408  1.00  0.00     0.046 C
HETATM    4  N1  UNL     1      30.274  -2.709 -10.508  1.00  0.00    -0.057 N
ATOM      5  H11 UNL     1      29.279  -2.929 -10.551  1.00  0.00     0.279 HD
ATOM      6  H12 UNL     1      30.102  -1.818 -10.974  1.00  0.00     0.279 HD
HETATM    7  C4  UNL     1      30.972  -2.732  -9.212  1.00  0.00     0.234 C
HETATM    8  C6  UNL     1      32.125  -3.358  -9.907  1.00  0.00     0.018 C
HETATM    9  C7  UNL     1      33.126  -2.252 -10.298  1.00  0.00     0.020 C
HETATM   10  C8  UNL     1      32.865  -4.451  -9.250  1.00  0.00     0.020 C
ENDROOT
BRANCH   7  11
HETATM   11  C5  UNL     1      30.287  -3.458  -8.156  1.00  0.00     0.086 C
HETATM   12  N2  UNL     1      29.913  -2.985  -7.033  1.00  0.00    -0.409 N
ATOM     13  H22 UNL     1      30.122  -1.999  -6.877  1.00  0.00     0.155 HD
ATOM     14  H21 UNL     1      29.432  -3.495  -6.292  1.00  0.00     0.155 HD
ENDBRANCH   7  11
TORSDOF 1
ENDMDL