MODEL 3
REMARK VINA RESULT: -4.174258608      1.480      3.323
REMARK  1 active torsions:
REMARK  status: ('A' for Active; 'I' for Inactive)
REMARK    1  A    between atoms: C2_2  and  N1_3
ROOT
HETATM    1  N1  UNL     1      30.007  -3.947  -9.627  1.00  0.00    -0.162 N
HETATM    2  C3  UNL     1      30.897  -3.262 -10.390  1.00  0.00     0.052 A
HETATM    3  C4  UNL     1      31.412  -1.917 -10.053  1.00  0.00     0.071 C
HETATM    4  C5  UNL     1      31.224  -3.989 -11.477  1.00  0.00     0.046 A
HETATM    5  C6  UNL     1      32.170  -3.637 -12.599  1.00  0.00     0.071 C
HETATM    6  N2  UNL     1      30.551  -5.123 -11.406  1.00  0.00    -0.194 N
ATOM      7  H2  UNL     1      30.588  -5.882 -12.086  1.00  0.00     0.184 HD
HETATM    8  C7  UNL     1      29.806  -5.107 -10.281  1.00  0.00     0.682 A
HETATM    9  N3  UNL     1      29.032  -6.066  -9.916  1.00  0.00    -0.234 N
ATOM     10  H31 UNL     1      28.880  -6.944 -10.412  1.00  0.00     0.174 HD
ATOM     11  H32 UNL     1      28.470  -6.054  -9.065  1.00  0.00     0.174 HD
ENDROOT
BRANCH   1  12
HETATM   12  C2  UNL     1      29.440  -3.480  -8.397  1.00  0.00     0.105 C
HETATM   13  C1  UNL     1      28.185  -3.458  -8.092  1.00  0.00     0.031 C
ENDBRANCH   1  12
TORSDOF 1
ENDMDL