MODEL 4
REMARK VINA RESULT: -4.731310527      2.380      3.190
REMARK  1 active torsions:
REMARK  status: ('A' for Active; 'I' for Inactive)
REMARK    1  A    between atoms: C3_5  and  C4_6
ROOT
HETATM    1  C1  UNL     1      27.946  -4.585  -8.411  1.00  0.00     0.089 C
HETATM    2  C2  UNL     1      29.077  -4.296  -9.343  1.00  0.00     0.077 A
HETATM    3  N1  UNL     1      29.743  -5.182 -10.099  1.00  0.00    -0.343 N
ATOM      4  H1  UNL     1      29.535  -6.180 -10.143  1.00  0.00     0.167 HD
HETATM    5  C3  UNL     1      30.734  -4.564 -10.799  1.00  0.00     0.075 A
HETATM    6  C6  UNL     1      30.649  -3.236 -10.443  1.00  0.00     0.035 A
HETATM    7  C7  UNL     1      31.522  -2.177 -11.042  1.00  0.00     0.070 C
HETATM    8  N3  UNL     1      29.650  -3.111  -9.571  1.00  0.00    -0.348 N
ATOM      9  H3  UNL     1      29.363  -2.233  -9.138  1.00  0.00     0.167 HD
ENDROOT
BRANCH   5  10
HETATM   10  C4  UNL     1      31.755  -5.224 -11.610  1.00  0.00     0.049 C
HETATM   11  C5  UNL     1      32.643  -6.121 -10.876  1.00  0.00     0.067 C
HETATM   12  N2  UNL     1      31.552  -5.368 -13.014  1.00  0.00    -0.105 NA
ENDBRANCH   5  10
TORSDOF 1
ENDMDL