MODEL 5
REMARK VINA RESULT: -4.621596211      2.187      4.497
REMARK  2 active torsions:
REMARK  status: ('A' for Active; 'I' for Inactive)
REMARK    1  A    between atoms: C5_7  and  C6_8
REMARK    2  A    between atoms: C6_8  and  N2_10
ROOT
HETATM    1  C1  UNL     1      31.910  -0.065 -11.103  1.00  0.00     0.089 C
HETATM    2  C2  UNL     1      31.824  -1.467 -10.623  1.00  0.00     0.077 A
HETATM    3  N1  UNL     1      32.913  -2.211 -10.231  1.00  0.00    -0.348 N
ATOM      4  H1  UNL     1      33.883  -1.894 -10.230  1.00  0.00     0.167 HD
HETATM    5  C3  UNL     1      32.479  -3.435  -9.848  1.00  0.00     0.031 A
HETATM    6  C4  UNL     1      33.342  -4.516  -9.370  1.00  0.00     0.070 C
HETATM    7  C5  UNL     1      31.100  -3.486  -9.987  1.00  0.00     0.063 A
HETATM    8  N3  UNL     1      30.765  -2.277 -10.457  1.00  0.00    -0.346 N
ATOM      9  H3  UNL     1      29.806  -2.000 -10.667  1.00  0.00     0.167 HD
ENDROOT
BRANCH   7  10
HETATM   10  C6  UNL     1      30.270  -4.663  -9.711  1.00  0.00     0.230 C
HETATM   11  C7  UNL     1      28.899  -4.332  -9.169  1.00  0.00     0.046 C
BRANCH  10  12
HETATM   12  N2  UNL     1      30.058  -5.393 -10.999  1.00  0.00    -0.070 N
ATOM     13  H23 UNL     1      29.176  -5.149 -11.450  1.00  0.00     0.275 HD
ATOM     14  H22 UNL     1      30.683  -5.075 -11.741  1.00  0.00     0.275 HD
ATOM     15  H21 UNL     1      30.143  -6.392 -10.814  1.00  0.00     0.275 HD
ENDBRANCH  10  12
ENDBRANCH   7  10
TORSDOF 2
ENDMDL