MODEL 4
REMARK VINA RESULT: -4.013804963      2.294      2.869
REMARK  1 active torsions:
REMARK  status: ('A' for Active; 'I' for Inactive)
REMARK    1  A    between atoms: O1_2  and  C2_3
ROOT
HETATM    1  C2  UNL     1      30.397  -3.535 -10.290  1.00  0.00     0.131 A
HETATM    2  C3  UNL     1      30.055  -4.830 -10.565  1.00  0.00     0.058 A
HETATM    3  C4  UNL     1      29.085  -5.718  -9.874  1.00  0.00     0.072 C
HETATM    4  N1  UNL     1      30.773  -5.221 -11.633  1.00  0.00    -0.301 N
ATOM      5  H1  UNL     1      30.718  -6.146 -12.059  1.00  0.00     0.186 HD
HETATM    6  N2  UNL     1      31.557  -4.247 -12.058  1.00  0.00    -0.288 N
ATOM      7  H2  UNL     1      32.202  -4.277 -12.847  1.00  0.00     0.188 HD
HETATM    8  C5  UNL     1      31.334  -3.206 -11.237  1.00  0.00     0.150 A
HETATM    9  S1  UNL     1      32.082  -1.762 -11.369  1.00  0.00    -0.056 SA
ENDROOT
BRANCH   1  10
HETATM   10  O1  UNL     1      29.892  -2.765  -9.276  1.00  0.00    -0.351 OA
HETATM   11  C1  UNL     1      30.180  -3.034  -7.895  1.00  0.00     0.210 C
ENDBRANCH   1  10
TORSDOF 1
ENDMDL