MODEL 2
REMARK VINA RESULT: -4.058302267      1.266      1.915
REMARK  1 active torsions:
REMARK  status: ('A' for Active; 'I' for Inactive)
REMARK    1  A    between atoms: C2_2  and  C4_4
ROOT
HETATM    1  C4  UNL     1      30.627  -3.701  -9.151  1.00  0.00     0.189 C
HETATM    2  N1  UNL     1      30.979  -2.447  -9.791  1.00  0.00    -0.346 N
ATOM      3  H1  UNL     1      30.860  -1.456  -9.580  1.00  0.00     0.164 HD
HETATM    4  C5  UNL     1      31.563  -3.207 -10.842  1.00  0.00     0.170 C
HETATM    5  S1  UNL     1      32.032  -2.937 -12.388  1.00  0.00    -0.041 SA
HETATM    6  N2  UNL     1      31.577  -4.328  -9.986  1.00  0.00    -0.346 N
ATOM      7  H2  UNL     1      32.069  -5.222  -9.975  1.00  0.00     0.164 HD
ENDROOT
BRANCH   1   8
HETATM    8  C2  UNL     1      29.177  -4.043  -9.338  1.00  0.00     0.020 C
HETATM    9  C1  UNL     1      29.044  -5.502  -9.723  1.00  0.00     0.013 C
HETATM   10  C3  UNL     1      28.314  -3.770  -8.167  1.00  0.00     0.013 C
ENDBRANCH   1   8
TORSDOF 1
ENDMDL