MODEL 5
REMARK VINA RESULT: -5.977273758      1.272      4.516
REMARK  2 active torsions:
REMARK  status: ('A' for Active; 'I' for Inactive)
REMARK    1  A    between atoms: N1_1  and  C1_5
REMARK    2  A    between atoms: C1_5  and  C2_6
ROOT
HETATM    1  C2  UNL     1     -30.572  -4.412  10.646  1.00  0.00    -0.032 A
HETATM    2  C3  UNL     1     -31.238  -3.381  10.009  1.00  0.00     0.011 A
HETATM    3  C4  UNL     1     -30.750  -2.855   8.833  1.00  0.00     0.032 A
HETATM    4  C5  UNL     1     -29.596  -3.328   8.255  1.00  0.00     0.059 A
HETATM    5  N2  UNL     1     -28.880  -3.046   7.157  1.00  0.00    -0.300 N
ATOM      6  H2  UNL     1     -29.117  -2.324   6.477  1.00  0.00     0.187 HD
HETATM    7  N3  UNL     1     -27.808  -3.845   7.080  1.00  0.00    -0.311 N
ATOM      8  H3  UNL     1     -27.108  -3.826   6.338  1.00  0.00     0.186 HD
HETATM    9  C6  UNL     1     -27.799  -4.676   8.135  1.00  0.00     0.120 A
HETATM   10  C7  UNL     1     -28.918  -4.356   8.874  1.00  0.00     0.009 A
HETATM   11  C8  UNL     1     -29.418  -4.872  10.049  1.00  0.00     0.024 A
ENDROOT
BRANCH   1  12
HETATM   12  C1  UNL     1     -31.065  -5.014  11.923  1.00  0.00     0.268 C
BRANCH  12  13
HETATM   13  N1  UNL     1     -32.106  -5.961  11.575  1.00  0.00    -0.075 N
ATOM     14  H13 UNL     1     -32.485  -5.814  10.639  1.00  0.00     0.274 HD
ATOM     15  H12 UNL     1     -31.753  -6.907  11.427  1.00  0.00     0.274 HD
ATOM     16  H11 UNL     1     -32.816  -5.909  12.306  1.00  0.00     0.274 HD
ENDBRANCH  12  13
ENDBRANCH   1  12
TORSDOF 2
ENDMDL