MODEL 5
REMARK VINA RESULT: -4.934544457      1.823      2.893
REMARK  1 active torsions:
REMARK  status: ('A' for Active; 'I' for Inactive)
REMARK    1  A    between atoms: C3_5  and  C4_6
ROOT
HETATM    1  C1  UNL     1     -31.304  -3.652  11.725  1.00  0.00     0.104 A
HETATM    2  C2  UNL     1     -30.723  -4.869  11.437  1.00  0.00     0.105 A
HETATM    3  N1  UNL     1     -29.843  -4.984  10.402  1.00  0.00    -0.362 N
ATOM      4  H1  UNL     1     -29.419  -5.890  10.199  1.00  0.00     0.165 HD
HETATM    5  C3  UNL     1     -29.528  -3.919   9.649  1.00  0.00     0.077 A
HETATM    6  C6  UNL     1     -30.114  -2.716   9.947  1.00  0.00     0.119 A
HETATM    7  N4  UNL     1     -30.995  -2.592  10.980  1.00  0.00    -0.372 N
ATOM      8  H4  UNL     1     -31.418  -1.687  11.184  1.00  0.00     0.164 HD
ENDROOT
BRANCH   5   9
HETATM    9  C4  UNL     1     -28.591  -4.023   8.540  1.00  0.00     0.092 A
HETATM   10  C5  UNL     1     -28.167  -3.271   7.467  1.00  0.00     0.140 A
HETATM   11  N2  UNL     1     -27.312  -4.232   7.074  1.00  0.00    -0.309 N
HETATM   12  N3  UNL     1     -27.716  -4.958   8.102  1.00  0.00    -0.297 N
ATOM     13  H2  UNL     1     -26.643  -4.350   6.312  1.00  0.00     0.186 HD
ATOM     14  H3  UNL     1     -27.461  -5.885   8.441  1.00  0.00     0.187 HD
ENDBRANCH   5   9
TORSDOF 1
ENDMDL