MODEL 1
REMARK VINA RESULT: -5.434894991      0.000      0.000
REMARK  1 active torsions:
REMARK  status: ('A' for Active; 'I' for Inactive)
REMARK    1  A    between atoms: C2_2  and  C3_3
ROOT
HETATM    1  C3  UNL     1     -29.430  -4.347   9.647  1.00  0.00     0.011 A
HETATM    2  C4  UNL     1     -29.842  -5.120  10.698  1.00  0.00     0.053 A
HETATM    3  C5  UNL     1     -30.882  -4.696  11.497  1.00  0.00     0.029 A
HETATM    4  N1  UNL     1     -31.294  -5.410  12.503  1.00  0.00    -0.399 N
ATOM      5  H11 UNL     1     -32.064  -5.097  13.095  1.00  0.00     0.156 HD
ATOM      6  H12 UNL     1     -30.832  -6.299  12.695  1.00  0.00     0.156 HD
HETATM    7  C6  UNL     1     -31.505  -3.499  11.239  1.00  0.00     0.053 A
HETATM    8  C7  UNL     1     -31.077  -2.732  10.175  1.00  0.00     0.007 A
HETATM    9  C8  UNL     1     -31.738  -1.415   9.865  1.00  0.00     0.068 C
HETATM   10  N2  UNL     1     -30.059  -3.182   9.421  1.00  0.00    -0.363 N
ATOM     11  H2  UNL     1     -29.749  -2.609   8.636  1.00  0.00     0.165 HD
ENDROOT
BRANCH   1  12
HETATM   12  C2  UNL     1     -28.325  -4.713   8.733  1.00  0.00     0.052 C
HETATM   13  C1  UNL     1     -27.947  -3.582   7.814  1.00  0.00     0.011 C
ENDBRANCH   1  12
TORSDOF 1
ENDMDL