MODEL 4
REMARK VINA RESULT: -5.867994704      0.981      2.017
REMARK  2 active torsions:
REMARK  status: ('A' for Active; 'I' for Inactive)
REMARK    1  A    between atoms: N1_1  and  C1_5
REMARK    2  A    between atoms: C1_5  and  C2_6
ROOT
HETATM    1  C2  UNL     1     -29.120  -4.234   9.412  1.00  0.00    -0.031 A
HETATM    2  C3  UNL     1     -29.548  -2.921   9.444  1.00  0.00     0.011 A
HETATM    3  C4  UNL     1     -30.477  -2.548  10.375  1.00  0.00     0.032 A
HETATM    4  C5  UNL     1     -31.000  -3.456  11.286  1.00  0.00     0.060 A
HETATM    5  N2  UNL     1     -31.906  -3.357  12.283  1.00  0.00    -0.351 N
ATOM      6  H2  UNL     1     -32.404  -2.511  12.558  1.00  0.00     0.166 HD
HETATM    7  C6  UNL     1     -32.033  -4.572  12.848  1.00  0.00     0.181 A
HETATM    8  N3  UNL     1     -31.229  -5.460  12.239  1.00  0.00    -0.350 N
ATOM      9  H3  UNL     1     -31.126  -6.449  12.463  1.00  0.00     0.166 HD
HETATM   10  C7  UNL     1     -30.584  -4.772  11.267  1.00  0.00     0.060 A
HETATM   11  C8  UNL     1     -29.638  -5.139  10.315  1.00  0.00     0.040 A
ENDROOT
BRANCH   1  12
HETATM   12  C1  UNL     1     -28.105  -4.715   8.420  1.00  0.00     0.268 C
BRANCH  12  13
HETATM   13  N1  UNL     1     -28.069  -3.824   7.269  1.00  0.00    -0.075 N
ATOM     14  H13 UNL     1     -28.162  -2.846   7.540  1.00  0.00     0.274 HD
ATOM     15  H12 UNL     1     -27.140  -3.777   6.852  1.00  0.00     0.274 HD
ATOM     16  H11 UNL     1     -28.778  -4.101   6.590  1.00  0.00     0.274 HD
ENDBRANCH  12  13
ENDBRANCH   1  12
TORSDOF 2
ENDMDL