MODEL 4
REMARK VINA RESULT: -5.513585363      1.554      2.346
REMARK  1 active torsions:
REMARK  status: ('A' for Active; 'I' for Inactive)
REMARK    1  A    between atoms: C3_5  and  C4_6
ROOT
HETATM    1  C4  UNL     1     -29.124  -3.932   8.859  1.00  0.00     0.093 A
HETATM    2  C5  UNL     1     -28.006  -4.684   8.561  1.00  0.00     0.141 A
HETATM    3  N2  UNL     1     -27.509  -4.306   7.364  1.00  0.00    -0.295 N
ATOM      4  H2  UNL     1     -26.688  -4.689   6.893  1.00  0.00     0.187 HD
HETATM    5  N3  UNL     1     -28.292  -3.348   6.928  1.00  0.00    -0.243 N
ATOM      6  H3  UNL     1     -28.172  -2.857   6.042  1.00  0.00     0.208 HD
HETATM    7  N4  UNL     1     -29.273  -3.103   7.809  1.00  0.00    -0.283 N
ATOM      8  H4  UNL     1     -30.009  -2.405   7.701  1.00  0.00     0.188 HD
ENDROOT
BRANCH   1   9
HETATM    9  C3  UNL     1     -29.969  -4.008  10.046  1.00  0.00     0.061 A
HETATM   10  N1  UNL     1     -30.623  -2.971  10.600  1.00  0.00    -0.364 N
HETATM   11  C2  UNL     1     -31.319  -3.371  11.691  1.00  0.00     0.088 A
ATOM     12  H1  UNL     1     -30.598  -2.014  10.246  1.00  0.00     0.165 HD
HETATM   13  C1  UNL     1     -31.103  -4.725  11.848  1.00  0.00     0.019 A
HETATM   14  C6  UNL     1     -30.266  -5.097  10.821  1.00  0.00     0.033 A
ENDBRANCH   1   9
TORSDOF 1
ENDMDL