MODEL 5
REMARK VINA RESULT: -4.651124646      0.968      1.176
REMARK  2 active torsions:
REMARK  status: ('A' for Active; 'I' for Inactive)
REMARK    1  A    between atoms: C2_2  and  C3_3
REMARK    2  A    between atoms: C7_9  and  N2_10
ROOT
HETATM    1  C3  UNL     1     -29.853  -3.343   9.800  1.00  0.00     0.028 A
HETATM    2  C4  UNL     1     -30.801  -2.349   9.716  1.00  0.00     0.050 A
HETATM    3  C5  UNL     1     -31.889  -2.408  10.561  1.00  0.00     0.024 A
HETATM    4  C6  UNL     1     -32.965  -1.371  10.537  1.00  0.00     0.068 C
HETATM    5  N1  UNL     1     -32.031  -3.404  11.446  1.00  0.00    -0.196 N
ATOM      6  H1  UNL     1     -32.839  -3.439  12.067  1.00  0.00     0.184 HD
HETATM    7  C7  UNL     1     -31.082  -4.356  11.496  1.00  0.00     0.676 A
HETATM    8  N3  UNL     1     -30.006  -4.336  10.691  1.00  0.00    -0.196 N
ATOM      9  H3  UNL     1     -29.305  -5.074  10.757  1.00  0.00     0.184 HD
ENDROOT
BRANCH   7  10
HETATM   10  N2  UNL     1     -31.218  -5.312  12.347  1.00  0.00    -0.234 N
ATOM     11  H22 UNL     1     -31.784  -5.163  13.183  1.00  0.00     0.174 HD
ATOM     12  H21 UNL     1     -30.752  -6.199  12.158  1.00  0.00     0.174 HD
ENDBRANCH   7  10
BRANCH   1  13
HETATM   13  C2  UNL     1     -28.648  -3.317   8.894  1.00  0.00     0.053 C
HETATM   14  C1  UNL     1     -28.202  -4.763   8.741  1.00  0.00     0.011 C
ENDBRANCH   1  13
TORSDOF 2
ENDMDL