MODEL 4
REMARK VINA RESULT: -4.099089432      2.235      3.017
REMARK  1 active torsions:
REMARK  status: ('A' for Active; 'I' for Inactive)
REMARK    1  A    between atoms: C5_9  and  C6_10
ROOT
HETATM    1  C1  UNL     1     -31.811  -1.442   9.908  1.00  0.00     0.070 C
HETATM    2  C2  UNL     1     -31.212  -2.726  10.364  1.00  0.00     0.031 A
HETATM    3  N1  UNL     1     -31.321  -3.352  11.541  1.00  0.00    -0.304 N
ATOM      4  H1  UNL     1     -31.865  -3.010  12.332  1.00  0.00     0.186 HD
HETATM    5  N2  UNL     1     -30.626  -4.472  11.536  1.00  0.00    -0.304 N
ATOM      6  H2  UNL     1     -30.553  -5.125  12.317  1.00  0.00     0.186 HD
HETATM    7  C3  UNL     1     -30.021  -4.623  10.320  1.00  0.00     0.031 A
HETATM    8  C4  UNL     1     -29.163  -5.763   9.953  1.00  0.00     0.070 C
HETATM    9  C5  UNL     1     -30.379  -3.534   9.574  1.00  0.00    -0.001 A
ENDROOT
BRANCH   9  10
HETATM   10  C6  UNL     1     -29.989  -3.219   8.187  1.00  0.00     0.128 C
HETATM   11  S1  UNL     1     -28.232  -3.340   7.843  1.00  0.00    -0.093 SA
ENDBRANCH   9  10
TORSDOF 1
ENDMDL