MODEL 3
REMARK VINA RESULT: -5.169126529      1.103      1.103
REMARK  1 active torsions:
REMARK  status: ('A' for Active; 'I' for Inactive)
REMARK    1  A    between atoms: C1_2  and  C2_3
ROOT
HETATM    1  C2  UNL     1     -29.199  -3.922   8.468  1.00  0.00     0.046 A
HETATM    2  C3  UNL     1     -28.657  -4.988   9.152  1.00  0.00     0.030 A
HETATM    3  C4  UNL     1     -29.395  -5.567  10.169  1.00  0.00     0.005 A
HETATM    4  C5  UNL     1     -30.645  -5.074  10.479  1.00  0.00     0.042 A
HETATM    5  C6  UNL     1     -31.167  -4.006   9.781  1.00  0.00     0.101 A
HETATM    6  S1  UNL     1     -32.663  -3.408  10.145  1.00  0.00    -0.060 SA
HETATM    7  N2  UNL     1     -30.417  -3.467   8.795  1.00  0.00    -0.346 N
ATOM      8  H2  UNL     1     -30.796  -2.676   8.275  1.00  0.00     0.167 HD
ENDROOT
BRANCH   1   9
HETATM    9  C1  UNL     1     -28.440  -3.257   7.356  1.00  0.00     0.129 C
HETATM   10  N1  UNL     1     -27.123  -2.908   7.713  1.00  0.00    -0.113 NA
ENDBRANCH   1   9
TORSDOF 1
ENDMDL