MODEL 4
REMARK VINA RESULT: -5.039075791      1.385      2.495
REMARK  2 active torsions:
REMARK  status: ('A' for Active; 'I' for Inactive)
REMARK    1  A    between atoms: C4_4  and  C5_5
REMARK    2  A    between atoms: C8_10  and  N2_11
ROOT
HETATM    1  C1  UNL     1     -31.882  -4.627  13.015  1.00  0.00     0.068 C
HETATM    2  C2  UNL     1     -31.533  -3.800  11.830  1.00  0.00     0.024 A
HETATM    3  C3  UNL     1     -30.444  -4.068  11.025  1.00  0.00     0.051 A
HETATM    4  C4  UNL     1     -30.111  -3.309   9.925  1.00  0.00     0.032 A
HETATM    5  N1  UNL     1     -30.888  -2.264   9.632  1.00  0.00    -0.195 N
ATOM      6  H1  UNL     1     -30.669  -1.682   8.824  1.00  0.00     0.184 HD
HETATM    7  C8  UNL     1     -31.968  -1.970  10.400  1.00  0.00     0.676 A
HETATM    8  N3  UNL     1     -32.279  -2.724  11.474  1.00  0.00    -0.196 N
ATOM      9  H3  UNL     1     -33.096  -2.478  12.033  1.00  0.00     0.184 HD
ENDROOT
BRANCH   4  10
HETATM   10  C5  UNL     1     -28.925  -3.659   9.107  1.00  0.00     0.028 C
HETATM   11  C6  UNL     1     -28.697  -5.151   9.181  1.00  0.00     0.016 C
HETATM   12  C7  UNL     1     -29.209  -3.311   7.660  1.00  0.00     0.016 C
ENDBRANCH   4  10
BRANCH   7  13
HETATM   13  N2  UNL     1     -32.675  -0.938  10.050  1.00  0.00    -0.234 N
ATOM     14  H22 UNL     1     -32.561  -0.483   9.145  1.00  0.00     0.174 HD
ATOM     15  H21 UNL     1     -33.358  -0.596  10.726  1.00  0.00     0.174 HD
ENDBRANCH   7  13
TORSDOF 2
ENDMDL