MODEL 5
REMARK VINA RESULT: -4.262983167      1.647      2.339
REMARK  2 active torsions:
REMARK  status: ('A' for Active; 'I' for Inactive)
REMARK    1  A    between atoms: C2_2  and  N1_3
REMARK    2  A    between atoms: C2_2  and  C3_7
ROOT
HETATM    1  C3  UNL     1      -6.510  -4.341  15.703  1.00  0.00     0.017 C
HETATM    2  C4  UNL     1      -5.242  -4.134  16.520  1.00  0.00     0.008 C
HETATM    3  C5  UNL     1      -4.095  -4.651  15.696  1.00  0.00     0.020 C
HETATM    4  C6  UNL     1      -4.345  -6.007  15.113  1.00  0.00     0.113 C
HETATM    5  N2  UNL     1      -5.375  -6.069  14.146  1.00  0.00    -0.421 N
ATOM      6  H2  UNL     1      -5.875  -6.936  13.945  1.00  0.00     0.153 HD
HETATM    7  C7  UNL     1      -5.674  -4.852  13.471  1.00  0.00     0.114 C
HETATM    8  C8  UNL     1      -6.248  -3.775  14.334  1.00  0.00     0.025 C
ENDROOT
BRANCH   1   9
HETATM    9  C2  UNL     1      -7.704  -3.710  16.376  1.00  0.00     0.183 C
HETATM   10  C1  UNL     1      -8.803  -4.687  16.668  1.00  0.00     0.040 C
BRANCH   9  11
HETATM   11  N1  UNL     1      -7.226  -3.063  17.584  1.00  0.00    -0.075 N
ATOM     12  H13 UNL     1      -6.520  -2.358  17.373  1.00  0.00     0.274 HD
ATOM     13  H12 UNL     1      -7.940  -2.458  17.988  1.00  0.00     0.274 HD
ATOM     14  H11 UNL     1      -6.883  -3.741  18.265  1.00  0.00     0.274 HD
ENDBRANCH   9  11
ENDBRANCH   1   9
TORSDOF 2
ENDMDL