MODEL 2
REMARK VINA RESULT: -3.731687121      1.065      2.826
REMARK  1 active torsions:
REMARK  status: ('A' for Active; 'I' for Inactive)
REMARK    1  A    between atoms: C2_2  and  N1_3
ROOT
HETATM    1  N1  UNL     1      -6.748  -4.158  14.889  1.00  0.00     0.103 N
HETATM    2  C3  UNL     1      -7.755  -4.854  15.650  1.00  0.00     0.274 C
HETATM    3  C4  UNL     1      -8.196  -3.730  16.590  1.00  0.00     0.033 C
HETATM    4  C5  UNL     1      -6.821  -3.265  17.065  1.00  0.00     0.049 C
HETATM    5  C6  UNL     1      -5.941  -3.433  15.840  1.00  0.00     0.295 C
HETATM    6  S1  UNL     1      -5.684  -1.766  15.143  1.00  0.00    -0.059 SA
ENDROOT
BRANCH   1   7
HETATM    7  C2  UNL     1      -6.005  -4.999  14.004  1.00  0.00     0.269 C
HETATM    8  C1  UNL     1      -5.154  -5.900  14.901  1.00  0.00     0.037 C
ENDBRANCH   1   7
TORSDOF 1
ENDMDL