MODEL 2
REMARK VINA RESULT: -4.145297628      1.349      2.768
REMARK  2 active torsions:
REMARK  status: ('A' for Active; 'I' for Inactive)
REMARK    1  A    between atoms: N1_1  and  C1_5
REMARK    2  A    between atoms: C3_7  and  N2_8
ROOT
HETATM    1  C1  UNL     1      -3.776  -3.792  15.840  1.00  0.00     0.196 C
HETATM    2  C2  UNL     1      -3.575  -3.619  14.325  1.00  0.00     0.067 C
HETATM    3  C3  UNL     1      -5.006  -3.056  14.335  1.00  0.00     0.196 C
HETATM    4  C4  UNL     1      -5.223  -3.957  15.518  1.00  0.00     0.016 C
HETATM    5  C5  UNL     1      -6.223  -3.532  16.521  1.00  0.00     0.013 C
HETATM    6  C6  UNL     1      -7.536  -3.936  15.832  1.00  0.00     0.001 C
HETATM    7  C7  UNL     1      -7.175  -5.191  15.097  1.00  0.00     0.001 C
HETATM    8  C8  UNL     1      -5.681  -5.311  15.087  1.00  0.00     0.013 C
ENDROOT
BRANCH   1   9
HETATM    9  N1  UNL     1      -3.095  -4.922  16.403  1.00  0.00    -0.074 N
ATOM     10  H13 UNL     1      -3.353  -5.041  17.383  1.00  0.00     0.274 HD
ATOM     11  H12 UNL     1      -3.468  -5.790  16.017  1.00  0.00     0.274 HD
ATOM     12  H11 UNL     1      -2.080  -4.894  16.303  1.00  0.00     0.274 HD
ENDBRANCH   1   9
BRANCH   3  13
HETATM   13  N2  UNL     1      -5.688  -3.401  13.133  1.00  0.00    -0.074 N
ATOM     14  H23 UNL     1      -5.382  -2.828  12.347  1.00  0.00     0.274 HD
ATOM     15  H22 UNL     1      -5.397  -4.312  12.780  1.00  0.00     0.274 HD
ATOM     16  H21 UNL     1      -6.698  -3.351  13.267  1.00  0.00     0.274 HD
ENDBRANCH   3  13
TORSDOF 2
ENDMDL