MODEL 1
REMARK VINA RESULT: -4.441600013      0.000      0.000
REMARK  1 active torsions:
REMARK  status: ('A' for Active; 'I' for Inactive)
REMARK    1  A    between atoms: C2_2  and  C3_3
ROOT
HETATM    1  C3  UNL     1      -7.548  -4.288  16.303  1.00  0.00     0.187 C
HETATM    2  C4  UNL     1      -7.324  -5.209  15.145  1.00  0.00     0.060 C
HETATM    3  C5  UNL     1      -5.903  -5.424  14.776  1.00  0.00     0.234 C
HETATM    4  N1  UNL     1      -4.993  -4.420  15.207  1.00  0.00    -0.073 N
ATOM      5  H11 UNL     1      -4.043  -4.653  14.918  1.00  0.00     0.277 HD
ATOM      6  H12 UNL     1      -4.880  -4.452  16.220  1.00  0.00     0.277 HD
HETATM    7  C6  UNL     1      -5.333  -3.100  14.784  1.00  0.00     0.259 C
HETATM    8  C7  UNL     1      -6.087  -2.447  15.949  1.00  0.00     0.260 C
HETATM    9  N2  UNL     1      -7.459  -2.889  15.936  1.00  0.00    -0.069 N
ATOM     10  H21 UNL     1      -8.051  -2.305  16.527  1.00  0.00     0.277 HD
ATOM     11  H22 UNL     1      -7.908  -2.704  15.039  1.00  0.00     0.277 HD
ENDROOT
BRANCH   1  12
HETATM   12  C2  UNL     1      -8.964  -4.575  16.813  1.00  0.00     0.028 C
HETATM   13  C1  UNL     1      -9.449  -3.537  17.764  1.00  0.00     0.007 C
ENDBRANCH   1  12
TORSDOF 1
ENDMDL