MODEL 2
REMARK VINA RESULT: -4.854381242      1.360      2.314
REMARK  2 active torsions:
REMARK  status: ('A' for Active; 'I' for Inactive)
REMARK    1  A    between atoms: N1_1  and  C1_5
REMARK    2  A    between atoms: C4_11  and  C5_12
ROOT
HETATM    1  C1  UNL     1      -5.356  -2.895  15.093  1.00  0.00     0.187 C
HETATM    2  C2  UNL     1      -4.932  -4.320  15.267  1.00  0.00     0.060 C
HETATM    3  C3  UNL     1      -6.058  -5.250  14.882  1.00  0.00     0.235 C
HETATM    4  N2  UNL     1      -7.351  -4.715  15.244  1.00  0.00    -0.070 N
ATOM      5  H21 UNL     1      -8.032  -5.460  15.393  1.00  0.00     0.277 HD
ATOM      6  H22 UNL     1      -7.795  -4.250  14.452  1.00  0.00     0.277 HD
HETATM    7  C4  UNL     1      -7.269  -3.834  16.398  1.00  0.00     0.192 C
HETATM    8  C8  UNL     1      -6.467  -2.591  16.094  1.00  0.00     0.066 C
ENDROOT
BRANCH   1   9
HETATM    9  N1  UNL     1      -4.262  -1.993  15.358  1.00  0.00    -0.075 N
ATOM     10  H13 UNL     1      -4.412  -1.461  16.214  1.00  0.00     0.274 HD
ATOM     11  H12 UNL     1      -3.418  -2.496  15.634  1.00  0.00     0.274 HD
ATOM     12  H11 UNL     1      -4.091  -1.381  14.560  1.00  0.00     0.274 HD
ENDBRANCH   1   9
BRANCH   7  13
HETATM   13  C5  UNL     1      -8.676  -3.532  16.823  1.00  0.00     0.016 A
HETATM   14  C6  UNL     1      -9.034  -3.401  18.259  1.00  0.00     0.007 A
HETATM   15  C7  UNL     1      -9.589  -4.545  17.354  1.00  0.00     0.007 A
ENDBRANCH   7  13
TORSDOF 2
ENDMDL