MODEL 4
REMARK VINA RESULT: -4.057949682      2.641      3.890
REMARK  2 active torsions:
REMARK  status: ('A' for Active; 'I' for Inactive)
REMARK    1  A    between atoms: C6_9  and  C7_10
REMARK    2  A    between atoms: C7_10  and  N2_11
ROOT
HETATM    1  C1  UNL     1      -4.551  -5.078  15.558  1.00  0.00     0.040 C
HETATM    2  C2  UNL     1      -5.415  -4.416  14.518  1.00  0.00     0.187 C
HETATM    3  N1  UNL     1      -6.574  -5.208  14.173  1.00  0.00    -0.071 N
ATOM      4  H11 UNL     1      -6.307  -6.096  13.748  1.00  0.00     0.277 HD
ATOM      5  H12 UNL     1      -7.083  -4.804  13.387  1.00  0.00     0.277 HD
HETATM    6  C3  UNL     1      -7.425  -5.402  15.304  1.00  0.00     0.232 C
HETATM    7  C4  UNL     1      -7.826  -4.177  16.026  1.00  0.00     0.028 C
HETATM    8  C5  UNL     1      -6.969  -2.988  15.881  1.00  0.00     0.010 C
HETATM    9  C6  UNL     1      -5.868  -3.053  14.900  1.00  0.00     0.041 C
ENDROOT
BRANCH   9  10
HETATM   10  C7  UNL     1      -4.651  -2.278  15.413  1.00  0.00     0.236 C
BRANCH  10  11
HETATM   11  N2  UNL     1      -5.123  -0.987  15.815  1.00  0.00    -0.079 N
ATOM     12  H23 UNL     1      -4.372  -0.308  15.947  1.00  0.00     0.274 HD
ATOM     13  H22 UNL     1      -5.617  -0.491  15.073  1.00  0.00     0.274 HD
ATOM     14  H21 UNL     1      -5.689  -1.127  16.651  1.00  0.00     0.274 HD
ENDBRANCH  10  11
ENDBRANCH   9  10
TORSDOF 2
ENDMDL