MODEL 3
REMARK VINA RESULT: -4.058950186      2.462      3.283
REMARK  3 active torsions:
REMARK  status: ('A' for Active; 'I' for Inactive)
REMARK    1  A    between atoms: C2_2  and  C3_3
REMARK    2  A    between atoms: C3_3  and  N1_4
REMARK    3  A    between atoms: C8_12  and  N2_13
ROOT
HETATM    1  C3  UNL     1      -7.041  -3.306  16.665  1.00  0.00     0.151 C
HETATM    2  C4  UNL     1      -6.281  -4.494  16.107  1.00  0.00     0.041 C
HETATM    3  C5  UNL     1      -7.081  -5.156  15.027  1.00  0.00     0.002 C
HETATM    4  C6  UNL     1      -8.307  -5.756  15.642  1.00  0.00     0.002 C
HETATM    5  C7  UNL     1      -8.970  -4.948  16.684  1.00  0.00     0.035 C
HETATM    6  C8  UNL     1      -8.468  -3.580  16.937  1.00  0.00     0.219 C
ENDROOT
BRANCH   1   7
HETATM    7  C2  UNL     1      -6.884  -2.183  15.655  1.00  0.00     0.036 C
HETATM    8  C1  UNL     1      -5.502  -1.649  15.558  1.00  0.00     0.007 C
ENDBRANCH   1   7
BRANCH   1   9
HETATM    9  N1  UNL     1      -6.295  -2.892  17.850  1.00  0.00    -0.068 N
ATOM     10  H13 UNL     1      -5.297  -3.099  17.796  1.00  0.00     0.275 HD
ATOM     11  H12 UNL     1      -6.206  -1.880  17.943  1.00  0.00     0.275 HD
ATOM     12  H11 UNL     1      -6.758  -3.333  18.645  1.00  0.00     0.275 HD
ENDBRANCH   1   9
BRANCH   6  13
HETATM   13  N2  UNL     1      -8.810  -3.240  18.334  1.00  0.00    -0.073 N
ATOM     14  H23 UNL     1      -8.041  -3.447  18.971  1.00  0.00     0.274 HD
ATOM     15  H22 UNL     1      -8.859  -2.231  18.476  1.00  0.00     0.274 HD
ATOM     16  H21 UNL     1      -9.672  -3.705  18.618  1.00  0.00     0.274 HD
ENDBRANCH   6  13
TORSDOF 3
ENDMDL