MODEL 4
REMARK VINA RESULT: -4.532700882      1.760      4.202
REMARK  2 active torsions:
REMARK  status: ('A' for Active; 'I' for Inactive)
REMARK    1  A    between atoms: C2_2  and  N1_3
REMARK    2  A    between atoms: C2_2  and  C3_7
ROOT
HETATM    1  C3  UNL     1      -6.730  -3.877  14.987  1.00  0.00     0.215 C
HETATM    2  C4  UNL     1      -6.204  -3.049  16.164  1.00  0.00     0.035 C
HETATM    3  C5  UNL     1      -7.139  -3.183  17.319  1.00  0.00     0.002 C
HETATM    4  C6  UNL     1      -8.578  -3.367  16.917  1.00  0.00     0.002 C
HETATM    5  C7  UNL     1      -8.947  -4.824  16.826  1.00  0.00     0.027 C
HETATM    6  C8  UNL     1      -8.299  -5.553  15.709  1.00  0.00     0.233 C
HETATM    7  N2  UNL     1      -6.932  -5.205  15.463  1.00  0.00    -0.069 N
ATOM      8  H21 UNL     1      -6.369  -5.370  16.298  1.00  0.00     0.277 HD
ATOM      9  H22 UNL     1      -6.504  -5.877  14.827  1.00  0.00     0.277 HD
ENDROOT
BRANCH   1  10
HETATM   10  C2  UNL     1      -5.663  -3.938  13.887  1.00  0.00     0.209 C
HETATM   11  C1  UNL     1      -4.271  -3.929  14.478  1.00  0.00     0.042 C
BRANCH  10  12
HETATM   12  N1  UNL     1      -5.844  -5.218  13.227  1.00  0.00    -0.073 N
ATOM     13  H13 UNL     1      -5.000  -5.790  13.227  1.00  0.00     0.274 HD
ATOM     14  H12 UNL     1      -6.438  -5.858  13.756  1.00  0.00     0.274 HD
ATOM     15  H11 UNL     1      -6.198  -5.029  12.289  1.00  0.00     0.274 HD
ENDBRANCH  10  12
ENDBRANCH   1  10
TORSDOF 2
ENDMDL