MODEL 3
REMARK VINA RESULT: -4.262146678      1.476      2.036
REMARK  2 active torsions:
REMARK  status: ('A' for Active; 'I' for Inactive)
REMARK    1  A    between atoms: C2_2  and  N1_4
REMARK    2  A    between atoms: C2_2  and  C4_8
ROOT
HETATM    1  C4  UNL     1      -6.984  -3.594  15.396  1.00  0.00     0.220 C
HETATM    2  C5  UNL     1      -7.016  -5.098  15.483  1.00  0.00     0.036 C
HETATM    3  C6  UNL     1      -8.484  -5.482  15.711  1.00  0.00     0.004 C
HETATM    4  C7  UNL     1      -8.872  -4.897  17.031  1.00  0.00     0.027 C
HETATM    5  C8  UNL     1      -8.840  -3.383  16.900  1.00  0.00     0.233 C
HETATM    6  N2  UNL     1      -7.434  -3.038  16.653  1.00  0.00    -0.069 N
ATOM      7  H21 UNL     1      -7.279  -2.030  16.698  1.00  0.00     0.277 HD
ATOM      8  H22 UNL     1      -6.834  -3.320  17.428  1.00  0.00     0.277 HD
ENDROOT
BRANCH   1   9
HETATM    9  C2  UNL     1      -5.566  -3.087  15.176  1.00  0.00     0.144 C
HETATM   10  C1  UNL     1      -4.564  -3.978  15.843  1.00  0.00     0.048 C
HETATM   11  C3  UNL     1      -5.473  -1.710  15.823  1.00  0.00     0.048 C
BRANCH   9  12
HETATM   12  N1  UNL     1      -5.299  -2.933  13.782  1.00  0.00    -0.069 N
ATOM     13  H13 UNL     1      -4.596  -2.212  13.617  1.00  0.00     0.275 HD
ATOM     14  H12 UNL     1      -4.793  -3.737  13.411  1.00  0.00     0.275 HD
ATOM     15  H11 UNL     1      -6.149  -2.752  13.249  1.00  0.00     0.275 HD
ENDBRANCH   9  12
ENDBRANCH   1   9
TORSDOF 2
ENDMDL