MODEL 3
REMARK VINA RESULT: -5.199975110      1.410      4.190
REMARK  2 active torsions:
REMARK  status: ('A' for Active; 'I' for Inactive)
REMARK    1  A    between atoms: N1_1  and  C1_5
REMARK    2  A    between atoms: C4_8  and  C5_9
ROOT
HETATM    1  C1  UNL     1      -8.726  -3.902  16.833  1.00  0.00     0.184 C
HETATM    2  C2  UNL     1      -7.555  -3.331  17.643  1.00  0.00     0.033 C
HETATM    3  C3  UNL     1      -6.647  -2.875  16.493  1.00  0.00     0.009 C
HETATM    4  C4  UNL     1      -6.892  -3.843  15.380  1.00  0.00     0.018 C
HETATM    5  C8  UNL     1      -7.953  -4.816  15.877  1.00  0.00     0.039 C
ENDROOT
BRANCH   4   6
HETATM    6  C5  UNL     1      -5.655  -4.536  14.898  1.00  0.00     0.191 C
HETATM    7  C6  UNL     1      -4.559  -4.729  15.900  1.00  0.00     0.061 C
HETATM    8  C7  UNL     1      -4.404  -6.079  15.221  1.00  0.00     0.235 C
HETATM    9  N2  UNL     1      -5.803  -5.992  14.858  1.00  0.00    -0.070 N
ATOM     10  H22 UNL     1      -6.520  -6.465  15.407  1.00  0.00     0.277 HD
ATOM     11  H21 UNL     1      -6.162  -6.463  14.027  1.00  0.00     0.277 HD
ENDBRANCH   4   6
BRANCH   1  12
HETATM   12  N1  UNL     1      -9.650  -4.626  17.636  1.00  0.00    -0.075 N
ATOM     13  H13 UNL     1      -9.473  -5.628  17.582  1.00  0.00     0.274 HD
ATOM     14  H12 UNL     1      -9.466  -4.477  18.628  1.00  0.00     0.274 HD
ATOM     15  H11 UNL     1     -10.621  -4.413  17.408  1.00  0.00     0.274 HD
ENDBRANCH   1  12
TORSDOF 2
ENDMDL