MODEL 1
REMARK VINA RESULT: -5.033548136      0.000      0.000
REMARK  1 active torsions:
REMARK  status: ('A' for Active; 'I' for Inactive)
REMARK    1  A    between atoms: C2_2  and  C3_3
ROOT
HETATM    1  C3  UNL     1      29.315  -4.214  -8.947  1.00  0.00     0.042 A
HETATM    2  N1  UNL     1      28.762  -5.397  -9.241  1.00  0.00    -0.263 N
ATOM      3  H1  UNL     1      28.009  -5.850  -8.723  1.00  0.00     0.194 HD
HETATM    4  O1  UNL     1      29.350  -5.873 -10.306  1.00  0.00    -0.220 OA
HETATM    5  C4  UNL     1      30.282  -5.034 -10.730  1.00  0.00     0.172 A
HETATM    6  N2  UNL     1      31.063  -5.168 -11.748  1.00  0.00    -0.378 N
ATOM      7  H21 UNL     1      31.781  -4.522 -12.075  1.00  0.00     0.158 HD
ATOM      8  H22 UNL     1      31.056  -5.970 -12.379  1.00  0.00     0.158 HD
HETATM    9  C5  UNL     1      30.290  -3.951  -9.877  1.00  0.00     0.015 A
HETATM   10  C6  UNL     1      31.194  -2.779  -9.985  1.00  0.00     0.055 C
ENDROOT
BRANCH   1  11
HETATM   11  C2  UNL     1      28.947  -3.337  -7.830  1.00  0.00     0.055 C
HETATM   12  C1  UNL     1      27.631  -3.832  -7.233  1.00  0.00     0.011 C
ENDBRANCH   1  11
TORSDOF 1
ENDMDL