MODEL 5
REMARK VINA RESULT: -3.660871483      1.363      1.492
REMARK  2 active torsions:
REMARK  status: ('A' for Active; 'I' for Inactive)
REMARK    1  A    between atoms: C4_7  and  C5_8
REMARK    2  A    between atoms: C5_8  and  N2_9
ROOT
HETATM    1  C1  UNL     1      31.439  -4.845 -12.084  1.00  0.00     0.078 C
HETATM    2  C2  UNL     1      31.435  -4.314 -10.661  1.00  0.00     0.219 C
HETATM    3  C3  UNL     1      32.603  -4.885  -9.863  1.00  0.00     0.078 C
HETATM    4  N1  UNL     1      30.178  -4.670 -10.063  1.00  0.00    -0.036 N
ATOM      5  H11 UNL     1      30.252  -5.398  -9.352  1.00  0.00     0.281 HD
ATOM      6  H12 UNL     1      29.555  -5.178 -10.690  1.00  0.00     0.281 HD
HETATM    7  C4  UNL     1      29.615  -3.409  -9.562  1.00  0.00     0.238 C
HETATM    8  C6  UNL     1      30.869  -2.570  -9.441  1.00  0.00     0.205 C
HETATM    9  O1  UNL     1      31.541  -2.927 -10.625  1.00  0.00    -0.353 OA
ENDROOT
BRANCH   7  10
HETATM   10  C5  UNL     1      29.006  -3.721  -8.218  1.00  0.00     0.265 C
BRANCH  10  11
HETATM   11  N2  UNL     1      27.982  -4.749  -8.442  1.00  0.00    -0.077 N
ATOM     12  H23 UNL     1      27.152  -4.392  -8.917  1.00  0.00     0.274 HD
ATOM     13  H22 UNL     1      28.250  -5.436  -9.146  1.00  0.00     0.274 HD
ATOM     14  H21 UNL     1      27.776  -5.165  -7.534  1.00  0.00     0.274 HD
ENDBRANCH  10  11
ENDBRANCH   7  10
TORSDOF 2
ENDMDL