MODEL 2
REMARK VINA RESULT: -4.773874783      1.403      2.260
REMARK  1 active torsions:
REMARK  status: ('A' for Active; 'I' for Inactive)
REMARK    1  A    between atoms: C2_2  and  C3_3
ROOT
HETATM    1  C3  UNL     1      29.836  -4.245  -9.863  1.00  0.00     0.082 A
HETATM    2  N1  UNL     1      30.571  -4.448 -10.966  1.00  0.00    -0.347 N
ATOM      3  H1  UNL     1      30.552  -5.294 -11.535  1.00  0.00     0.167 HD
HETATM    4  C4  UNL     1      31.345  -3.359 -11.212  1.00  0.00     0.048 A
HETATM    5  C5  UNL     1      32.276  -3.240 -12.344  1.00  0.00     0.072 C
HETATM    6  C6  UNL     1      31.058  -2.486 -10.222  1.00  0.00     0.140 A
HETATM    7  N2  UNL     1      31.627  -1.186 -10.051  1.00  0.00    -0.081 NA
HETATM    8  N3  UNL     1      30.142  -3.022  -9.401  1.00  0.00    -0.333 N
ATOM      9  H3  UNL     1      29.747  -2.579  -8.572  1.00  0.00     0.168 HD
ENDROOT
BRANCH   1  10
HETATM   10  C2  UNL     1      28.876  -5.223  -9.297  1.00  0.00     0.072 C
HETATM   11  C1  UNL     1      27.990  -4.467  -8.305  1.00  0.00     0.013 C
ENDBRANCH   1  10
TORSDOF 1
ENDMDL