MODEL 1
REMARK VINA RESULT: -4.585340669      0.000      0.000
REMARK  2 active torsions:
REMARK  status: ('A' for Active; 'I' for Inactive)
REMARK    1  A    between atoms: C2_2  and  C3_3
REMARK    2  A    between atoms: C6_9  and  N2_10
ROOT
HETATM    1  C3  UNL     1      30.068  -3.988 -10.045  1.00  0.00     0.018 A
HETATM    2  C4  UNL     1      29.140  -4.342  -9.074  1.00  0.00     0.082 A
HETATM    3  C5  UNL     1      28.629  -3.415  -8.030  1.00  0.00     0.079 C
HETATM    4  O1  UNL     1      28.852  -5.599  -9.296  1.00  0.00    -0.240 OA
HETATM    5  N1  UNL     1      29.526  -6.069 -10.330  1.00  0.00    -0.245 N
ATOM      6  H1  UNL     1      29.467  -7.022 -10.690  1.00  0.00     0.196 HD
HETATM    7  C6  UNL     1      30.294  -5.105 -10.826  1.00  0.00     0.128 A
ENDROOT
BRANCH   7   8
HETATM    8  N2  UNL     1      31.114  -5.151 -11.845  1.00  0.00    -0.384 N
ATOM      9  H22 UNL     1      31.172  -4.527 -12.650  1.00  0.00     0.157 HD
ATOM     10  H21 UNL     1      31.842  -5.853 -11.975  1.00  0.00     0.157 HD
ENDBRANCH   7   8
BRANCH   1  11
HETATM   11  C2  UNL     1      30.715  -2.678 -10.228  1.00  0.00     0.040 C
HETATM   12  C1  UNL     1      32.138  -2.817  -9.672  1.00  0.00     0.010 C
ENDBRANCH   1  11
TORSDOF 2
ENDMDL