MODEL 5
REMARK VINA RESULT: -3.525083349      1.880      2.523
REMARK  1 active torsions:
REMARK  status: ('A' for Active; 'I' for Inactive)
REMARK    1  A    between atoms: C3_4  and  N1_5
ROOT
HETATM    1  C1  UNL     1      32.091  -1.377 -10.191  1.00  0.00     0.078 C
HETATM    2  C2  UNL     1      31.287  -2.655 -10.234  1.00  0.00     0.068 A
HETATM    3  S1  UNL     1      30.219  -3.288  -9.060  1.00  0.00    -0.039 SA
HETATM    4  C3  UNL     1      29.771  -4.705  -9.902  1.00  0.00     0.158 A
HETATM    5  N2  UNL     1      30.476  -4.595 -11.033  1.00  0.00    -0.278 N
ATOM      6  H2  UNL     1      30.416  -5.313 -11.755  1.00  0.00     0.189 HD
HETATM    7  N3  UNL     1      31.227  -3.575 -11.194  1.00  0.00    -0.292 N
HETATM    8  C4  UNL     1      32.042  -3.380 -12.422  1.00  0.00     0.178 C
ENDROOT
BRANCH   4   9
HETATM    9  N1  UNL     1      28.948  -5.674  -9.555  1.00  0.00    -0.379 N
ATOM     10  H12 UNL     1      29.114  -6.679  -9.596  1.00  0.00     0.158 HD
ATOM     11  H11 UNL     1      28.000  -5.627  -9.182  1.00  0.00     0.158 HD
ENDBRANCH   4   9
TORSDOF 1
ENDMDL