MODEL 4
REMARK VINA RESULT: -3.882002176      2.512      3.809
REMARK  1 active torsions:
REMARK  status: ('A' for Active; 'I' for Inactive)
REMARK    1  A    between atoms: N1_2  and  C3_4
ROOT
HETATM    1  C3  UNL     1      29.960  -4.204  -9.740  1.00  0.00     0.696 A
HETATM    2  N2  UNL     1      29.986  -5.379 -10.426  1.00  0.00    -0.130 N
ATOM      3  H2  UNL     1      29.482  -6.228 -10.166  1.00  0.00     0.205 HD
HETATM    4  N3  UNL     1      30.768  -5.246 -11.484  1.00  0.00    -0.261 N
ATOM      5  H3  UNL     1      30.962  -5.978 -12.168  1.00  0.00     0.190 HD
HETATM    6  C4  UNL     1      31.266  -4.007 -11.521  1.00  0.00     0.205 A
HETATM    7  S1  UNL     1      32.278  -3.332 -12.613  1.00  0.00    -0.039 SA
HETATM    8  N4  UNL     1      30.757  -3.373 -10.436  1.00  0.00    -0.164 N
ATOM      9  H4  UNL     1      30.951  -2.403 -10.183  1.00  0.00     0.186 HD
ENDROOT
BRANCH   1  10
HETATM   10  N1  UNL     1      29.238  -3.925  -8.541  1.00  0.00    -0.225 N
HETATM   11  C1  UNL     1      29.885  -3.126  -7.529  1.00  0.00     0.168 C
HETATM   12  C2  UNL     1      27.914  -4.405  -8.319  1.00  0.00     0.168 C
ENDBRANCH   1  10
TORSDOF 1
ENDMDL