MODEL 4
REMARK VINA RESULT: -3.801663680      2.330      2.832
REMARK  2 active torsions:
REMARK  status: ('A' for Active; 'I' for Inactive)
REMARK    1  A    between atoms: C2_2  and  C3_3
REMARK    2  A    between atoms: N1_8  and  N2_9
ROOT
HETATM    1  C3  UNL     1      30.796  -4.543 -10.842  1.00  0.00     0.105 C
HETATM    2  C4  UNL     1      31.832  -4.154  -9.841  1.00  0.00     0.191 C
HETATM    3  O1  UNL     1      33.050  -4.666 -10.258  1.00  0.00    -0.368 OA
HETATM    4  C5  UNL     1      32.820  -5.611 -11.223  1.00  0.00     0.210 C
HETATM    5  C6  UNL     1      32.851  -6.986 -10.599  1.00  0.00     0.058 C
HETATM    6  N1  UNL     1      31.553  -5.314 -11.827  1.00  0.00    -0.203 NA
ENDROOT
BRANCH   6   7
HETATM    7  N2  UNL     1      31.660  -4.628 -13.039  1.00  0.00    -0.361 NA
ATOM      8  H22 UNL     1      31.942  -3.654 -12.932  1.00  0.00     0.171 HD
ATOM      9  H21 UNL     1      30.772  -4.617 -13.541  1.00  0.00     0.171 HD
ENDBRANCH   6   7
BRANCH   1  10
HETATM   10  C2  UNL     1      29.737  -5.449 -10.300  1.00  0.00     0.019 C
HETATM   11  C1  UNL     1      28.907  -4.859  -9.214  1.00  0.00     0.007 C
ENDBRANCH   1  10
TORSDOF 2
ENDMDL