MODEL 2
REMARK VINA RESULT: -4.817217662      1.055      1.216
REMARK  3 active torsions:
REMARK  status: ('A' for Active; 'I' for Inactive)
REMARK    1  A    between atoms: C3_5  and  O1_7
REMARK    2  A    between atoms: O1_7  and  C4_8
REMARK    3  A    between atoms: C4_8  and  C5_9
ROOT
HETATM    1  C1  UNL     1      25.825  -3.395  -5.191  1.00  0.00     0.037 C
HETATM    2  C2  UNL     1      26.538  -4.021  -5.946  1.00  0.00     0.002 C
HETATM    3  N1  UNL     1      27.375  -4.726  -6.817  1.00  0.00    -0.284 N
ATOM      4  H1  UNL     1      27.670  -5.674  -6.581  1.00  0.00     0.179 HD
HETATM    5  C3  UNL     1      27.771  -4.192  -7.903  1.00  0.00     0.239 C
HETATM    6  N2  UNL     1      27.372  -2.885  -8.238  1.00  0.00    -0.056 NA
ENDROOT
BRANCH   5   7
HETATM    7  O1  UNL     1      28.591  -4.904  -8.738  1.00  0.00    -0.324 OA
BRANCH   7   8
HETATM    8  C4  UNL     1      29.618  -4.332  -9.479  1.00  0.00     0.178 C
BRANCH   8   9
HETATM    9  C5  UNL     1      30.206  -5.299 -10.503  1.00  0.00     0.022 C
HETATM   10  C6  UNL     1      31.113  -4.562 -11.463  1.00  0.00     0.007 C
ENDBRANCH   8   9
ENDBRANCH   7   8
ENDBRANCH   5   7
TORSDOF 3
ENDMDL