MODEL 5
REMARK VINA RESULT: -4.701480839      1.291      1.912
REMARK  2 active torsions:
REMARK  status: ('A' for Active; 'I' for Inactive)
REMARK    1  A    between atoms: C2_2  and  N1_4
REMARK    2  A    between atoms: N1_4  and  C4_6
ROOT
HETATM    1  C4  UNL     1      28.766  -3.802  -7.848  1.00  0.00     0.261 A
HETATM    2  N2  UNL     1      27.715  -4.617  -7.949  1.00  0.00    -0.243 N
ATOM      3  H2  UNL     1      27.407  -5.297  -8.644  1.00  0.00     0.192 HD
HETATM    4  N3  UNL     1      27.231  -4.198  -6.795  1.00  0.00    -0.195 N
ATOM      5  H3  UNL     1      26.411  -4.404  -6.224  1.00  0.00     0.216 HD
HETATM    6  O1  UNL     1      28.258  -3.407  -6.707  1.00  0.00    -0.184 OA
ENDROOT
BRANCH   1   7
HETATM    7  N1  UNL     1      29.829  -3.477  -8.500  1.00  0.00    -0.350 N
ATOM      8  H1  UNL     1      30.627  -3.112  -7.980  1.00  0.00     0.163 HD
BRANCH   7   9
HETATM    9  C2  UNL     1      29.943  -3.605  -9.937  1.00  0.00     0.077 C
HETATM   10  C1  UNL     1      30.232  -5.028 -10.368  1.00  0.00     0.032 C
HETATM   11  C3  UNL     1      31.032  -2.722 -10.509  1.00  0.00     0.032 C
ENDBRANCH   7   9
ENDBRANCH   1   7
TORSDOF 2
ENDMDL