MODEL 5
REMARK VINA RESULT: -3.989621888      1.396      3.704
REMARK  2 active torsions:
REMARK  status: ('A' for Active; 'I' for Inactive)
REMARK    1  A    between atoms: C3_5  and  C4_6
REMARK    2  A    between atoms: C4_6  and  N2_7
ROOT
HETATM    1  C1  UNL     1      32.999  -2.282 -10.253  1.00  0.00     0.089 C
HETATM    2  C2  UNL     1      31.706  -2.990  -9.932  1.00  0.00     0.077 A
HETATM    3  N1  UNL     1      30.702  -2.538  -9.163  1.00  0.00    -0.347 N
ATOM      4  H1  UNL     1      30.675  -1.638  -8.683  1.00  0.00     0.167 HD
HETATM    5  C3  UNL     1      29.740  -3.470  -9.135  1.00  0.00     0.058 A
HETATM    6  C5  UNL     1      30.144  -4.536  -9.903  1.00  0.00     0.031 A
HETATM    7  C6  UNL     1      29.418  -5.819 -10.183  1.00  0.00     0.070 C
HETATM    8  N3  UNL     1      31.351  -4.209 -10.376  1.00  0.00    -0.348 N
ATOM      9  H3  UNL     1      31.919  -4.798 -10.984  1.00  0.00     0.167 HD
ENDROOT
BRANCH   5  10
HETATM   10  C4  UNL     1      28.428  -3.432  -8.418  1.00  0.00     0.288 C
BRANCH  10  11
HETATM   11  N2  UNL     1      28.699  -3.413  -6.998  1.00  0.00    -0.074 N
ATOM     12  H23 UNL     1      29.501  -3.987  -6.741  1.00  0.00     0.274 HD
ATOM     13  H22 UNL     1      29.065  -2.516  -6.678  1.00  0.00     0.274 HD
ATOM     14  H21 UNL     1      27.845  -3.687  -6.512  1.00  0.00     0.274 HD
ENDBRANCH  10  11
ENDBRANCH   5  10
TORSDOF 2
ENDMDL