MODEL 1
REMARK VINA RESULT: -7.856873908      0.000      0.000
REMARK  11 active torsions:
REMARK  status: ('A' for Active; 'I' for Inactive)
REMARK    1  A    between atoms: C2_3  and  N2_4
REMARK    2  A    between atoms: C5_12  and  N5_13
REMARK    3  A    between atoms: C8_20  and  N7_21
REMARK    4  A    between atoms: N8_24  and  C9_25
REMARK    5  A    between atoms: C9_25  and  C10_26
REMARK    6  A    between atoms: C10_26  and  O3_28
REMARK    7  A    between atoms: O3_28  and  C11_29
REMARK    8  A    between atoms: C11_29  and  C12_30
REMARK    9  A    between atoms: C11_29  and  C13_33
REMARK   10  A    between atoms: C13_33  and  O6_34
REMARK   11  A    between atoms: C13_33  and  O7_36
ROOT
HETATM    1  N1  UNL     1      -6.710 -33.211  20.863  1.00  0.00    -0.196 NA
HETATM    2  C1  UNL     1      -6.807 -34.105  21.589  1.00  0.00     0.079 C
HETATM    3  C2  UNL     1      -6.963 -35.225  22.514  1.00  0.00     0.256 C
ENDROOT
BRANCH   3   4
HETATM    4  N2  UNL     1      -6.449 -36.432  21.923  1.00  0.00    -0.302 N
HETATM    5  C3  UNL     1      -7.203 -37.310  21.234  1.00  0.00     0.130 A
HETATM    6  N3  UNL     1      -8.497 -37.307  20.903  1.00  0.00    -0.293 N
HETATM    7  C6  UNL     1      -6.427 -38.373  20.832  1.00  0.00     0.083 A
HETATM    8  C4  UNL     1      -9.053 -38.324  20.186  1.00  0.00     0.327 A
ATOM      9  H3  UNL     1      -9.083 -36.524  21.193  1.00  0.00     0.172 HD
HETATM   10  O1  UNL     1     -10.272 -38.333  19.867  1.00  0.00    -0.247 OA
HETATM   11  N4  UNL     1      -8.308 -39.386  19.778  1.00  0.00    -0.294 N
HETATM   12  C5  UNL     1      -7.003 -39.394  20.108  1.00  0.00     0.119 A
ATOM     13  H4  UNL     1      -8.723 -40.148  19.241  1.00  0.00     0.172 HD
HETATM   14  C7  UNL     1      -5.172 -38.085  21.317  1.00  0.00     0.112 A
HETATM   15  N6  UNL     1      -3.914 -38.560  21.387  1.00  0.00    -0.187 N
HETATM   16  C14 UNL     1      -5.176 -36.873  22.000  1.00  0.00     0.157 A
HETATM   17  C8  UNL     1      -3.169 -37.685  22.079  1.00  0.00     0.680 A
ATOM     18  H6  UNL     1      -3.584 -39.436  20.982  1.00  0.00     0.184 HD
HETATM   19  N8  UNL     1      -3.935 -36.648  22.457  1.00  0.00    -0.157 N
BRANCH  12  20
HETATM   20  N5  UNL     1      -6.285 -40.392  19.729  1.00  0.00    -0.385 N
ATOM     21  H52 UNL     1      -6.348 -40.725  18.767  1.00  0.00     0.157 HD
ATOM     22  H51 UNL     1      -5.665 -40.827  20.412  1.00  0.00     0.157 HD
ENDBRANCH  12  20
BRANCH  17  23
HETATM   23  N7  UNL     1      -1.929 -37.829  22.334  1.00  0.00    -0.234 N
ATOM     24  H72 UNL     1      -1.165 -37.727  21.666  1.00  0.00     0.174 HD
ATOM     25  H71 UNL     1      -1.547 -38.064  23.250  1.00  0.00     0.174 HD
ENDBRANCH  17  23
BRANCH  19  26
HETATM   26  C9  UNL     1      -3.456 -35.541  23.231  1.00  0.00     0.260 C
BRANCH  26  27
HETATM   27  C10 UNL     1      -2.942 -34.410  22.438  1.00  0.00     0.278 C
HETATM   28  O2  UNL     1      -3.386 -33.261  22.630  1.00  0.00    -0.263 OA
BRANCH  27  29
HETATM   29  O3  UNL     1      -1.968 -34.601  21.486  1.00  0.00    -0.299 OA
BRANCH  29  30
HETATM   30  C11 UNL     1      -2.197 -34.542  20.097  1.00  0.00     0.286 C
BRANCH  30  31
HETATM   31  C12 UNL     1      -1.520 -33.254  19.655  1.00  0.00     0.208 C
HETATM   32  O4  UNL     1      -2.270 -32.355  19.177  1.00  0.00    -0.646 OA
HETATM   33  O5  UNL     1      -0.176 -33.037  19.753  1.00  0.00    -0.646 OA
ENDBRANCH  30  31
BRANCH  30  34
HETATM   34  C13 UNL     1      -1.559 -35.614  19.285  1.00  0.00     0.293 C
BRANCH  34  35
HETATM   35  O6  UNL     1      -2.242 -36.790  19.168  1.00  0.00    -0.368 OA
ATOM     36  H6  UNL     1      -2.982 -36.799  18.573  1.00  0.00     0.212 HD
ENDBRANCH  34  35
BRANCH  34  37
HETATM   37  O7  UNL     1      -1.341 -35.053  18.000  1.00  0.00    -0.368 OA
ATOM     38  H7  UNL     1      -0.522 -35.420  17.690  1.00  0.00     0.212 HD
ENDBRANCH  34  37
ENDBRANCH  30  34
ENDBRANCH  29  30
ENDBRANCH  27  29
ENDBRANCH  26  27
ENDBRANCH  19  26
ENDBRANCH   3   4
TORSDOF 11
ENDMDL