MODEL 1
REMARK VINA RESULT: -8.137317868      0.000      0.000
REMARK  9 active torsions:
REMARK  status: ('A' for Active; 'I' for Inactive)
REMARK    1  A    between atoms: N1_1  and  C1_4
REMARK    2  A    between atoms: C2_7  and  S1_8
REMARK    3  A    between atoms: S1_8  and  C3_9
REMARK    4  A    between atoms: C3_9  and  C4_10
REMARK       I    between atoms: C4_10  and  N3_12
REMARK    5  A    between atoms: N3_12  and  C5_14
REMARK    6  A    between atoms: C5_14  and  C6_15
REMARK    7  A    between atoms: C7_19  and  N5_20
REMARK       I    between atoms: C8_22  and  N7_24
REMARK    8  A    between atoms: N7_24  and  N8_26
REMARK    9  A    between atoms: C10_36  and  N11_37
ROOT
HETATM    1  C4  UNL     1      -0.698 -37.888  23.719  1.00  0.00     0.227 C
HETATM    2  O1  UNL     1      -0.049 -37.345  24.653  1.00  0.00    -0.273 OA
HETATM    3  N3  UNL     1      -0.518 -37.461  22.378  1.00  0.00    -0.356 N
ATOM      4  H3  UNL     1      -1.051 -37.918  21.638  1.00  0.00     0.162 HD
ENDROOT
BRANCH   3   5
HETATM    5  C5  UNL     1       0.402 -36.391  22.027  1.00  0.00     0.184 C
BRANCH   5   6
HETATM    6  C6  UNL     1      -0.425 -35.244  21.527  1.00  0.00     0.354 C
HETATM    7  N4  UNL     1      -1.847 -35.523  21.463  1.00  0.00    -0.008 N
HETATM    8  C7  UNL     1      -2.477 -34.389  20.816  1.00  0.00     0.398 C
ATOM      9  H42 UNL     1      -2.060 -36.411  21.008  1.00  0.00     0.285 HD
ATOM     10  H41 UNL     1      -2.253 -35.741  22.373  1.00  0.00     0.285 HD
HETATM   11  N9  UNL     1      -2.120 -34.448  19.417  1.00  0.00    -0.292 N
HETATM   12  C9  UNL     1      -0.762 -34.762  19.148  1.00  0.00     0.365 C
ATOM     13  H9  UNL     1      -2.797 -34.275  18.675  1.00  0.00     0.168 HD
HETATM   14  O4  UNL     1      -0.349 -34.950  17.984  1.00  0.00    -0.238 OA
HETATM   15  O5  UNL     1       0.086 -34.845  20.264  1.00  0.00    -0.268 OA
BRANCH   8  16
HETATM   16  N5  UNL     1      -3.851 -34.205  21.100  1.00  0.00    -0.319 N
HETATM   17  C8  UNL     1      -4.400 -34.425  22.246  1.00  0.00     0.210 C
HETATM   18  N6  UNL     1      -3.656 -34.882  23.355  1.00  0.00    -0.062 NA
HETATM   19  N7  UNL     1      -5.805 -34.185  22.346  1.00  0.00    -0.213 N
ATOM     20  H7  UNL     1      -6.416 -34.848  22.825  1.00  0.00     0.196 HD
ATOM     21  H5  UNL     1      -4.451 -33.876  20.344  1.00  0.00     0.166 HD
BRANCH  19  22
HETATM   22  N8  UNL     1      -6.317 -33.025  21.774  1.00  0.00    -0.036 N
HETATM   23  O2  UNL     1      -6.400 -31.984  22.453  1.00  0.00    -0.516 OA
HETATM   24  O3  UNL     1      -6.725 -33.060  20.452  1.00  0.00    -0.516 OA
ENDBRANCH  19  22
ENDBRANCH   8  16
ENDBRANCH   5   6
ENDBRANCH   3   5
BRANCH   1  25
HETATM   25  C3  UNL     1      -1.633 -38.962  24.043  1.00  0.00     0.185 C
BRANCH  25  26
HETATM   26  S1  UNL     1      -3.374 -38.414  24.112  1.00  0.00    -0.084 SA
BRANCH  26  27
HETATM   27  C2  UNL     1      -4.127 -38.601  22.504  1.00  0.00     0.174 A
HETATM   28  N2  UNL     1      -4.854 -37.629  21.923  1.00  0.00    -0.170 N
HETATM   29  C1  UNL     1      -5.407 -37.784  20.689  1.00  0.00     0.692 A
ATOM     30  H2  UNL     1      -4.995 -36.751  22.422  1.00  0.00     0.186 HD
HETATM   31  N12 UNL     1      -5.234 -38.936  20.013  1.00  0.00    -0.023 N
HETATM   32  C10 UNL     1      -4.503 -39.923  20.589  1.00  0.00     0.692 A
ATOM     33  H12 UNL     1      -5.644 -39.064  19.087  1.00  0.00     0.203 HD
HETATM   34  N10 UNL     1      -3.969 -39.737  21.813  1.00  0.00    -0.170 N
ATOM     35  H10 UNL     1      -3.422 -40.490  22.228  1.00  0.00     0.186 HD
BRANCH  29  36
HETATM   36  N1  UNL     1      -6.091 -36.818  20.176  1.00  0.00    -0.234 N
ATOM     37  H12 UNL     1      -6.836 -36.369  20.710  1.00  0.00     0.174 HD
ATOM     38  H11 UNL     1      -5.885 -36.506  19.228  1.00  0.00     0.174 HD
ENDBRANCH  29  36
BRANCH  32  39
HETATM   39  N11 UNL     1      -4.304 -41.049  19.989  1.00  0.00    -0.234 N
ATOM     40 2H11 UNL     1      -4.818 -41.889  20.254  1.00  0.00     0.174 HD
ATOM     41 1H11 UNL     1      -3.617 -41.089  19.235  1.00  0.00     0.174 HD
ENDBRANCH  32  39
ENDBRANCH  26  27
ENDBRANCH  25  26
ENDBRANCH   1  25
TORSDOF 9
ENDMDL