MODEL 3
REMARK VINA RESULT: -7.000624469      1.748      2.467
REMARK  13 active torsions:
REMARK  status: ('A' for Active; 'I' for Inactive)
REMARK    1  A    between atoms: C2_2  and  N1_3
REMARK    2  A    between atoms: C2_2  and  N2_7
REMARK    3  A    between atoms: N2_7  and  S1_9
REMARK    4  A    between atoms: S1_9  and  N3_10
REMARK    5  A    between atoms: S1_9  and  C3_14
REMARK    6  A    between atoms: C6_22  and  C7_23
REMARK       I    between atoms: C7_23  and  N6_25
REMARK    7  A    between atoms: N6_25  and  C8_27
REMARK    8  A    between atoms: C8_27  and  C9_28
REMARK    9  A    between atoms: C8_27  and  C10_33
REMARK   10  A    between atoms: C9_28  and  O4_29
REMARK   11  A    between atoms: C9_28  and  O5_31
REMARK   12  A    between atoms: C10_33  and  O6_34
REMARK   13  A    between atoms: C10_33  and  O7_36
ROOT
HETATM    1  C3  UNL     1      -5.808 -41.102  19.897  1.00  0.00     0.205 A
HETATM    2  N4  UNL     1      -6.611 -40.048  20.115  1.00  0.00    -0.316 N
ATOM      3  H4  UNL     1      -7.628 -40.098  20.182  1.00  0.00     0.169 HD
HETATM    4  C4  UNL     1      -5.885 -38.908  20.232  1.00  0.00     0.155 A
HETATM    5  N5  UNL     1      -6.195 -37.619  20.449  1.00  0.00    -0.304 N
ATOM      6  H5  UNL     1      -7.176 -37.363  20.559  1.00  0.00     0.171 HD
HETATM    7  C5  UNL     1      -5.246 -36.638  20.527  1.00  0.00     0.279 A
HETATM    8  O2  UNL     1      -5.598 -35.451  20.731  1.00  0.00    -0.265 OA
HETATM    9  C6  UNL     1      -3.938 -37.013  20.374  1.00  0.00     0.171 A
HETATM   10  N7  UNL     1      -3.644 -38.338  20.154  1.00  0.00    -0.330 N
ATOM     11  H7  UNL     1      -2.665 -38.604  20.043  1.00  0.00     0.168 HD
HETATM   12  C11 UNL     1      -4.571 -39.291  20.078  1.00  0.00     0.153 A
HETATM   13  N8  UNL     1      -4.558 -40.625  19.878  1.00  0.00    -0.316 N
ATOM     14  H8  UNL     1      -3.719 -41.186  19.732  1.00  0.00     0.169 HD
ENDROOT
BRANCH   9  15
HETATM   15  C7  UNL     1      -2.846 -36.054  20.438  1.00  0.00     0.274 C
HETATM   16  O3  UNL     1      -2.385 -35.866  21.630  1.00  0.00    -0.266 OA
HETATM   17  N6  UNL     1      -2.254 -35.335  19.405  1.00  0.00    -0.341 N
ATOM     18  H6  UNL     1      -2.597 -35.460  18.453  1.00  0.00     0.163 HD
BRANCH  17  19
HETATM   19  C8  UNL     1      -1.144 -34.393  19.649  1.00  0.00     0.194 C
BRANCH  19  20
HETATM   20  C9  UNL     1      -1.633 -32.988  19.766  1.00  0.00     0.281 C
BRANCH  20  21
HETATM   21  O4  UNL     1      -1.849 -32.729  21.119  1.00  0.00    -0.369 OA
ATOM     22  H4  UNL     1      -2.652 -33.170  21.370  1.00  0.00     0.212 HD
ENDBRANCH  20  21
BRANCH  20  23
HETATM   23  O5  UNL     1      -2.886 -32.912  19.147  1.00  0.00    -0.369 OA
ATOM     24  H5  UNL     1      -2.774 -32.484  18.307  1.00  0.00     0.212 HD
ENDBRANCH  20  23
ENDBRANCH  19  20
BRANCH  19  25
HETATM   25  C10 UNL     1      -0.131 -34.614  18.577  1.00  0.00     0.281 C
BRANCH  25  26
HETATM   26  O6  UNL     1       0.910 -33.727  18.703  1.00  0.00    -0.369 OA
ATOM     27  H6  UNL     1       1.728 -34.132  18.442  1.00  0.00     0.212 HD
ENDBRANCH  25  26
BRANCH  25  28
HETATM   28  O7  UNL     1       0.334 -35.926  18.570  1.00  0.00    -0.369 OA
ATOM     29  H7  UNL     1       1.084 -36.036  19.142  1.00  0.00     0.212 HD
ENDBRANCH  25  28
ENDBRANCH  19  25
ENDBRANCH  17  19
ENDBRANCH   9  15
BRANCH   1  30
HETATM   30  S1  UNL     1      -6.305 -42.778  19.682  1.00  0.00     0.167 S
HETATM   31  O1  UNL     1      -5.999 -43.535  20.940  1.00  0.00    -0.221 OA
BRANCH  30  32
HETATM   32  N2  UNL     1      -5.467 -43.431  18.546  1.00  0.00    -0.301 N
ATOM     33  H2  UNL     1      -4.493 -43.705  18.677  1.00  0.00     0.173 HD
BRANCH  32  34
HETATM   34  C2  UNL     1      -6.164 -43.623  17.282  1.00  0.00     0.285 C
HETATM   35  C1  UNL     1      -6.048 -45.091  16.948  1.00  0.00     0.063 C
BRANCH  34  36
HETATM   36  N1  UNL     1      -5.583 -42.809  16.241  1.00  0.00    -0.058 N
ATOM     37  H13 UNL     1      -4.591 -43.013  16.114  1.00  0.00     0.276 HD
ATOM     38  H12 UNL     1      -5.917 -43.083  15.317  1.00  0.00     0.276 HD
ATOM     39  H11 UNL     1      -5.744 -41.817  16.420  1.00  0.00     0.276 HD
ENDBRANCH  34  36
ENDBRANCH  32  34
ENDBRANCH  30  32
BRANCH  30  40
HETATM   40  N3  UNL     1      -7.957 -42.867  19.233  1.00  0.00    -0.339 N
ATOM     41  H32 UNL     1      -8.602 -43.609  19.503  1.00  0.00     0.167 HD
ATOM     42  H31 UNL     1      -8.167 -42.053  18.656  1.00  0.00     0.167 HD
ENDBRANCH  30  40
ENDBRANCH   1  30
TORSDOF 13
ENDMDL