MODEL 3
REMARK VINA RESULT: -7.345671541      2.307      6.695
REMARK  10 active torsions:
REMARK  status: ('A' for Active; 'I' for Inactive)
REMARK    1  A    between atoms: N1_1  and  C1_4
REMARK    2  A    between atoms: C5_15  and  N5_16
REMARK    3  A    between atoms: N5_16  and  C6_17
REMARK    4  A    between atoms: C6_17  and  C7_18
REMARK    5  A    between atoms: C6_17  and  C14_36
REMARK    6  A    between atoms: C7_18  and  C8_19
REMARK    7  A    between atoms: C8_19  and  N6_20
REMARK    8  A    between atoms: C12_29  and  N9_30
REMARK    9  A    between atoms: C14_36  and  N11_37
REMARK   10  A    between atoms: C14_36  and  O3_41
ROOT
HETATM    1  C6  UNL     1      -3.287 -38.147  23.432  1.00  0.00     0.222 C
ENDROOT
BRANCH   1   2
HETATM    2  N5  UNL     1      -3.173 -36.917  22.958  1.00  0.00    -0.418 NA
BRANCH   2   3
HETATM    3  C5  UNL     1      -3.131 -35.872  22.394  1.00  0.00     0.204 A
HETATM    4  N4  UNL     1      -4.092 -34.905  22.646  1.00  0.00    -0.326 N
HETATM    5  C4  UNL     1      -4.009 -33.755  21.996  1.00  0.00     0.183 A
ATOM      6  H4  UNL     1      -4.843 -35.075  23.315  1.00  0.00     0.169 HD
HETATM    7  N3  UNL     1      -3.046 -33.466  21.105  1.00  0.00    -0.346 N
HETATM    8  C3  UNL     1      -2.098 -34.377  20.834  1.00  0.00     0.135 A
ATOM      9  H3  UNL     1      -3.035 -32.561  20.636  1.00  0.00     0.167 HD
HETATM   10  C2  UNL     1      -1.084 -34.130  19.924  1.00  0.00     0.288 A
HETATM   11  C15 UNL     1      -2.114 -35.584  21.462  1.00  0.00     0.139 A
HETATM   12  N2  UNL     1      -0.122 -35.021  19.634  1.00  0.00    -0.154 N
HETATM   13  O1  UNL     1      -1.099 -32.998  19.361  1.00  0.00    -0.265 OA
HETATM   14  C1  UNL     1      -0.163 -36.206  20.269  1.00  0.00     0.679 A
ATOM     15  H2  UNL     1       0.612 -34.807  18.958  1.00  0.00     0.187 HD
HETATM   16  N12 UNL     1      -1.146 -36.464  21.160  1.00  0.00    -0.185 N
ATOM     17  H12 UNL     1      -1.152 -37.371  21.627  1.00  0.00     0.184 HD
BRANCH  14  18
HETATM   18  N1  UNL     1       0.758 -37.067  19.995  1.00  0.00    -0.234 N
ATOM     19  H12 UNL     1       1.549 -36.841  19.393  1.00  0.00     0.174 HD
ATOM     20  H11 UNL     1       0.675 -37.998  20.403  1.00  0.00     0.174 HD
ENDBRANCH  14  18
ENDBRANCH   2   3
ENDBRANCH   1   2
BRANCH   1  21
HETATM   21  C7  UNL     1      -3.836 -39.197  22.426  1.00  0.00     0.064 C
BRANCH  21  22
HETATM   22  C8  UNL     1      -5.331 -39.164  22.487  1.00  0.00     0.134 C
BRANCH  22  23
HETATM   23  N6  UNL     1      -5.916 -38.039  21.838  1.00  0.00    -0.327 N
HETATM   24  C9  UNL     1      -5.855 -37.685  20.539  1.00  0.00     0.185 A
HETATM   25  N7  UNL     1      -6.551 -36.545  20.332  1.00  0.00    -0.345 N
HETATM   26  C10 UNL     1      -7.069 -36.148  21.495  1.00  0.00     0.147 A
ATOM     27  H7  UNL     1      -6.662 -36.069  19.436  1.00  0.00     0.167 HD
HETATM   28  C11 UNL     1      -7.859 -35.081  21.918  1.00  0.00     0.290 A
HETATM   29  C13 UNL     1      -6.676 -37.078  22.437  1.00  0.00     0.156 A
HETATM   30  O2  UNL     1      -8.211 -34.241  21.053  1.00  0.00    -0.265 OA
HETATM   31  N8  UNL     1      -8.207 -34.992  23.212  1.00  0.00    -0.154 N
HETATM   32  C12 UNL     1      -7.818 -35.903  24.122  1.00  0.00     0.680 A
ATOM     33  H8  UNL     1      -8.784 -34.208  23.515  1.00  0.00     0.187 HD
HETATM   34  N10 UNL     1      -7.061 -36.927  23.715  1.00  0.00    -0.174 N
ATOM     35  H10 UNL     1      -6.763 -37.620  24.402  1.00  0.00     0.186 HD
BRANCH  32  36
HETATM   36  N9  UNL     1      -8.182 -35.776  25.372  1.00  0.00    -0.234 N
ATOM     37  H92 UNL     1      -7.968 -34.933  25.905  1.00  0.00     0.174 HD
ATOM     38  H91 UNL     1      -8.691 -36.529  25.835  1.00  0.00     0.174 HD
ENDBRANCH  32  36
ENDBRANCH  22  23
ENDBRANCH  21  22
ENDBRANCH   1  21
BRANCH   1  39
HETATM   39  C14 UNL     1      -1.992 -38.780  23.977  1.00  0.00     0.352 C
BRANCH  39  40
HETATM   40  N11 UNL     1      -1.948 -40.188  23.661  1.00  0.00    -0.050 N
ATOM     41 3H11 UNL     1      -2.741 -40.473  23.087  1.00  0.00     0.277 HD
ATOM     42 2H11 UNL     1      -1.199 -40.406  23.003  1.00  0.00     0.277 HD
ATOM     43 1H11 UNL     1      -1.877 -40.742  24.513  1.00  0.00     0.277 HD
ENDBRANCH  39  40
BRANCH  39  44
HETATM   44  O3  UNL     1      -0.911 -38.163  23.372  1.00  0.00    -0.368 OA
ATOM     45  H3  UNL     1      -1.159 -37.915  22.489  1.00  0.00     0.212 HD
ENDBRANCH  39  44
ENDBRANCH   1  39
TORSDOF 10
ENDMDL