MODEL 4
REMARK VINA RESULT: -6.670366089      1.642      2.039
REMARK  9 active torsions:
REMARK  status: ('A' for Active; 'I' for Inactive)
REMARK    1  A    between atoms: N1_2  and  C2_5
REMARK    2  A    between atoms: C2_5  and  C3_6
REMARK    3  A    between atoms: C4_9  and  N3_10
REMARK    4  A    between atoms: N3_10  and  C5_12
REMARK    5  A    between atoms: C5_12  and  C6_13
REMARK    6  A    between atoms: C5_12  and  C13_37
REMARK       I    between atoms: C6_13  and  N4_15
REMARK    7  A    between atoms: N4_15  and  N5_17
REMARK       I    between atoms: N5_17  and  C7_19
REMARK       I    between atoms: C7_19  and  N6_21
REMARK    8  A    between atoms: C10_28  and  N9_29
REMARK    9  A    between atoms: C13_37  and  N11_39
ROOT
HETATM    1  C6  UNL     1      -6.934 -37.759  21.229  1.00  0.00     0.261 C
HETATM    2  O1  UNL     1      -7.008 -37.248  20.084  1.00  0.00    -0.269 OA
HETATM    3  N4  UNL     1      -6.084 -37.208  22.193  1.00  0.00    -0.264 N
ATOM      4  H4  UNL     1      -6.037 -37.640  23.116  1.00  0.00     0.190 HD
ENDROOT
BRANCH   1   5
HETATM    5  C5  UNL     1      -7.756 -38.971  21.591  1.00  0.00     0.208 C
BRANCH   5   6
HETATM    6  N3  UNL     1      -7.008 -40.159  21.285  1.00  0.00    -0.347 N
ATOM      7  H3  UNL     1      -6.619 -40.700  22.056  1.00  0.00     0.163 HD
BRANCH   6   8
HETATM    8  C4  UNL     1      -6.778 -40.627  19.926  1.00  0.00     0.175 A
HETATM    9  N2  UNL     1      -5.979 -40.358  18.985  1.00  0.00    -0.340 N
HETATM   10  C3  UNL     1      -6.502 -41.294  18.085  1.00  0.00     0.212 A
ATOM     11  H2  UNL     1      -5.214 -39.688  18.908  1.00  0.00     0.164 HD
HETATM   12  N12 UNL     1      -7.418 -41.599  19.133  1.00  0.00    -0.340 N
ATOM     13  H12 UNL     1      -8.200 -42.243  19.256  1.00  0.00     0.164 HD
BRANCH  10  14
HETATM   14  C2  UNL     1      -5.598 -42.438  17.669  1.00  0.00     0.278 C
BRANCH  14  15
HETATM   15  N1  UNL     1      -5.662 -42.657  16.244  1.00  0.00    -0.075 N
HETATM   16  C1  UNL     1      -6.926 -43.163  15.798  1.00  0.00     0.267 C
ATOM     17  H12 UNL     1      -4.902 -43.265  15.938  1.00  0.00     0.276 HD
ATOM     18  H11 UNL     1      -5.415 -41.807  15.737  1.00  0.00     0.276 HD
ENDBRANCH  14  15
ENDBRANCH  10  14
ENDBRANCH   6   8
ENDBRANCH   5   6
BRANCH   5  19
HETATM   19  C13 UNL     1      -9.072 -38.873  20.810  1.00  0.00     0.211 C
HETATM   20  C14 UNL     1     -10.031 -39.951  21.220  1.00  0.00     0.042 C
BRANCH  19  21
HETATM   21  N11 UNL     1      -9.642 -37.563  20.975  1.00  0.00    -0.073 N
ATOM     22 3H11 UNL     1      -9.775 -37.088  20.082  1.00  0.00     0.274 HD
ATOM     23 2H11 UNL     1     -10.619 -37.605  21.267  1.00  0.00     0.274 HD
ATOM     24 1H11 UNL     1      -9.073 -37.016  21.620  1.00  0.00     0.274 HD
ENDBRANCH  19  21
ENDBRANCH   5  19
ENDBRANCH   1   5
BRANCH   3  25
HETATM   25  N5  UNL     1      -5.290 -36.075  21.928  1.00  0.00    -0.248 N
HETATM   26  C7  UNL     1      -4.087 -36.169  21.136  1.00  0.00     0.347 C
HETATM   27  O2  UNL     1      -3.826 -37.333  20.712  1.00  0.00    -0.245 OA
HETATM   28  N6  UNL     1      -3.299 -35.023  20.882  1.00  0.00    -0.250 N
HETATM   29  C8  UNL     1      -3.623 -33.803  21.362  1.00  0.00     0.195 A
HETATM   30  C12 UNL     1      -2.164 -34.902  20.181  1.00  0.00     0.158 A
HETATM   31  N7  UNL     1      -2.692 -32.927  20.959  1.00  0.00    -0.336 N
HETATM   32  C9  UNL     1      -1.787 -33.563  20.238  1.00  0.00     0.155 A
ATOM     33  H7  UNL     1      -2.684 -31.930  21.175  1.00  0.00     0.168 HD
HETATM   34  N8  UNL     1      -0.656 -33.176  19.600  1.00  0.00    -0.174 N
HETATM   35  C10 UNL     1       0.105 -34.008  18.927  1.00  0.00     0.680 A
ATOM     36  H8  UNL     1      -0.384 -32.194  19.643  1.00  0.00     0.186 HD
HETATM   37  N10 UNL     1      -0.255 -35.292  18.872  1.00  0.00    -0.154 N
HETATM   38  C11 UNL     1      -1.376 -35.769  19.484  1.00  0.00     0.290 A
ATOM     39  H10 UNL     1       0.332 -35.943  18.350  1.00  0.00     0.187 HD
HETATM   40  O3  UNL     1      -1.665 -36.978  19.400  1.00  0.00    -0.265 OA
ATOM     41  H5  UNL     1      -5.571 -35.169  22.305  1.00  0.00     0.192 HD
BRANCH  35  42
HETATM   42  N9  UNL     1       1.184 -33.598  18.329  1.00  0.00    -0.234 N
ATOM     43  H92 UNL     1       1.703 -34.223  17.711  1.00  0.00     0.174 HD
ATOM     44  H91 UNL     1       1.533 -32.650  18.463  1.00  0.00     0.174 HD
ENDBRANCH  35  42
ENDBRANCH   3  25
TORSDOF 9
ENDMDL