MODEL 3
REMARK VINA RESULT: -7.319402589      1.897      5.398
REMARK  11 active torsions:
REMARK  status: ('A' for Active; 'I' for Inactive)
REMARK       I    between atoms: N1_2  and  C2_4
REMARK       I    between atoms: C2_4  and  N5_33
REMARK    1  A    between atoms: N2_5  and  C3_7
REMARK    2  A    between atoms: C5_9  and  O1_10
REMARK    3  A    between atoms: O1_10  and  C6_11
REMARK    4  A    between atoms: C8_14  and  C9_15
REMARK    5  A    between atoms: C8_14  and  C10_18
REMARK    6  A    between atoms: C9_15  and  O3_16
REMARK    7  A    between atoms: C11_24  and  O6_25
REMARK    8  A    between atoms: C11_24  and  C12_27
REMARK    9  A    between atoms: C12_27  and  O7_28
REMARK   10  A    between atoms: C12_27  and  C13_30
REMARK   11  A    between atoms: N5_33  and  N6_35
ROOT
HETATM    1  C3  UNL     1      -2.165 -34.870  22.284  1.00  0.00     0.200 C
HETATM    2  C4  UNL     1      -3.631 -34.773  21.748  1.00  0.00     0.019 C
HETATM    3  C5  UNL     1      -4.155 -33.632  21.553  1.00  0.00     0.154 C
HETATM    4  C8  UNL     1      -4.078 -36.180  21.620  1.00  0.00     0.264 C
HETATM    5  N3  UNL     1      -3.593 -36.673  22.927  1.00  0.00    -0.012 N
ATOM      6  H31 UNL     1      -3.452 -37.684  22.936  1.00  0.00     0.283 HD
ATOM      7  H32 UNL     1      -4.307 -36.625  23.653  1.00  0.00     0.283 HD
HETATM    8  C11 UNL     1      -2.410 -35.953  23.273  1.00  0.00     0.285 C
ENDROOT
BRANCH   1   9
HETATM    9  N2  UNL     1      -1.267 -34.918  21.269  1.00  0.00    -0.211 N
HETATM   10  C2  UNL     1      -0.061 -34.541  21.130  1.00  0.00     0.693 C
HETATM   11  N1  UNL     1       0.725 -33.926  22.138  1.00  0.00    -0.229 N
HETATM   12  N5  UNL     1       0.595 -34.722  19.835  1.00  0.00    -0.072 N
HETATM   13  C1  UNL     1       1.181 -32.574  21.918  1.00  0.00     0.165 C
ATOM     14  H1  UNL     1       0.961 -34.426  22.996  1.00  0.00     0.177 HD
ATOM     15  H5  UNL     1       1.390 -35.355  19.746  1.00  0.00     0.212 HD
ATOM     16  H2  UNL     1      -1.645 -35.353  20.428  1.00  0.00     0.178 HD
BRANCH  12  17
HETATM   17  N6  UNL     1       0.124 -34.022  18.724  1.00  0.00    -0.024 N
HETATM   18  O9  UNL     1       0.598 -34.202  17.581  1.00  0.00    -0.516 OA
HETATM   19  O10 UNL     1      -0.903 -33.151  18.874  1.00  0.00    -0.516 OA
ENDBRANCH  12  17
ENDBRANCH   1   9
BRANCH   8  20
HETATM   20  O6  UNL     1      -2.725 -35.307  24.533  1.00  0.00    -0.361 OA
ATOM     21  H6  UNL     1      -2.153 -35.690  25.188  1.00  0.00     0.212 HD
ENDBRANCH   8  20
BRANCH   8  22
HETATM   22  C12 UNL     1      -1.247 -36.857  23.618  1.00  0.00     0.272 C
BRANCH  22  23
HETATM   23  O7  UNL     1      -0.364 -36.075  24.385  1.00  0.00    -0.382 OA
ATOM     24  H7  UNL     1      -0.545 -35.172  24.152  1.00  0.00     0.210 HD
ENDBRANCH  22  23
BRANCH  22  25
HETATM   25  C13 UNL     1      -1.829 -37.925  24.474  1.00  0.00     0.264 C
HETATM   26  N4  UNL     1      -2.019 -39.224  23.933  1.00  0.00    -0.060 NA
HETATM   27  O8  UNL     1      -2.154 -37.713  25.673  1.00  0.00    -0.274 OA
ENDBRANCH  22  25
ENDBRANCH   8  22
BRANCH   3  28
HETATM   28  O1  UNL     1      -5.454 -33.324  21.091  1.00  0.00    -0.291 OA
BRANCH  28  29
HETATM   29  C6  UNL     1      -6.444 -33.062  22.062  1.00  0.00     0.259 C
HETATM   30  C7  UNL     1      -7.363 -34.058  22.527  1.00  0.00     0.126 C
HETATM   31  O2  UNL     1      -6.501 -31.850  22.520  1.00  0.00    -0.265 OA
ENDBRANCH  28  29
ENDBRANCH   3  28
BRANCH   4  32
HETATM   32  C9  UNL     1      -5.522 -36.293  21.365  1.00  0.00     0.220 C
BRANCH  32  33
HETATM   33  O3  UNL     1      -5.868 -36.270  19.997  1.00  0.00    -0.397 OA
ATOM     34  H3  UNL     1      -6.785 -36.450  19.826  1.00  0.00     0.209 HD
ENDBRANCH  32  33
ENDBRANCH   4  32
BRANCH   4  35
HETATM   35  C10 UNL     1      -3.364 -37.020  20.632  1.00  0.00     0.218 C
HETATM   36  O4  UNL     1      -2.680 -36.771  19.709  1.00  0.00    -0.646 OA
HETATM   37  O5  UNL     1      -3.503 -38.460  20.876  1.00  0.00    -0.646 OA
ENDBRANCH   4  35
TORSDOF 11
ENDMDL