MODEL 1
REMARK VINA RESULT: -6.919448866      0.000      0.000
REMARK  11 active torsions:
REMARK  status: ('A' for Active; 'I' for Inactive)
REMARK    1  A    between atoms: N1_4  and  C4_5
REMARK    2  A    between atoms: C4_5  and  C5_6
REMARK    3  A    between atoms: C5_6  and  N2_7
REMARK    4  A    between atoms: C5_6  and  C6_11
REMARK       I    between atoms: C6_11  and  N3_13
REMARK    5  A    between atoms: N3_13  and  C7_15
REMARK    6  A    between atoms: N4_18  and  C9_19
REMARK    7  A    between atoms: C10_22  and  N6_23
REMARK    8  A    between atoms: C11_28  and  N8_29
REMARK    9  A    between atoms: C13_35  and  O3_36
REMARK   10  A    between atoms: C13_35  and  C14_38
REMARK   11  A    between atoms: C14_38  and  O4_39
ROOT
HETATM    1  C7  UNL     1      -6.332 -35.830  23.142  1.00  0.00     0.216 C
HETATM    2  C8  UNL     1      -7.431 -36.366  23.952  1.00  0.00     0.264 C
HETATM    3  O2  UNL     1      -7.415 -37.193  24.927  1.00  0.00    -0.270 OA
HETATM    4  N4  UNL     1      -8.648 -35.775  23.452  1.00  0.00    -0.145 N
HETATM    5  C12 UNL     1      -8.485 -35.654  22.009  1.00  0.00     0.193 C
HETATM    6  C13 UNL     1      -7.004 -35.674  21.778  1.00  0.00     0.125 C
ENDROOT
BRANCH   1   7
HETATM    7  N3  UNL     1      -5.145 -36.611  23.047  1.00  0.00    -0.343 N
HETATM    8  C6  UNL     1      -3.904 -35.901  22.979  1.00  0.00     0.250 C
HETATM    9  O1  UNL     1      -3.863 -34.623  23.010  1.00  0.00    -0.271 OA
ATOM     10  H3  UNL     1      -5.178 -37.630  23.028  1.00  0.00     0.163 HD
BRANCH   8  11
HETATM   11  C5  UNL     1      -2.614 -36.600  22.863  1.00  0.00     0.294 C
BRANCH  11  12
HETATM   12  C4  UNL     1      -2.379 -37.229  21.531  1.00  0.00     0.192 C
BRANCH  12  13
HETATM   13  N1  UNL     1      -2.052 -36.219  20.547  1.00  0.00    -0.285 N
HETATM   14  C3  UNL     1      -0.840 -36.064  19.932  1.00  0.00     0.137 A
HETATM   15  C2  UNL     1      -0.930 -35.002  19.059  1.00  0.00     0.040 A
HETATM   16  C1  UNL     1       0.181 -34.503  18.183  1.00  0.00     0.071 C
HETATM   17  N11 UNL     1      -2.182 -34.541  19.162  1.00  0.00    -0.289 N
HETATM   18  N10 UNL     1      -2.826 -35.276  20.049  1.00  0.00    -0.241 N
ATOM     19  H11 UNL     1      -2.572 -33.754  18.644  1.00  0.00     0.188 HD
ATOM     20  H10 UNL     1      -3.800 -35.133  20.314  1.00  0.00     0.208 HD
ENDBRANCH  12  13
ENDBRANCH  11  12
BRANCH  11  21
HETATM   21  N2  UNL     1      -1.548 -35.728  23.290  1.00  0.00    -0.065 N
ATOM     22  H23 UNL     1      -0.647 -36.199  23.215  1.00  0.00     0.275 HD
ATOM     23  H22 UNL     1      -1.405 -34.976  22.615  1.00  0.00     0.275 HD
ATOM     24  H21 UNL     1      -1.678 -35.348  24.228  1.00  0.00     0.275 HD
ENDBRANCH  11  21
ENDBRANCH   8  11
ENDBRANCH   1   7
BRANCH   6  25
HETATM   25  O3  UNL     1      -6.500 -34.512  21.205  1.00  0.00    -0.383 OA
ATOM     26  H3  UNL     1      -6.607 -33.816  21.842  1.00  0.00     0.210 HD
ENDBRANCH   6  25
BRANCH   6  27
HETATM   27  C14 UNL     1      -6.572 -36.814  20.884  1.00  0.00     0.206 C
BRANCH  27  28
HETATM   28  O4  UNL     1      -5.536 -36.438  20.035  1.00  0.00    -0.398 OA
ATOM     29  H4  UNL     1      -5.369 -37.097  19.372  1.00  0.00     0.209 HD
ENDBRANCH  27  28
ENDBRANCH   6  27
BRANCH   4  30
HETATM   30  C9  UNL     1      -9.793 -35.377  24.180  1.00  0.00     0.716 A
HETATM   31  N5  UNL     1      -9.588 -34.767  25.382  1.00  0.00    -0.021 N
HETATM   32  C10 UNL     1     -10.593 -34.338  26.167  1.00  0.00     0.705 A
ATOM     33  H5  UNL     1      -8.629 -34.629  25.700  1.00  0.00     0.203 HD
HETATM   34  N7  UNL     1     -11.873 -34.514  25.756  1.00  0.00    -0.022 N
HETATM   35  C11 UNL     1     -12.097 -35.117  24.566  1.00  0.00     0.705 A
ATOM     36  H7  UNL     1     -12.652 -34.198  26.333  1.00  0.00     0.203 HD
HETATM   37  N9  UNL     1     -11.052 -35.531  23.813  1.00  0.00    -0.021 N
ATOM     38  H9  UNL     1     -11.246 -35.984  22.919  1.00  0.00     0.203 HD
BRANCH  32  39
HETATM   39  N6  UNL     1     -10.388 -33.765  27.305  1.00  0.00    -0.234 N
ATOM     40  H62 UNL     1     -10.664 -34.260  28.152  1.00  0.00     0.174 HD
ATOM     41  H61 UNL     1      -9.961 -32.842  27.386  1.00  0.00     0.174 HD
ENDBRANCH  32  39
BRANCH  35  42
HETATM   42  N8  UNL     1     -13.330 -35.287  24.170  1.00  0.00    -0.234 N
ATOM     43  H82 UNL     1     -13.728 -34.728  23.415  1.00  0.00     0.174 HD
ATOM     44  H81 UNL     1     -13.900 -35.997  24.631  1.00  0.00     0.174 HD
ENDBRANCH  35  42
ENDBRANCH   4  30
TORSDOF 11
ENDMDL