MODEL 2
REMARK VINA RESULT: -8.249038899      1.096      1.577
REMARK  11 active torsions:
REMARK  status: ('A' for Active; 'I' for Inactive)
REMARK    1  A    between atoms: N1_1  and  C1_4
REMARK    2  A    between atoms: C4_10  and  C5_11
REMARK    3  A    between atoms: C5_11  and  N3_12
REMARK    4  A    between atoms: N6_20  and  C7_21
REMARK    5  A    between atoms: C7_21  and  C8_22
REMARK       I    between atoms: C8_22  and  N7_24
REMARK    6  A    between atoms: N7_24  and  C9_26
REMARK    7  A    between atoms: C9_26  and  C10_27
REMARK    8  A    between atoms: C10_27  and  C11_28
REMARK    9  A    between atoms: C11_28  and  O3_29
REMARK   10  A    between atoms: C12_34  and  O4_35
REMARK   11  A    between atoms: C13_37  and  O5_38
ROOT
HETATM    1  C1  UNL     1     -11.360 -36.720  24.297  1.00  0.00     0.680 A
HETATM    2  N2  UNL     1     -11.457 -37.858  23.589  1.00  0.00    -0.155 N
ATOM      3  H2  UNL     1     -12.226 -38.496  23.791  1.00  0.00     0.187 HD
HETATM    4  C2  UNL     1     -10.581 -38.189  22.627  1.00  0.00     0.274 A
HETATM    5  O1  UNL     1     -10.729 -39.256  22.014  1.00  0.00    -0.267 OA
HETATM    6  C3  UNL     1      -9.534 -37.366  22.323  1.00  0.00     0.087 A
HETATM    7  C4  UNL     1      -8.609 -37.684  21.331  1.00  0.00     0.018 A
HETATM    8  C6  UNL     1      -7.596 -36.761  21.123  1.00  0.00     0.100 A
HETATM    9  N4  UNL     1      -6.565 -36.766  20.259  1.00  0.00    -0.280 N
ATOM     10  H4  UNL     1      -6.363 -37.502  19.582  1.00  0.00     0.184 HD
HETATM   11  N5  UNL     1      -5.846 -35.647  20.433  1.00  0.00    -0.018 NA
HETATM   12  N6  UNL     1      -6.379 -34.909  21.389  1.00  0.00    -0.249 N
HETATM   13  C14 UNL     1      -7.475 -35.587  21.834  1.00  0.00     0.151 A
HETATM   14  N9  UNL     1      -8.396 -35.344  22.773  1.00  0.00    -0.324 N
ATOM     15  H9  UNL     1      -8.320 -34.480  23.310  1.00  0.00     0.169 HD
HETATM   16  C15 UNL     1      -9.416 -36.174  23.050  1.00  0.00     0.139 A
HETATM   17  N10 UNL     1     -10.326 -35.900  24.000  1.00  0.00    -0.176 N
ATOM     18  H10 UNL     1     -10.233 -35.030  24.524  1.00  0.00     0.186 HD
ENDROOT
BRANCH  12  19
HETATM   19  C7  UNL     1      -5.917 -33.631  21.888  1.00  0.00     0.251 C
BRANCH  19  20
HETATM   20  C8  UNL     1      -4.391 -33.582  21.831  1.00  0.00     0.240 C
HETATM   21  O2  UNL     1      -3.823 -32.544  22.229  1.00  0.00    -0.271 OA
HETATM   22  N7  UNL     1      -3.672 -34.683  21.345  1.00  0.00    -0.337 N
ATOM     23  H7  UNL     1      -4.235 -35.489  21.074  1.00  0.00     0.168 HD
BRANCH  22  24
HETATM   24  C9  UNL     1      -2.305 -34.828  21.182  1.00  0.00     0.107 C
BRANCH  24  25
HETATM   25  C10 UNL     1      -1.698 -35.933  20.394  1.00  0.00     0.210 C
HETATM   26  N8  UNL     1      -1.755 -35.533  18.948  1.00  0.00    -0.028 N
HETATM   27  C12 UNL     1      -0.472 -34.909  19.140  1.00  0.00     0.352 C
ATOM     28  H82 UNL     1      -1.901 -36.225  18.213  1.00  0.00     0.281 HD
ATOM     29  H81 UNL     1      -2.547 -35.008  18.576  1.00  0.00     0.281 HD
HETATM   30  C13 UNL     1      -0.196 -35.840  20.280  1.00  0.00     0.218 C
BRANCH  25  31
HETATM   31  C11 UNL     1      -2.261 -37.289  20.572  1.00  0.00     0.211 C
BRANCH  31  32
HETATM   32  O3  UNL     1      -3.534 -37.367  19.944  1.00  0.00    -0.398 OA
ATOM     33  H3  UNL     1      -4.107 -37.930  20.451  1.00  0.00     0.209 HD
ENDBRANCH  31  32
ENDBRANCH  25  31
BRANCH  27  34
HETATM   34  O4  UNL     1       0.383 -35.073  18.038  1.00  0.00    -0.368 OA
ATOM     35  H4  UNL     1       0.851 -35.901  18.054  1.00  0.00     0.212 HD
ENDBRANCH  27  34
BRANCH  30  36
HETATM   36  O5  UNL     1       0.415 -37.010  19.893  1.00  0.00    -0.388 OA
ATOM     37  H5  UNL     1       1.278 -37.141  20.266  1.00  0.00     0.210 HD
ENDBRANCH  30  36
ENDBRANCH  24  25
ENDBRANCH  22  24
ENDBRANCH  19  20
ENDBRANCH  12  19
BRANCH   7  38
HETATM   38  C5  UNL     1      -8.723 -38.940  20.554  1.00  0.00     0.271 C
BRANCH  38  39
HETATM   39  N3  UNL     1      -7.804 -39.895  21.207  1.00  0.00    -0.075 N
ATOM     40  H33 UNL     1      -8.186 -40.318  22.053  1.00  0.00     0.274 HD
ATOM     41  H32 UNL     1      -7.675 -40.762  20.686  1.00  0.00     0.274 HD
ATOM     42  H31 UNL     1      -6.939 -39.378  21.363  1.00  0.00     0.274 HD
ENDBRANCH  38  39
ENDBRANCH   7  38
BRANCH   1  43
HETATM   43  N1  UNL     1     -12.224 -36.416  25.229  1.00  0.00    -0.234 N
ATOM     44  H12 UNL     1     -12.357 -37.014  26.044  1.00  0.00     0.174 HD
ATOM     45  H11 UNL     1     -12.795 -35.573  25.176  1.00  0.00     0.174 HD
ENDBRANCH   1  43
TORSDOF 11
ENDMDL