MODEL 4
REMARK VINA RESULT: -7.266319080      1.918      2.705
REMARK  11 active torsions:
REMARK  status: ('A' for Active; 'I' for Inactive)
REMARK       I    between atoms: C2_2  and  N1_4
REMARK    1  A    between atoms: N1_4  and  C3_6
REMARK    2  A    between atoms: C3_6  and  C4_7
REMARK    3  A    between atoms: C4_7  and  N2_8
REMARK    4  A    between atoms: C4_7  and  C14_39
REMARK    5  A    between atoms: N2_8  and  C5_10
REMARK    6  A    between atoms: C5_10  and  C6_11
REMARK    7  A    between atoms: C7_15  and  N4_16
REMARK    8  A    between atoms: C9_22  and  N7_23
REMARK    9  A    between atoms: C10_28  and  N9_29
REMARK   10  A    between atoms: C13_36  and  O2_37
REMARK       I    between atoms: C14_39  and  N11_41
REMARK   11  A    between atoms: N11_41  and  N12_43
ROOT
HETATM    1  C6  UNL     1      -4.062 -33.671  22.260  1.00  0.00     0.254 C
HETATM    2  N3  UNL     1      -3.836 -35.106  22.003  1.00  0.00    -0.041 N
ATOM      3  H31 UNL     1      -3.046 -35.505  22.510  1.00  0.00     0.280 HD
ATOM      4  H32 UNL     1      -3.483 -35.316  21.070  1.00  0.00     0.280 HD
HETATM    5  C7  UNL     1      -5.129 -35.723  22.315  1.00  0.00     0.313 C
HETATM    6  C12 UNL     1      -6.164 -34.623  22.229  1.00  0.00     0.090 C
HETATM    7  C13 UNL     1      -5.377 -33.528  21.533  1.00  0.00     0.157 C
ENDROOT
BRANCH   5   8
HETATM    8  N4  UNL     1      -5.494 -36.754  21.366  1.00  0.00    -0.228 N
HETATM    9  N5  UNL     1      -6.260 -36.720  20.292  1.00  0.00    -0.236 N
HETATM   10  N6  UNL     1      -6.344 -37.870  19.693  1.00  0.00    -0.279 N
ATOM     11  H5  UNL     1      -6.737 -35.880  19.966  1.00  0.00     0.208 HD
HETATM   12  C8  UNL     1      -5.599 -38.725  20.394  1.00  0.00     0.140 A
ATOM     13  H6  UNL     1      -6.877 -38.079  18.848  1.00  0.00     0.189 HD
HETATM   14  C9  UNL     1      -5.308 -40.074  20.244  1.00  0.00     0.147 A
HETATM   15  C11 UNL     1      -5.060 -38.043  21.447  1.00  0.00     0.173 A
HETATM   16  N8  UNL     1      -4.500 -40.694  21.132  1.00  0.00    -0.175 N
HETATM   17  C10 UNL     1      -3.974 -40.017  22.164  1.00  0.00     0.679 A
ATOM     18  H8  UNL     1      -4.289 -41.685  21.017  1.00  0.00     0.186 HD
HETATM   19  N10 UNL     1      -4.264 -38.704  22.300  1.00  0.00    -0.173 N
ATOM     20  H10 UNL     1      -3.860 -38.194  23.085  1.00  0.00     0.186 HD
BRANCH  14  21
HETATM   21  N7  UNL     1      -5.826 -40.690  19.251  1.00  0.00    -0.383 N
ATOM     22  H72 UNL     1      -5.781 -41.704  19.159  1.00  0.00     0.157 HD
ATOM     23  H71 UNL     1      -6.295 -40.132  18.538  1.00  0.00     0.157 HD
ENDBRANCH  14  21
BRANCH  17  24
HETATM   24  N9  UNL     1      -3.208 -40.631  22.994  1.00  0.00    -0.234 N
ATOM     25  H92 UNL     1      -3.569 -41.336  23.638  1.00  0.00     0.174 HD
ATOM     26  H91 UNL     1      -2.213 -40.409  23.013  1.00  0.00     0.174 HD
ENDBRANCH  17  24
ENDBRANCH   5   8
BRANCH   1  27
HETATM   27  C5  UNL     1      -2.946 -32.844  21.689  1.00  0.00     0.092 C
BRANCH  27  28
HETATM   28  N2  UNL     1      -2.744 -33.052  20.339  1.00  0.00    -0.386 N
ATOM     29  H2  UNL     1      -3.557 -32.957  19.731  1.00  0.00     0.159 HD
BRANCH  28  30
HETATM   30  C4  UNL     1      -1.540 -33.377  19.730  1.00  0.00     0.193 C
BRANCH  30  31
HETATM   31  C3  UNL     1      -0.286 -33.386  20.547  1.00  0.00     0.157 C
BRANCH  31  32
HETATM   32  N1  UNL     1       0.389 -34.609  20.741  1.00  0.00    -0.359 N
HETATM   33  C2  UNL     1       0.425 -35.166  22.045  1.00  0.00     0.213 C
HETATM   34  C1  UNL     1       1.119 -36.447  22.312  1.00  0.00     0.117 C
HETATM   35  O1  UNL     1      -0.128 -34.586  23.003  1.00  0.00    -0.274 OA
ATOM     36  H1  UNL     1       0.841 -35.084  19.960  1.00  0.00     0.162 HD
ENDBRANCH  31  32
ENDBRANCH  30  31
BRANCH  30  37
HETATM   37  C14 UNL     1      -1.627 -34.779  19.152  1.00  0.00     0.260 C
HETATM   38  O3  UNL     1      -0.809 -35.052  18.243  1.00  0.00    -0.269 OA
HETATM   39  N11 UNL     1      -2.547 -35.739  19.579  1.00  0.00    -0.275 N
ATOM     40  H11 UNL     1      -3.210 -35.512  20.321  1.00  0.00     0.189 HD
BRANCH  39  41
HETATM   41  N12 UNL     1      -2.566 -37.004  18.999  1.00  0.00    -0.343 N
ATOM     42 2H12 UNL     1      -1.687 -37.509  18.891  1.00  0.00     0.176 HD
ATOM     43 1H12 UNL     1      -3.446 -37.415  18.687  1.00  0.00     0.176 HD
ENDBRANCH  39  41
ENDBRANCH  30  37
ENDBRANCH  28  30
ENDBRANCH  27  28
ENDBRANCH   1  27
BRANCH   7  44
HETATM   44  O2  UNL     1      -5.947 -32.290  21.629  1.00  0.00    -0.393 OA
ATOM     45  H2  UNL     1      -6.802 -32.217  21.221  1.00  0.00     0.210 HD
ENDBRANCH   7  44
TORSDOF 11
ENDMDL