MODEL 3
REMARK VINA RESULT: -6.927069692      2.007      2.733
REMARK  10 active torsions:
REMARK  status: ('A' for Active; 'I' for Inactive)
REMARK    1  A    between atoms: O1_2  and  C2_3
REMARK    2  A    between atoms: C2_3  and  C3_4
REMARK    3  A    between atoms: C2_3  and  C12_30
REMARK       I    between atoms: C3_4  and  N1_6
REMARK    4  A    between atoms: N1_6  and  C4_8
REMARK    5  A    between atoms: C4_8  and  C6_10
REMARK    6  A    between atoms: C8_14  and  N3_15
REMARK    7  A    between atoms: C11_26  and  N7_27
REMARK    8  A    between atoms: C12_30  and  O3_31
REMARK    9  A    between atoms: C12_30  and  C13_33
REMARK   10  A    between atoms: C14_37  and  N9_38
ROOT
HETATM    1  C3  UNL     1      -5.127 -40.453  21.728  1.00  0.00     0.249 C
HETATM    2  O2  UNL     1      -6.106 -39.731  22.093  1.00  0.00    -0.271 OA
HETATM    3  N1  UNL     1      -3.793 -40.025  21.928  1.00  0.00    -0.349 N
ATOM      4  H1  UNL     1      -3.017 -40.617  21.630  1.00  0.00     0.163 HD
ENDROOT
BRANCH   3   5
HETATM    5  C4  UNL     1      -3.529 -38.751  22.552  1.00  0.00     0.134 C
HETATM    6  C5  UNL     1      -2.418 -38.875  23.591  1.00  0.00     0.039 C
BRANCH   5   7
HETATM    7  C6  UNL     1      -3.123 -37.699  21.597  1.00  0.00     0.076 A
HETATM    8  N2  UNL     1      -1.826 -37.530  21.287  1.00  0.00    -0.349 N
HETATM    9  C7  UNL     1      -1.414 -36.585  20.426  1.00  0.00     0.121 A
ATOM     10  H2  UNL     1      -1.131 -38.138  21.720  1.00  0.00     0.166 HD
HETATM   11  C8  UNL     1      -0.098 -36.403  20.104  1.00  0.00     0.130 A
HETATM   12  C10 UNL     1      -2.364 -35.771  19.849  1.00  0.00     0.138 A
HETATM   13  N4  UNL     1       0.271 -35.450  19.242  1.00  0.00    -0.337 N
HETATM   14  C9  UNL     1      -0.666 -34.660  18.684  1.00  0.00     0.183 A
ATOM     15  H4  UNL     1       1.255 -35.322  19.008  1.00  0.00     0.168 HD
HETATM   16  N5  UNL     1      -1.969 -34.831  18.996  1.00  0.00    -0.337 N
ATOM     17  H5  UNL     1      -2.668 -34.225  18.566  1.00  0.00     0.168 HD
HETATM   18  N6  UNL     1      -3.670 -35.904  20.130  1.00  0.00    -0.325 N
HETATM   19  C11 UNL     1      -4.039 -36.860  20.994  1.00  0.00     0.125 A
ATOM     20  H6  UNL     1      -4.363 -35.294  19.697  1.00  0.00     0.169 HD
BRANCH  11  21
HETATM   21  N3  UNL     1       0.831 -37.152  20.627  1.00  0.00    -0.383 N
ATOM     22  H32 UNL     1       0.627 -37.629  21.506  1.00  0.00     0.157 HD
ATOM     23  H31 UNL     1       1.738 -37.259  20.173  1.00  0.00     0.157 HD
ENDBRANCH  11  21
BRANCH  19  24
HETATM   24  N7  UNL     1      -5.281 -37.023  21.291  1.00  0.00    -0.384 N
ATOM     25  H72 UNL     1      -5.558 -37.718  21.984  1.00  0.00     0.157 HD
ATOM     26  H71 UNL     1      -5.962 -36.437  20.808  1.00  0.00     0.157 HD
ENDBRANCH  19  24
ENDBRANCH   5   7
ENDBRANCH   3   5
BRANCH   1  27
HETATM   27  C2  UNL     1      -5.443 -41.775  21.080  1.00  0.00     0.243 C
BRANCH  27  28
HETATM   28  O1  UNL     1      -4.505 -42.681  21.515  1.00  0.00    -0.379 OA
HETATM   29  C1  UNL     1      -4.940 -43.386  22.621  1.00  0.00     0.202 C
ENDBRANCH  27  28
BRANCH  27  30
HETATM   30  C12 UNL     1      -5.414 -41.579  19.600  1.00  0.00     0.196 C
BRANCH  30  31
HETATM   31  O3  UNL     1      -5.168 -40.244  19.289  1.00  0.00    -0.390 OA
ATOM     32  H3  UNL     1      -5.676 -39.979  18.532  1.00  0.00     0.210 HD
ENDBRANCH  30  31
BRANCH  30  33
HETATM   33  C13 UNL     1      -6.687 -42.068  18.948  1.00  0.00     0.312 C
HETATM   34  N8  UNL     1      -7.180 -43.242  19.641  1.00  0.00    -0.013 N
HETATM   35  C14 UNL     1      -7.778 -44.121  18.689  1.00  0.00     0.486 C
ATOM     36  H82 UNL     1      -6.455 -43.701  20.193  1.00  0.00     0.282 HD
ATOM     37  H81 UNL     1      -7.812 -43.007  20.405  1.00  0.00     0.282 HD
HETATM   38  N10 UNL     1      -7.432 -43.599  17.365  1.00  0.00    -0.309 N
HETATM   39  C15 UNL     1      -6.443 -42.600  17.581  1.00  0.00     0.254 C
ATOM     40  H10 UNL     1      -7.821 -43.892  16.469  1.00  0.00     0.166 HD
HETATM   41  O4  UNL     1      -5.574 -42.295  16.728  1.00  0.00    -0.271 OA
BRANCH  35  42
HETATM   42  N9  UNL     1      -9.220 -44.188  18.841  1.00  0.00    -0.033 N
ATOM     43  H93 UNL     1      -9.623 -44.898  18.230  1.00  0.00     0.278 HD
ATOM     44  H92 UNL     1      -9.479 -44.585  19.744  1.00  0.00     0.278 HD
ATOM     45  H91 UNL     1      -9.663 -43.280  18.696  1.00  0.00     0.278 HD
ENDBRANCH  35  42
ENDBRANCH  30  33
ENDBRANCH  27  30
ENDBRANCH   1  27
TORSDOF 10
ENDMDL