MODEL 2
REMARK VINA RESULT: -7.173442887      2.170      3.511
REMARK  4 active torsions:
REMARK  status: ('A' for Active; 'I' for Inactive)
REMARK    1  A    between atoms: N2_5  and  C4_6
REMARK    2  A    between atoms: N4_16  and  C10_17
REMARK    3  A    between atoms: C10_17  and  C11_18
REMARK    4  A    between atoms: C12_21  and  N6_22
ROOT
HETATM    1  N1  UNL     1      11.821 -42.476  29.541  1.00  0.00    -0.191 NA
HETATM    2  C1  UNL     1      11.196 -43.369  29.959  1.00  0.00     0.104 C
HETATM    3  C2  UNL     1      10.425 -44.471  30.462  1.00  0.00     0.104 A
HETATM    4  C3  UNL     1       9.040 -44.513  30.382  1.00  0.00     0.128 A
HETATM    5  N2  UNL     1       8.341 -45.559  30.863  1.00  0.00    -0.273 N
HETATM    6  C9  UNL     1       8.965 -46.590  31.432  1.00  0.00     0.335 A
HETATM    7  O2  UNL     1       8.328 -47.577  31.887  1.00  0.00    -0.246 OA
HETATM    8  N4  UNL     1      10.306 -46.611  31.540  1.00  0.00    -0.278 N
HETATM    9  C12 UNL     1      11.021 -45.571  31.064  1.00  0.00     0.128 A
ENDROOT
BRANCH   9  10
HETATM   10  N6  UNL     1      12.325 -45.583  31.166  1.00  0.00    -0.384 N
ATOM     11  H62 UNL     1      12.786 -44.939  31.809  1.00  0.00     0.157 HD
ATOM     12  H61 UNL     1      12.843 -46.247  30.591  1.00  0.00     0.157 HD
ENDBRANCH   9  10
BRANCH   5  13
HETATM   13  C4  UNL     1       6.926 -45.550  30.754  1.00  0.00     0.050 A
HETATM   14  C5  UNL     1       6.379 -46.043  29.594  1.00  0.00     0.047 A
HETATM   15  C6  UNL     1       5.018 -46.036  29.485  1.00  0.00     0.093 A
HETATM   16  N3  UNL     1       4.262 -45.559  30.492  1.00  0.00    -0.334 N
HETATM   17  C7  UNL     1       4.784 -45.077  31.628  1.00  0.00     0.247 A
ATOM     18  H3  UNL     1       3.247 -45.565  30.386  1.00  0.00     0.168 HD
HETATM   19  O1  UNL     1       4.038 -44.641  32.543  1.00  0.00    -0.268 OA
HETATM   20  C8  UNL     1       6.152 -45.067  31.774  1.00  0.00     0.104 A
ENDBRANCH   5  13
BRANCH   8  21
HETATM   21  C10 UNL     1      10.994 -47.732  32.160  1.00  0.00     0.202 C
BRANCH  21  22
HETATM   22  C11 UNL     1      11.387 -47.373  33.561  1.00  0.00     0.109 C
HETATM   23  N5  UNL     1      12.703 -46.937  33.818  1.00  0.00    -0.093 NA
HETATM   24  S1  UNL     1      10.291 -47.495  34.762  1.00  0.00    -0.067 SA
ENDBRANCH  21  22
ENDBRANCH   8  21
TORSDOF 4
ENDMDL