MODEL 4
REMARK VINA RESULT: -6.622663233      1.900      4.097
REMARK  5 active torsions:
REMARK  status: ('A' for Active; 'I' for Inactive)
REMARK    1  A    between atoms: C2_2  and  C3_3
REMARK    2  A    between atoms: C3_3  and  N1_4
REMARK    3  A    between atoms: N1_4  and  C4_6
REMARK    4  A    between atoms: C8_19  and  S1_20
REMARK    5  A    between atoms: S1_20  and  N7_21
ROOT
HETATM    1  C4  UNL     1      10.053 -44.820  30.602  1.00  0.00     0.146 A
HETATM    2  N2  UNL     1      11.107 -45.513  31.063  1.00  0.00    -0.171 N
ATOM      3  H2  UNL     1      12.043 -45.131  30.925  1.00  0.00     0.186 HD
HETATM    4  C5  UNL     1      10.977 -46.705  31.709  1.00  0.00     0.722 A
HETATM    5  N3  UNL     1      11.837 -47.568  32.249  1.00  0.00    -0.114 N
ATOM      6  H3  UNL     1      12.852 -47.474  32.273  1.00  0.00     0.207 HD
HETATM    7  N4  UNL     1      11.136 -48.563  32.744  1.00  0.00    -0.213 N
ATOM      8  H4  UNL     1      11.517 -49.378  33.223  1.00  0.00     0.210 HD
HETATM    9  N5  UNL     1       9.873 -48.335  32.523  1.00  0.00    -0.206 N
ATOM     10  H5  UNL     1       9.104 -48.945  32.801  1.00  0.00     0.211 HD
HETATM   11  N6  UNL     1       9.746 -47.202  31.890  1.00  0.00    -0.067 N
HETATM   12  C6  UNL     1       8.649 -46.529  31.437  1.00  0.00     0.109 A
HETATM   13  C7  UNL     1       7.314 -46.835  31.506  1.00  0.00     0.078 A
HETATM   14  C8  UNL     1       6.620 -45.815  30.892  1.00  0.00     0.151 A
HETATM   15  N8  UNL     1       7.540 -44.931  30.474  1.00  0.00    -0.341 N
ATOM     16  H8  UNL     1       7.320 -44.065  29.980  1.00  0.00     0.167 HD
HETATM   17  C9  UNL     1       8.775 -45.324  30.783  1.00  0.00     0.107 A
ENDROOT
BRANCH  14  18
HETATM   18  S1  UNL     1       4.880 -45.793  30.748  1.00  0.00     0.272 S
HETATM   19  O1  UNL     1       4.402 -44.375  30.934  1.00  0.00    -0.199 OA
HETATM   20  O2  UNL     1       4.306 -46.690  31.789  1.00  0.00    -0.199 OA
BRANCH  18  21
HETATM   21  N7  UNL     1       4.362 -46.315  29.189  1.00  0.00    -0.323 N
ATOM     22  H72 UNL     1       4.953 -46.850  28.553  1.00  0.00     0.169 HD
ATOM     23  H71 UNL     1       3.405 -46.023  28.993  1.00  0.00     0.169 HD
ENDBRANCH  18  21
ENDBRANCH  14  18
BRANCH   1  24
HETATM   24  N1  UNL     1      10.164 -43.690  29.988  1.00  0.00    -0.374 N
ATOM     25  H1  UNL     1       9.370 -43.052  29.931  1.00  0.00     0.161 HD
BRANCH  24  26
HETATM   26  C3  UNL     1      11.422 -43.341  29.387  1.00  0.00     0.121 C
BRANCH  26  27
HETATM   27  C2  UNL     1      11.366 -43.689  27.916  1.00  0.00     0.015 C
HETATM   28  C1  UNL     1      12.725 -44.049  27.384  1.00  0.00     0.006 C
ENDBRANCH  26  27
ENDBRANCH  24  26
ENDBRANCH   1  24
TORSDOF 5
ENDMDL