MODEL 1
REMARK VINA RESULT: -7.780419269      0.000      0.000
REMARK  4 active torsions:
REMARK  status: ('A' for Active; 'I' for Inactive)
REMARK    1  A    between atoms: C4_11  and  N4_12
REMARK    2  A    between atoms: N4_12  and  C5_14
REMARK    3  A    between atoms: C5_14  and  C7_17
REMARK    4  A    between atoms: C7_17  and  C8_18
ROOT
HETATM    1  C5  UNL     1       9.820 -44.881  30.682  1.00  0.00     0.211 C
HETATM    2  C6  UNL     1       8.494 -44.324  30.841  1.00  0.00     0.085 C
HETATM    3  N5  UNL     1       7.418 -43.864  30.923  1.00  0.00    -0.195 NA
ENDROOT
BRANCH   1   4
HETATM    4  N4  UNL     1      10.766 -43.863  30.312  1.00  0.00    -0.208 N
ATOM      5  H4  UNL     1      11.024 -43.164  31.009  1.00  0.00     0.179 HD
BRANCH   4   6
HETATM    6  C4  UNL     1      11.298 -43.793  29.155  1.00  0.00     0.689 A
HETATM    7  N1  UNL     1      12.638 -44.048  29.072  1.00  0.00    -0.137 N
HETATM    8  C1  UNL     1      13.343 -44.351  30.291  1.00  0.00     0.180 C
HETATM    9  C2  UNL     1      13.275 -44.006  27.885  1.00  0.00     0.344 A
HETATM   10  O1  UNL     1      14.521 -44.245  27.833  1.00  0.00    -0.246 OA
HETATM   11  N2  UNL     1      12.560 -43.704  26.771  1.00  0.00    -0.259 N
HETATM   12  C3  UNL     1      11.247 -43.448  26.821  1.00  0.00     0.342 A
ATOM     13  H2  UNL     1      13.037 -43.670  25.870  1.00  0.00     0.175 HD
HETATM   14  O2  UNL     1      10.579 -43.169  25.799  1.00  0.00    -0.246 OA
HETATM   15  N3  UNL     1      10.633 -43.498  28.025  1.00  0.00    -0.141 N
ATOM     16  H3  UNL     1       9.634 -43.304  28.076  1.00  0.00     0.189 HD
ENDBRANCH   4   6
ENDBRANCH   1   4
BRANCH   1  17
HETATM   17  C7  UNL     1      10.276 -45.600  31.923  1.00  0.00     0.081 C
BRANCH  17  18
HETATM   18  C8  UNL     1      10.128 -47.054  31.920  1.00  0.00    -0.031 A
HETATM   19  C9  UNL     1       8.866 -47.560  31.548  1.00  0.00     0.011 A
HETATM   20  C10 UNL     1       8.662 -48.919  31.612  1.00  0.00     0.023 A
HETATM   21  C11 UNL     1       9.675 -49.755  32.033  1.00  0.00     0.046 A
HETATM   22  C12 UNL     1       9.437 -51.188  32.092  1.00  0.00     0.099 C
HETATM   23  C13 UNL     1      10.905 -49.255  32.395  1.00  0.00     0.049 A
HETATM   24  N6  UNL     1       9.248 -52.324  32.162  1.00  0.00    -0.191 NA
HETATM   25  C14 UNL     1      11.140 -47.883  32.338  1.00  0.00     0.054 A
HETATM   26  N7  UNL     1      12.463 -47.409  32.659  1.00  0.00    -0.102 NA
ENDBRANCH  17  18
ENDBRANCH   1  17
TORSDOF 4
ENDMDL