MODEL 1
REMARK VINA RESULT: -7.029358854      0.000      0.000
REMARK  4 active torsions:
REMARK  status: ('A' for Active; 'I' for Inactive)
REMARK    1  A    between atoms: S1_2  and  C2_5
REMARK    2  A    between atoms: C5_8  and  C6_9
REMARK    3  A    between atoms: N1_10  and  N2_12
REMARK    4  A    between atoms: C7_13  and  N3_14
ROOT
HETATM    1  N2  UNL     1      12.914 -44.361  30.631  1.00  0.00    -0.032 N
HETATM    2  C7  UNL     1      13.669 -44.358  31.742  1.00  0.00     0.705 A
HETATM    3  N4  UNL     1      15.026 -44.408  31.662  1.00  0.00    -0.139 N
ATOM      4  H4  UNL     1      15.582 -44.406  32.517  1.00  0.00     0.189 HD
HETATM    5  C8  UNL     1      15.646 -44.462  30.462  1.00  0.00     0.342 A
HETATM    6  O3  UNL     1      16.901 -44.509  30.394  1.00  0.00    -0.246 OA
HETATM    7  N5  UNL     1      14.892 -44.465  29.349  1.00  0.00    -0.258 N
ATOM      8  H5  UNL     1      15.333 -44.505  28.430  1.00  0.00     0.175 HD
HETATM    9  C9  UNL     1      13.558 -44.415  29.456  1.00  0.00     0.364 A
HETATM   10  O4  UNL     1      12.828 -44.417  28.418  1.00  0.00    -0.244 OA
ENDROOT
BRANCH   1  11
HETATM   11  N1  UNL     1      11.529 -44.308  30.772  1.00  0.00    -0.286 N
HETATM   12  C6  UNL     1      10.896 -45.442  30.957  1.00  0.00     0.119 C
ATOM     13  H1  UNL     1      11.027 -43.421  30.733  1.00  0.00     0.187 HD
BRANCH  12  14
HETATM   14  C5  UNL     1       9.460 -45.473  31.112  1.00  0.00    -0.019 A
HETATM   15  C4  UNL     1       8.824 -46.654  31.368  1.00  0.00     0.014 A
HETATM   16  C3  UNL     1       7.438 -46.732  31.527  1.00  0.00     0.024 A
HETATM   17  C2  UNL     1       6.693 -45.562  31.418  1.00  0.00     0.058 A
HETATM   18  C11 UNL     1       7.321 -44.367  31.160  1.00  0.00     0.024 A
HETATM   19  C10 UNL     1       8.700 -44.327  31.009  1.00  0.00     0.014 A
BRANCH  17  20
HETATM   20  S1  UNL     1       4.968 -45.692  31.620  1.00  0.00     0.171 S
HETATM   21  C1  UNL     1       4.125 -45.629  30.054  1.00  0.00     0.167 C
HETATM   22  O1  UNL     1       4.583 -46.959  32.324  1.00  0.00    -0.223 OA
HETATM   23  O2  UNL     1       4.470 -44.515  32.435  1.00  0.00    -0.223 OA
ENDBRANCH  17  20
ENDBRANCH  12  14
ENDBRANCH   1  11
BRANCH   2  24
HETATM   24  N3  UNL     1      13.172 -44.308  32.932  1.00  0.00    -0.233 N
ATOM     25  H32 UNL     1      12.223 -43.940  33.006  1.00  0.00     0.174 HD
ATOM     26  H31 UNL     1      13.680 -44.613  33.762  1.00  0.00     0.174 HD
ENDBRANCH   2  24
TORSDOF 4
ENDMDL