MODEL 5
REMARK VINA RESULT: -6.285138275      5.249      7.002
REMARK  5 active torsions:
REMARK  status: ('A' for Active; 'I' for Inactive)
REMARK    1  A    between atoms: N1_1  and  S1_4
REMARK    2  A    between atoms: S1_4  and  N2_5
REMARK    3  A    between atoms: S1_4  and  C1_9
REMARK    4  A    between atoms: N5_14  and  S2_15
REMARK    5  A    between atoms: S2_15  and  C2_18
ROOT
HETATM    1  C1  UNL     1      10.464 -47.038  33.404  1.00  0.00     0.214 A
HETATM    2  N3  UNL     1       9.284 -47.701  33.432  1.00  0.00    -0.270 N
ATOM      3  H3  UNL     1       9.092 -48.540  33.979  1.00  0.00     0.189 HD
HETATM    4  N4  UNL     1       8.409 -47.084  32.627  1.00  0.00    -0.222 N
ATOM      5  H4  UNL     1       7.447 -47.383  32.470  1.00  0.00     0.210 HD
HETATM    6  N5  UNL     1       8.973 -46.036  32.072  1.00  0.00    -0.121 N
HETATM    7  C8  UNL     1      10.234 -45.977  32.526  1.00  0.00     0.317 A
HETATM    8  O4  UNL     1      11.081 -45.116  32.221  1.00  0.00    -0.262 OA
ENDROOT
BRANCH   6   9
HETATM    9  S2  UNL     1       8.215 -44.932  30.953  1.00  0.00     0.286 S
HETATM   10  O2  UNL     1       8.255 -43.539  31.510  1.00  0.00    -0.198 OA
HETATM   11  O3  UNL     1       9.018 -44.907  29.671  1.00  0.00    -0.198 OA
BRANCH   9  12
HETATM   12  C2  UNL     1       6.559 -45.400  30.651  1.00  0.00     0.081 A
HETATM   13  C3  UNL     1       6.149 -45.959  29.460  1.00  0.00     0.025 A
HETATM   14  C4  UNL     1       4.848 -46.331  29.213  1.00  0.00     0.002 A
HETATM   15  C5  UNL     1       3.877 -46.154  30.174  1.00  0.00     0.000 A
HETATM   16  C6  UNL     1       4.262 -45.595  31.375  1.00  0.00     0.002 A
HETATM   17  C7  UNL     1       5.563 -45.228  31.611  1.00  0.00     0.025 A
ENDBRANCH   9  12
ENDBRANCH   6   9
BRANCH   1  18
HETATM   18  S1  UNL     1      11.947 -47.398  34.259  1.00  0.00     0.153 S
HETATM   19  O1  UNL     1      12.414 -48.788  34.041  1.00  0.00    -0.222 OA
BRANCH  18  20
HETATM   20  N1  UNL     1      11.679 -47.229  35.799  1.00  0.00    -0.340 N
ATOM     21  H12 UNL     1      11.368 -47.965  36.433  1.00  0.00     0.167 HD
ATOM     22  H11 UNL     1      11.874 -46.256  36.033  1.00  0.00     0.167 HD
ENDBRANCH  18  20
BRANCH  18  23
HETATM   23  N2  UNL     1      13.199 -46.291  33.837  1.00  0.00    -0.340 N
ATOM     24  H22 UNL     1      13.350 -45.376  34.260  1.00  0.00     0.167 HD
ATOM     25  H21 UNL     1      13.748 -46.727  33.095  1.00  0.00     0.167 HD
ENDBRANCH  18  23
ENDBRANCH   1  18
TORSDOF 5
ENDMDL