MODEL 1
REMARK VINA RESULT: -6.692741353      0.000      0.000
REMARK  4 active torsions:
REMARK  status: ('A' for Active; 'I' for Inactive)
REMARK    1  A    between atoms: N3_6  and  C4_7
REMARK    2  A    between atoms: C7_13  and  N5_14
REMARK    3  A    between atoms: C10_17  and  C11_18
REMARK    4  A    between atoms: C11_18  and  N6_19
ROOT
HETATM    1  N1  UNL     1       3.817 -45.518  29.367  1.00  0.00    -0.172 NA
HETATM    2  C1  UNL     1       4.869 -45.560  29.894  1.00  0.00     0.179 C
HETATM    3  N2  UNL     1       6.099 -45.618  30.534  1.00  0.00    -0.317 N
HETATM    4  C2  UNL     1       6.454 -44.640  31.533  1.00  0.00     0.154 C
HETATM    5  C3  UNL     1       7.797 -44.077  31.132  1.00  0.00     0.145 C
HETATM    6  N3  UNL     1       8.766 -45.142  30.929  1.00  0.00    -0.364 N
HETATM    7  C13 UNL     1       8.323 -46.505  31.053  1.00  0.00     0.145 C
HETATM    8  C14 UNL     1       7.046 -46.657  30.214  1.00  0.00     0.154 C
ENDROOT
BRANCH   6   9
HETATM    9  C4  UNL     1      10.096 -44.770  30.618  1.00  0.00     0.124 A
HETATM   10  C5  UNL     1      11.192 -45.184  31.338  1.00  0.00     0.123 A
HETATM   11  C6  UNL     1      12.502 -44.813  31.021  1.00  0.00     0.263 A
HETATM   12  O1  UNL     1      13.440 -45.242  31.739  1.00  0.00    -0.268 OA
HETATM   13  N4  UNL     1      12.660 -44.017  29.959  1.00  0.00    -0.156 N
HETATM   14  C7  UNL     1      11.618 -43.589  29.227  1.00  0.00     0.684 A
ATOM     15  H4  UNL     1      13.601 -43.724  29.696  1.00  0.00     0.187 HD
HETATM   16  N7  UNL     1      10.369 -43.959  29.553  1.00  0.00    -0.176 N
ATOM     17  H7  UNL     1       9.594 -43.620  28.983  1.00  0.00     0.186 HD
BRANCH  14  18
HETATM   18  N5  UNL     1      11.800 -42.744  28.105  1.00  0.00    -0.217 N
HETATM   19  C8  UNL     1      12.140 -41.335  28.114  1.00  0.00     0.141 C
HETATM   20  C9  UNL     1      11.596 -40.830  26.821  1.00  0.00     0.028 C
HETATM   21  C10 UNL     1      11.627 -41.983  25.863  1.00  0.00     0.031 C
HETATM   22  C12 UNL     1      11.661 -43.201  26.728  1.00  0.00     0.147 C
BRANCH  21  23
HETATM   23  C11 UNL     1      12.798 -41.929  24.918  1.00  0.00     0.235 C
BRANCH  23  24
HETATM   24  N6  UNL     1      13.329 -43.251  24.646  1.00  0.00    -0.079 N
ATOM     25  H63 UNL     1      13.499 -43.768  25.509  1.00  0.00     0.274 HD
ATOM     26  H62 UNL     1      12.620 -43.859  24.235  1.00  0.00     0.274 HD
ATOM     27  H61 UNL     1      14.166 -43.209  24.066  1.00  0.00     0.274 HD
ENDBRANCH  23  24
ENDBRANCH  21  23
ENDBRANCH  14  18
ENDBRANCH   6   9
TORSDOF 4
ENDMDL