MODEL 4
REMARK VINA RESULT: -7.015730568      2.453      6.074
REMARK  6 active torsions:
REMARK  status: ('A' for Active; 'I' for Inactive)
REMARK    1  A    between atoms: N1_1  and  C1_5
REMARK    2  A    between atoms: C1_5  and  C2_6
REMARK       I    between atoms: C2_6  and  N2_8
REMARK    3  A    between atoms: N2_8  and  C3_10
REMARK    4  A    between atoms: C7_19  and  N6_20
REMARK    5  A    between atoms: N6_20  and  C8_22
REMARK    6  A    between atoms: C8_22  and  C9_23
ROOT
HETATM    1  C3  UNL     1       7.788 -44.920  31.329  1.00  0.00     0.714 A
HETATM    2  N3  UNL     1       8.399 -43.974  30.621  1.00  0.00    -0.020 N
ATOM      3  H3  UNL     1       7.877 -43.167  30.282  1.00  0.00     0.203 HD
HETATM    4  C4  UNL     1       9.705 -44.094  30.361  1.00  0.00     0.717 A
HETATM    5  N4  UNL     1      10.535 -43.264  29.666  1.00  0.00    -0.199 N
ATOM      6  H4  UNL     1      10.251 -42.388  29.226  1.00  0.00     0.183 HD
HETATM    7  C5  UNL     1      11.754 -43.758  29.646  1.00  0.00     0.125 A
HETATM    8  C6  UNL     1      11.688 -44.961  30.366  1.00  0.00     0.151 A
HETATM    9  N5  UNL     1      10.421 -45.151  30.798  1.00  0.00     0.014 N
HETATM   10  C7  UNL     1       9.819 -46.133  31.525  1.00  0.00     0.717 A
HETATM   11  N9  UNL     1       8.489 -45.959  31.759  1.00  0.00    -0.020 N
ATOM     12  H9  UNL     1       8.001 -46.672  32.300  1.00  0.00     0.203 HD
ENDROOT
BRANCH  10  13
HETATM   13  N6  UNL     1      10.419 -47.133  31.958  1.00  0.00    -0.199 N
ATOM     14  H6  UNL     1      11.321 -47.258  31.499  1.00  0.00     0.183 HD
BRANCH  13  15
HETATM   15  C8  UNL     1      10.184 -48.128  32.905  1.00  0.00     0.119 C
BRANCH  15  16
HETATM   16  C9  UNL     1      10.899 -47.718  34.171  1.00  0.00    -0.002 A
HETATM   17  C10 UNL     1      10.165 -47.700  35.331  1.00  0.00     0.032 A
HETATM   18  C11 UNL     1      10.716 -47.342  36.546  1.00  0.00     0.108 A
HETATM   19  N7  UNL     1      12.014 -47.009  36.543  1.00  0.00    -0.312 N
HETATM   20  N8  UNL     1      12.723 -47.027  35.422  1.00  0.00    -0.311 N
ATOM     21  H7  UNL     1      12.464 -46.737  37.417  1.00  0.00     0.186 HD
HETATM   22  C12 UNL     1      12.215 -47.371  34.221  1.00  0.00     0.119 A
ATOM     23  H8  UNL     1      13.708 -46.765  35.471  1.00  0.00     0.186 HD
ENDBRANCH  15  16
ENDBRANCH  13  15
ENDBRANCH  10  13
BRANCH   1  24
HETATM   24  N2  UNL     1       6.536 -44.883  31.624  1.00  0.00    -0.157 N
HETATM   25  C2  UNL     1       5.479 -45.371  30.846  1.00  0.00     0.261 C
HETATM   26  O1  UNL     1       4.289 -45.299  31.310  1.00  0.00    -0.271 OA
ATOM     27  H2  UNL     1       6.289 -44.454  32.515  1.00  0.00     0.187 HD
BRANCH  25  28
HETATM   28  C1  UNL     1       5.619 -45.977  29.501  1.00  0.00     0.332 C
BRANCH  28  29
HETATM   29  N1  UNL     1       4.306 -46.319  28.951  1.00  0.00    -0.071 N
ATOM     30  H13 UNL     1       3.999 -47.244  29.250  1.00  0.00     0.274 HD
ATOM     31  H12 UNL     1       3.562 -45.767  29.376  1.00  0.00     0.274 HD
ATOM     32  H11 UNL     1       4.308 -46.232  27.935  1.00  0.00     0.274 HD
ENDBRANCH  28  29
ENDBRANCH  25  28
ENDBRANCH   1  24
TORSDOF 6
ENDMDL