MODEL 3
REMARK VINA RESULT: -6.475526172      1.888      2.228
REMARK  4 active torsions:
REMARK  status: ('A' for Active; 'I' for Inactive)
REMARK    1  A    between atoms: C3_4  and  C4_5
REMARK    2  A    between atoms: N2_7  and  S1_8
REMARK    3  A    between atoms: S1_8  and  N3_11
REMARK    4  A    between atoms: C10_18  and  N5_19
ROOT
HETATM    1  N1  UNL     1       4.232 -45.135  29.593  1.00  0.00    -0.192 NA
HETATM    2  C1  UNL     1       5.323 -45.169  29.934  1.00  0.00     0.087 C
HETATM    3  C2  UNL     1       6.739 -45.214  30.350  1.00  0.00     0.094 C
HETATM    4  C3  UNL     1       7.229 -46.383  30.621  1.00  0.00     0.029 C
ENDROOT
BRANCH   4   5
HETATM    5  C4  UNL     1       8.582 -46.631  31.042  1.00  0.00     0.050 A
HETATM    6  C5  UNL     1       9.503 -45.589  30.889  1.00  0.00     0.146 A
HETATM    7  N2  UNL     1      10.789 -45.699  31.244  1.00  0.00    -0.069 N
HETATM    8  C10 UNL     1      11.205 -46.857  31.766  1.00  0.00     0.695 A
HETATM    9  N6  UNL     1      10.390 -47.891  31.942  1.00  0.00    -0.155 N
HETATM   10  C11 UNL     1       9.083 -47.776  31.581  1.00  0.00     0.271 A
ATOM     11  H6  UNL     1      10.739 -48.760  32.344  1.00  0.00     0.187 HD
HETATM   12  O3  UNL     1       8.346 -48.766  31.760  1.00  0.00    -0.267 OA
BRANCH   7  13
HETATM   13  S1  UNL     1      11.857 -44.400  31.032  1.00  0.00     0.323 S
HETATM   14  O1  UNL     1      12.588 -44.094  32.318  1.00  0.00    -0.187 OA
HETATM   15  O2  UNL     1      11.088 -43.175  30.664  1.00  0.00    -0.187 OA
BRANCH  13  16
HETATM   16  N3  UNL     1      13.017 -44.804  29.788  1.00  0.00    -0.189 NA
HETATM   17  C6  UNL     1      14.331 -44.679  30.285  1.00  0.00     0.128 C
HETATM   18  C7  UNL     1      15.382 -44.240  29.349  1.00  0.00     0.129 C
HETATM   19  N4  UNL     1      14.970 -43.592  28.165  1.00  0.00    -0.419 N
HETATM   20  C8  UNL     1      13.758 -44.045  27.581  1.00  0.00     0.129 C
ATOM     21  H4  UNL     1      15.515 -42.836  27.751  1.00  0.00     0.153 HD
HETATM   22  C9  UNL     1      12.689 -44.037  28.642  1.00  0.00     0.128 C
ENDBRANCH  13  16
ENDBRANCH   7  13
BRANCH   8  23
HETATM   23  N5  UNL     1      12.443 -46.942  32.100  1.00  0.00    -0.233 N
ATOM     24  H52 UNL     1      12.760 -46.578  32.998  1.00  0.00     0.174 HD
ATOM     25  H51 UNL     1      13.079 -47.383  31.434  1.00  0.00     0.174 HD
ENDBRANCH   8  23
ENDBRANCH   4   5
TORSDOF 4
ENDMDL