MODEL 4
REMARK VINA RESULT: -5.733626590      3.467      5.247
REMARK  5 active torsions:
REMARK  status: ('A' for Active; 'I' for Inactive)
REMARK    1  A    between atoms: N1_1  and  C1_4
REMARK    2  A    between atoms: C2_7  and  S1_8
REMARK    3  A    between atoms: S1_8  and  N3_9
REMARK    4  A    between atoms: C4_17  and  S2_18
REMARK    5  A    between atoms: S2_18  and  N5_21
ROOT
HETATM    1  C1  UNL     1      10.392 -45.990  32.263  1.00  0.00     0.126 A
HETATM    2  N2  UNL     1       9.228 -45.443  31.810  1.00  0.00    -0.317 N
ATOM      3  H2  UNL     1       9.143 -44.427  31.753  1.00  0.00     0.169 HD
HETATM    4  C2  UNL     1       8.190 -46.210  31.436  1.00  0.00     0.225 A
HETATM    5  N4  UNL     1       8.325 -47.535  31.519  1.00  0.00    -0.340 N
ATOM      6  H4  UNL     1       7.543 -48.125  31.237  1.00  0.00     0.167 HD
HETATM    7  C3  UNL     1       9.459 -48.128  31.963  1.00  0.00     0.119 A
HETATM    8  C4  UNL     1      10.531 -47.352  32.349  1.00  0.00     0.139 A
ENDROOT
BRANCH   8   9
HETATM    9  S2  UNL     1      12.035 -47.990  32.934  1.00  0.00     0.273 S
HETATM   10  O3  UNL     1      13.200 -47.368  32.244  1.00  0.00    -0.200 OA
HETATM   11  O4  UNL     1      12.076 -49.473  32.635  1.00  0.00    -0.200 OA
BRANCH   9  12
HETATM   12  N5  UNL     1      12.226 -47.701  34.635  1.00  0.00    -0.258 N
HETATM   13  C5  UNL     1      11.238 -47.670  35.541  1.00  0.00     0.108 A
HETATM   14  C6  UNL     1      11.753 -47.415  36.795  1.00  0.00     0.020 A
HETATM   15  C7  UNL     1      13.113 -47.291  36.618  1.00  0.00     0.020 A
HETATM   16  C8  UNL     1      13.370 -47.471  35.291  1.00  0.00     0.108 A
ENDBRANCH   9  12
ENDBRANCH   8   9
BRANCH   1  17
HETATM   17  N1  UNL     1      11.344 -45.222  32.605  1.00  0.00    -0.384 N
ATOM     18  H12 UNL     1      12.069 -44.966  31.935  1.00  0.00     0.157 HD
ATOM     19  H11 UNL     1      11.376 -44.865  33.560  1.00  0.00     0.157 HD
ENDBRANCH   1  17
BRANCH   4  20
HETATM   20  S1  UNL     1       6.709 -45.443  30.857  1.00  0.00     0.289 S
HETATM   21  O1  UNL     1       6.256 -46.114  29.614  1.00  0.00    -0.198 OA
HETATM   22  O2  UNL     1       6.994 -43.970  30.651  1.00  0.00    -0.198 OA
BRANCH  20  23
HETATM   23  N3  UNL     1       5.467 -45.544  32.053  1.00  0.00    -0.322 N
ATOM     24  H32 UNL     1       4.559 -45.980  31.894  1.00  0.00     0.169 HD
ATOM     25  H31 UNL     1       5.772 -45.111  32.924  1.00  0.00     0.169 HD
ENDBRANCH  20  23
ENDBRANCH   4  20
TORSDOF 5
ENDMDL