MODEL 5
REMARK VINA RESULT: -5.903606391      2.467      6.297
REMARK  5 active torsions:
REMARK  status: ('A' for Active; 'I' for Inactive)
REMARK    1  A    between atoms: N2_5  and  C4_6
REMARK    2  A    between atoms: C5_9  and  N4_10
REMARK    3  A    between atoms: C10_18  and  N6_19
REMARK    4  A    between atoms: C11_22  and  C12_23
REMARK    5  A    between atoms: C12_23  and  N7_24
ROOT
HETATM    1  C4  UNL     1     -18.454 -10.396  14.148  1.00  0.00     0.131 A
HETATM    2  N3  UNL     1     -19.622  -9.789  13.839  1.00  0.00    -0.176 N
ATOM      3  H3  UNL     1     -19.668  -8.772  13.905  1.00  0.00     0.186 HD
HETATM    4  C5  UNL     1     -20.719 -10.445  13.451  1.00  0.00     0.683 A
HETATM    5  N5  UNL     1     -20.645 -11.788  13.369  1.00  0.00    -0.176 N
ATOM      6  H5  UNL     1     -21.479 -12.295  13.074  1.00  0.00     0.186 HD
HETATM    7  C10 UNL     1     -19.548 -12.496  13.648  1.00  0.00     0.126 A
HETATM    8  C11 UNL     1     -18.422 -11.771  14.050  1.00  0.00     0.056 A
ENDROOT
BRANCH   1   9
HETATM    9  N2  UNL     1     -17.297  -9.695  14.558  1.00  0.00    -0.363 N
HETATM   10  C3  UNL     1     -17.068  -9.250  15.916  1.00  0.00     0.154 C
HETATM   11  C2  UNL     1     -15.563  -9.111  16.083  1.00  0.00     0.291 C
HETATM   12  N1  UNL     1     -14.989  -8.143  15.201  1.00  0.00     0.087 N
HETATM   13  C1  UNL     1     -14.794  -6.852  15.780  1.00  0.00     0.310 C
HETATM   14  C14 UNL     1     -15.745  -7.993  13.965  1.00  0.00     0.291 C
HETATM   15  C13 UNL     1     -16.253  -9.382  13.588  1.00  0.00     0.154 C
ENDBRANCH   1   9
BRANCH   8  16
HETATM   16  C12 UNL     1     -17.180 -12.491  14.374  1.00  0.00     0.275 C
BRANCH  16  17
HETATM   17  N7  UNL     1     -17.145 -12.819  15.801  1.00  0.00    -0.075 N
ATOM     18  H73 UNL     1     -16.191 -12.949  16.138  1.00  0.00     0.274 HD
ATOM     19  H72 UNL     1     -17.402 -12.021  16.382  1.00  0.00     0.274 HD
ATOM     20  H71 UNL     1     -17.731 -13.632  15.989  1.00  0.00     0.274 HD
ENDBRANCH  16  17
ENDBRANCH   8  16
BRANCH   4  21
HETATM   21  N4  UNL     1     -21.936  -9.779  13.131  1.00  0.00    -0.213 N
HETATM   22  C6  UNL     1     -22.734 -10.236  12.016  1.00  0.00     0.167 C
HETATM   23  C7  UNL     1     -24.166  -9.834  12.311  1.00  0.00     0.188 C
HETATM   24  O1  UNL     1     -24.234  -8.467  12.296  1.00  0.00    -0.388 OA
HETATM   25  C8  UNL     1     -23.383  -7.809  13.138  1.00  0.00     0.188 C
HETATM   26  C9  UNL     1     -22.411  -8.657  13.882  1.00  0.00     0.167 C
ENDBRANCH   4  21
BRANCH   7  27
HETATM   27  N6  UNL     1     -19.522 -13.775  13.556  1.00  0.00    -0.384 N
ATOM     28  H62 UNL     1     -19.719 -14.370  14.360  1.00  0.00     0.157 HD
ATOM     29  H61 UNL     1     -19.304 -14.249  12.679  1.00  0.00     0.157 HD
ENDBRANCH   7  27
TORSDOF 5
ENDMDL