MODEL 2
REMARK VINA RESULT: -7.563333861      0.051      1.027
REMARK  5 active torsions:
REMARK  status: ('A' for Active; 'I' for Inactive)
REMARK    1  A    between atoms: S1_2  and  N1_4
REMARK    2  A    between atoms: S1_2  and  C9_24
REMARK    3  A    between atoms: N1_4  and  C1_6
REMARK    4  A    between atoms: C2_15  and  N6_16
REMARK    5  A    between atoms: N6_16  and  C3_18
ROOT
HETATM    1  C1  UNL     1     -18.822 -12.383  14.122  1.00  0.00     0.177 A
HETATM    2  N2  UNL     1     -18.487 -13.655  13.736  1.00  0.00    -0.266 N
ATOM      3  H2  UNL     1     -19.134 -14.207  13.172  1.00  0.00     0.190 HD
HETATM    4  N3  UNL     1     -17.332 -14.161  14.094  1.00  0.00    -0.226 N
ATOM      5  H3  UNL     1     -17.117 -15.111  13.790  1.00  0.00     0.210 HD
HETATM    6  N4  UNL     1     -16.431 -13.533  14.817  1.00  0.00    -0.227 N
ATOM      7  H4  UNL     1     -15.547 -13.977  15.066  1.00  0.00     0.210 HD
HETATM    8  N5  UNL     1     -16.717 -12.311  15.205  1.00  0.00    -0.267 N
ATOM      9  H5  UNL     1     -16.040 -11.796  15.768  1.00  0.00     0.190 HD
HETATM   10  C2  UNL     1     -17.888 -11.722  14.876  1.00  0.00     0.168 A
ENDROOT
BRANCH   1  11
HETATM   11  N1  UNL     1     -19.931 -11.945  13.757  1.00  0.00    -0.259 N
ATOM     12  H1  UNL     1     -19.988 -11.825  12.746  1.00  0.00     0.180 HD
BRANCH  11  13
HETATM   13  S1  UNL     1     -21.352 -11.506  14.534  1.00  0.00     0.297 S
HETATM   14  O1  UNL     1     -22.619 -11.822  13.778  1.00  0.00    -0.197 OA
HETATM   15  O2  UNL     1     -21.361 -10.006  14.779  1.00  0.00    -0.197 OA
BRANCH  13  16
HETATM   16  C9  UNL     1     -21.457 -12.244  16.152  1.00  0.00     0.239 A
HETATM   17  N7  UNL     1     -22.328 -13.180  16.567  1.00  0.00    -0.325 N
HETATM   18  C10 UNL     1     -22.077 -13.472  17.853  1.00  0.00     0.199 A
ATOM     19  H7  UNL     1     -23.061 -13.600  15.996  1.00  0.00     0.169 HD
HETATM   20  N8  UNL     1     -21.045 -12.714  18.245  1.00  0.00    -0.294 N
HETATM   21  N9  UNL     1     -20.672 -11.970  17.206  1.00  0.00    -0.274 N
ATOM     22  H8  UNL     1     -20.621 -12.709  19.173  1.00  0.00     0.187 HD
ATOM     23  H9  UNL     1     -19.907 -11.295  17.210  1.00  0.00     0.189 HD
ENDBRANCH  13  16
ENDBRANCH  11  13
ENDBRANCH   1  11
BRANCH  10  24
HETATM   24  N6  UNL     1     -18.099 -10.514  15.296  1.00  0.00    -0.338 N
ATOM     25  H6  UNL     1     -19.014 -10.286  15.683  1.00  0.00     0.167 HD
BRANCH  24  26
HETATM   26  C3  UNL     1     -17.125  -9.504  15.242  1.00  0.00     0.033 A
HETATM   27  C4  UNL     1     -16.607  -8.999  16.404  1.00  0.00     0.029 A
HETATM   28  C5  UNL     1     -15.642  -7.999  16.381  1.00  0.00     0.002 A
HETATM   29  C6  UNL     1     -15.239  -7.549  15.147  1.00  0.00     0.000 A
HETATM   30  C7  UNL     1     -15.735  -8.029  13.953  1.00  0.00     0.002 A
HETATM   31  C8  UNL     1     -16.703  -9.034  14.023  1.00  0.00     0.029 A
ENDBRANCH  24  26
ENDBRANCH  10  24
TORSDOF 5
ENDMDL