MODEL 1
REMARK VINA RESULT: -7.409069558      0.000      0.000
REMARK  6 active torsions:
REMARK  status: ('A' for Active; 'I' for Inactive)
REMARK    1  A    between atoms: N1_1  and  C1_4
REMARK    2  A    between atoms: C4_14  and  N6_15
REMARK    3  A    between atoms: N6_15  and  C5_17
REMARK    4  A    between atoms: C5_17  and  C6_18
REMARK    5  A    between atoms: C9_21  and  S1_22
REMARK    6  A    between atoms: S1_22  and  N7_23
ROOT
HETATM    1  C1  UNL     1     -14.457 -17.144  10.435  1.00  0.00     0.705 A
HETATM    2  N2  UNL     1     -13.625 -16.245   9.882  1.00  0.00    -0.020 N
ATOM      3  H2  UNL     1     -13.310 -16.378   8.921  1.00  0.00     0.203 HD
HETATM    4  C2  UNL     1     -13.197 -15.161  10.583  1.00  0.00     0.734 A
HETATM    5  N3  UNL     1     -12.385 -14.126  10.293  1.00  0.00    -0.184 N
ATOM      6  H3  UNL     1     -11.918 -13.990   9.397  1.00  0.00     0.185 HD
HETATM    7  C3  UNL     1     -12.273 -13.298  11.347  1.00  0.00     0.216 A
HETATM    8  N4  UNL     1     -13.040 -13.838  12.313  1.00  0.00    -0.260 N
ATOM      9  H4  UNL     1     -13.173 -13.452  13.248  1.00  0.00     0.189 HD
HETATM   10  N5  UNL     1     -13.595 -14.960  11.853  1.00  0.00     0.092 N
HETATM   11  C4  UNL     1     -14.432 -15.864  12.409  1.00  0.00     0.729 A
HETATM   12  N8  UNL     1     -14.850 -16.931  11.706  1.00  0.00    -0.020 N
ATOM     13  H8  UNL     1     -15.482 -17.598  12.148  1.00  0.00     0.203 HD
ENDROOT
BRANCH  11  14
HETATM   14  N6  UNL     1     -14.830 -15.699  13.618  1.00  0.00    -0.219 N
ATOM     15  H6  UNL     1     -14.149 -15.707  14.378  1.00  0.00     0.178 HD
BRANCH  14  16
HETATM   16  C5  UNL     1     -16.214 -15.505  13.916  1.00  0.00     0.176 C
BRANCH  16  17
HETATM   17  C6  UNL     1     -16.587 -14.100  14.117  1.00  0.00    -0.040 A
HETATM   18  C7  UNL     1     -15.643 -13.130  14.374  1.00  0.00     0.010 A
HETATM   19  C8  UNL     1     -15.970 -11.823  14.564  1.00  0.00     0.026 A
HETATM   20  C9  UNL     1     -17.289 -11.403  14.505  1.00  0.00     0.079 A
HETATM   21  C10 UNL     1     -18.235 -12.374  14.248  1.00  0.00     0.026 A
HETATM   22  C11 UNL     1     -17.925 -13.703  14.053  1.00  0.00     0.010 A
BRANCH  20  23
HETATM   23  S1  UNL     1     -17.725  -9.730  14.745  1.00  0.00     0.256 S
HETATM   24  O1  UNL     1     -16.960  -8.859  13.761  1.00  0.00    -0.201 OA
HETATM   25  O2  UNL     1     -19.215  -9.607  14.491  1.00  0.00    -0.201 OA
BRANCH  23  26
HETATM   26  N7  UNL     1     -17.445  -9.220  16.371  1.00  0.00    -0.324 N
ATOM     27  H72 UNL     1     -18.165  -9.238  17.095  1.00  0.00     0.169 HD
ATOM     28  H71 UNL     1     -16.486  -8.903  16.511  1.00  0.00     0.169 HD
ENDBRANCH  23  26
ENDBRANCH  20  23
ENDBRANCH  16  17
ENDBRANCH  14  16
ENDBRANCH  11  14
BRANCH   1  29
HETATM   29  N1  UNL     1     -14.869 -18.186   9.758  1.00  0.00    -0.234 N
ATOM     30  H12 UNL     1     -14.745 -18.247   8.748  1.00  0.00     0.174 HD
ATOM     31  H11 UNL     1     -15.327 -18.967  10.227  1.00  0.00     0.174 HD
ENDBRANCH   1  29
TORSDOF 6
ENDMDL