MODEL 5
REMARK VINA RESULT: -6.637580583      2.110      3.991
REMARK  5 active torsions:
REMARK  status: ('A' for Active; 'I' for Inactive)
REMARK    1  A    between atoms: N1_1  and  N2_4
REMARK    2  A    between atoms: C2_6  and  N3_7
REMARK    3  A    between atoms: C4_11  and  S1_12
REMARK    4  A    between atoms: S1_12  and  N4_15
REMARK    5  A    between atoms: N4_15  and  C5_17
ROOT
HETATM    1  S1  UNL     1     -18.768 -11.208  14.353  1.00  0.00     0.294 S
HETATM    2  O3  UNL     1     -19.519 -10.384  13.322  1.00  0.00    -0.198 OA
HETATM    3  O4  UNL     1     -19.363 -10.974  15.710  1.00  0.00    -0.198 OA
ENDROOT
BRANCH   1   4
HETATM    4  C4  UNL     1     -18.984 -12.904  13.978  1.00  0.00     0.173 A
HETATM    5  N2  UNL     1     -20.159 -13.464  13.709  1.00  0.00    -0.259 N
HETATM    6  C1  UNL     1     -19.945 -14.751  13.474  1.00  0.00     0.153 A
HETATM    7  C2  UNL     1     -18.600 -15.039  13.592  1.00  0.00     0.123 A
HETATM    8  C3  UNL     1     -17.997 -13.862  13.912  1.00  0.00     0.083 A
BRANCH   5   9
HETATM    9  N1  UNL     1     -21.396 -12.827  13.676  1.00  0.00    -0.338 N
ATOM     10  H12 UNL     1     -22.146 -12.986  13.004  1.00  0.00     0.177 HD
ATOM     11  H11 UNL     1     -21.713 -12.111  14.329  1.00  0.00     0.177 HD
ENDBRANCH   5   9
BRANCH   7  12
HETATM   12  N3  UNL     1     -17.991 -16.329  13.409  1.00  0.00    -0.114 N
HETATM   13  O1  UNL     1     -18.667 -17.355  13.601  1.00  0.00    -0.532 OA
HETATM   14  O2  UNL     1     -16.677 -16.390  13.025  1.00  0.00    -0.532 OA
ENDBRANCH   7  12
ENDBRANCH   1   4
BRANCH   1  15
HETATM   15  N4  UNL     1     -17.117 -10.801  14.279  1.00  0.00    -0.111 N
ATOM     16  H4  UNL     1     -16.468 -11.443  13.823  1.00  0.00     0.197 HD
BRANCH  15  17
HETATM   17  C5  UNL     1     -16.661  -9.706  14.783  1.00  0.00     0.694 A
HETATM   18  N5  UNL     1     -15.935  -8.878  13.992  1.00  0.00    -0.201 N
HETATM   19  C6  UNL     1     -15.440  -7.728  14.471  1.00  0.00     0.111 A
ATOM     20  H5  UNL     1     -15.763  -9.134  13.020  1.00  0.00     0.183 HD
HETATM   21  C7  UNL     1     -15.645  -7.335  15.780  1.00  0.00     0.092 A
HETATM   22  C8  UNL     1     -16.388  -8.206  16.550  1.00  0.00     0.260 A
HETATM   23  O5  UNL     1     -16.611  -7.906  17.756  1.00  0.00    -0.268 OA
HETATM   24  N6  UNL     1     -16.885  -9.365  16.061  1.00  0.00    -0.155 N
ATOM     25  H6  UNL     1     -17.430  -9.981  16.666  1.00  0.00     0.187 HD
ENDBRANCH  15  17
ENDBRANCH   1  15
TORSDOF 5
ENDMDL