MODEL 4
REMARK VINA RESULT: -6.364160097      5.947      9.031
REMARK  5 active torsions:
REMARK  status: ('A' for Active; 'I' for Inactive)
REMARK    1  A    between atoms: C4_9  and  N3_10
REMARK    2  A    between atoms: N4_13  and  C5_14
REMARK    3  A    between atoms: C5_14  and  C6_15
REMARK    4  A    between atoms: C9_18  and  S1_19
REMARK    5  A    between atoms: S1_19  and  N5_20
ROOT
HETATM    1  C1  UNL     1     -23.926 -11.106  14.610  1.00  0.00     0.183 C
HETATM    2  N1  UNL     1     -24.033 -10.751  13.233  1.00  0.00    -0.237 N
HETATM    3  C2  UNL     1     -25.061  -9.908  12.881  1.00  0.00     0.331 A
HETATM    4  O1  UNL     1     -25.843  -9.482  13.766  1.00  0.00    -0.260 OA
HETATM    5  C3  UNL     1     -25.244  -9.527  11.589  1.00  0.00     0.329 A
HETATM    6  O2  UNL     1     -26.172  -8.759  11.229  1.00  0.00    -0.261 OA
HETATM    7  N2  UNL     1     -24.388 -10.009  10.692  1.00  0.00    -0.150 N
ATOM      8  H2  UNL     1     -24.490  -9.750   9.711  1.00  0.00     0.188 HD
HETATM    9  C4  UNL     1     -23.383 -10.839  11.061  1.00  0.00     0.700 A
HETATM   10  N4  UNL     1     -23.181 -11.230  12.354  1.00  0.00    -0.092 N
ENDROOT
BRANCH  10  11
HETATM   11  C5  UNL     1     -22.098 -12.077  12.723  1.00  0.00     0.146 C
BRANCH  11  12
HETATM   12  C6  UNL     1     -20.855 -11.499  13.184  1.00  0.00    -0.018 A
HETATM   13  C7  UNL     1     -19.818 -12.317  13.579  1.00  0.00     0.014 A
HETATM   14  C8  UNL     1     -18.599 -11.832  14.045  1.00  0.00     0.026 A
HETATM   15  C9  UNL     1     -18.401 -10.471  14.121  1.00  0.00     0.079 A
HETATM   16  C10 UNL     1     -19.418  -9.629  13.733  1.00  0.00     0.026 A
HETATM   17  C11 UNL     1     -20.639 -10.152  13.267  1.00  0.00     0.014 A
BRANCH  15  18
HETATM   18  S1  UNL     1     -16.885  -9.818  14.701  1.00  0.00     0.256 S
HETATM   19  O3  UNL     1     -16.582  -8.593  13.883  1.00  0.00    -0.201 OA
HETATM   20  O4  UNL     1     -15.776 -10.817  14.570  1.00  0.00    -0.201 OA
BRANCH  18  21
HETATM   21  N5  UNL     1     -17.108  -9.316  16.334  1.00  0.00    -0.324 N
ATOM     22  H52 UNL     1     -16.414  -9.408  17.077  1.00  0.00     0.169 HD
ATOM     23  H51 UNL     1     -18.043  -8.918  16.419  1.00  0.00     0.169 HD
ENDBRANCH  18  21
ENDBRANCH  15  18
ENDBRANCH  11  12
ENDBRANCH  10  11
BRANCH   9  24
HETATM   24  N3  UNL     1     -22.601 -11.317  10.150  1.00  0.00    -0.233 N
ATOM     25  H32 UNL     1     -22.348 -10.713   9.369  1.00  0.00     0.174 HD
ATOM     26  H31 UNL     1     -22.239 -12.264  10.258  1.00  0.00     0.174 HD
ENDBRANCH   9  24
TORSDOF 5
ENDMDL