MODEL 4
REMARK VINA RESULT: -6.768543469      4.809      7.344
REMARK  4 active torsions:
REMARK  status: ('A' for Active; 'I' for Inactive)
REMARK    1  A    between atoms: C3_3  and  C4_4
REMARK    2  A    between atoms: C4_4  and  N1_5
REMARK    3  A    between atoms: N2_8  and  C7_9
REMARK    4  A    between atoms: C10_19  and  N6_20
ROOT
HETATM    1  C1  UNL     1     -14.125 -14.209   8.230  1.00  0.00     0.012 C
HETATM    2  C2  UNL     1     -14.026 -15.373   8.538  1.00  0.00    -0.116 C
HETATM    3  C3  UNL     1     -13.900 -16.795   8.941  1.00  0.00     0.123 C
ENDROOT
BRANCH   3   4
HETATM    4  C4  UNL     1     -13.165 -16.801  10.250  1.00  0.00     0.284 C
BRANCH   4   5
HETATM    5  N1  UNL     1     -13.818 -16.093  11.309  1.00  0.00     0.092 N
HETATM    6  C5  UNL     1     -14.498 -16.963  12.219  1.00  0.00     0.293 C
HETATM    7  C6  UNL     1     -15.106 -16.215  13.357  1.00  0.00     0.171 C
HETATM    8  N2  UNL     1     -14.656 -14.834  13.454  1.00  0.00    -0.213 N
HETATM    9  C12 UNL     1     -13.298 -14.494  13.124  1.00  0.00     0.171 C
HETATM   10  C13 UNL     1     -12.824 -15.264  11.944  1.00  0.00     0.293 C
BRANCH   8  11
HETATM   11  C7  UNL     1     -15.536 -13.798  13.881  1.00  0.00     0.696 A
HETATM   12  N3  UNL     1     -16.856 -14.023  13.909  1.00  0.00    -0.131 N
HETATM   13  N4  UNL     1     -17.735 -13.113  14.288  1.00  0.00    -0.278 N
ATOM     14  H3  UNL     1     -17.198 -14.941  13.626  1.00  0.00     0.205 HD
HETATM   15  C8  UNL     1     -17.302 -11.888  14.668  1.00  0.00     0.162 A
ATOM     16  H4  UNL     1     -18.731 -13.331  14.295  1.00  0.00     0.188 HD
HETATM   17  C9  UNL     1     -18.201 -10.912  15.069  1.00  0.00     0.291 A
HETATM   18  C11 UNL     1     -15.957 -11.625  14.650  1.00  0.00     0.170 A
HETATM   19  O1  UNL     1     -19.429 -11.174  15.078  1.00  0.00    -0.265 OA
HETATM   20  N5  UNL     1     -17.686  -9.719  15.429  1.00  0.00    -0.154 N
HETATM   21  C10 UNL     1     -16.371  -9.453  15.414  1.00  0.00     0.680 A
ATOM     22  H5  UNL     1     -18.327  -8.983  15.727  1.00  0.00     0.187 HD
HETATM   23  N7  UNL     1     -15.491 -10.401  15.025  1.00  0.00    -0.174 N
ATOM     24  H7  UNL     1     -14.490 -10.203  15.012  1.00  0.00     0.186 HD
HETATM   25  N8  UNL     1     -15.075 -12.583  14.255  1.00  0.00    -0.172 N
ATOM     26  H8  UNL     1     -14.074 -12.386  14.241  1.00  0.00     0.186 HD
BRANCH  21  27
HETATM   27  N6  UNL     1     -15.968  -8.298  15.770  1.00  0.00    -0.234 N
ATOM     28  H62 UNL     1     -16.055  -7.990  16.738  1.00  0.00     0.174 HD
ATOM     29  H61 UNL     1     -15.554  -7.680  15.071  1.00  0.00     0.174 HD
ENDBRANCH  21  27
ENDBRANCH   8  11
ENDBRANCH   4   5
ENDBRANCH   3   4
TORSDOF 4
ENDMDL