MODEL 4
REMARK VINA RESULT: -6.547585101      2.586      5.904
REMARK  3 active torsions:
REMARK  status: ('A' for Active; 'I' for Inactive)
REMARK    1  A    between atoms: C2_2  and  N1_3
REMARK    2  A    between atoms: C4_5  and  C5_6
REMARK    3  A    between atoms: C5_6  and  C7_9
ROOT
HETATM    1  C5  UNL     1     -17.993 -11.583  14.006  1.00  0.00     0.186 C
HETATM    2  C6  UNL     1     -17.616 -13.005  13.987  1.00  0.00     0.075 C
HETATM    3  N2  UNL     1     -17.338 -14.125  13.981  1.00  0.00    -0.196 NA
ENDROOT
BRANCH   1   4
HETATM    4  C4  UNL     1     -19.341 -11.447  14.563  1.00  0.00     0.050 A
HETATM    5  C3  UNL     1     -19.929 -12.302  15.463  1.00  0.00     0.115 A
HETATM    6  N1  UNL     1     -21.209 -12.105  15.918  1.00  0.00    -0.285 N
HETATM    7  C10 UNL     1     -21.904 -11.058  15.477  1.00  0.00     0.333 A
HETATM    8  N6  UNL     1     -21.362 -10.171  14.575  1.00  0.00    -0.275 N
HETATM    9  O4  UNL     1     -23.083 -10.826  15.861  1.00  0.00    -0.246 OA
HETATM   10  C9  UNL     1     -20.123 -10.379  14.146  1.00  0.00     0.258 A
ATOM     11  H6  UNL     1     -21.901  -9.371  14.242  1.00  0.00     0.173 HD
HETATM   12  O3  UNL     1     -19.609  -9.566  13.310  1.00  0.00    -0.267 OA
BRANCH   6  13
HETATM   13  C2  UNL     1     -21.712 -13.035  16.850  1.00  0.00     0.091 C
HETATM   14  C1  UNL     1     -21.556 -13.057  18.137  1.00  0.00     0.030 C
ENDBRANCH   6  13
ENDBRANCH   1   4
BRANCH   1  15
HETATM   15  C7  UNL     1     -16.957 -10.791  14.755  1.00  0.00     0.087 A
HETATM   16  N3  UNL     1     -17.270  -9.726  15.373  1.00  0.00    -0.266 N
HETATM   17  S1  UNL     1     -15.848  -9.101  16.101  1.00  0.00     0.324 S
ATOM     18  H3  UNL     1     -18.202  -9.316  15.427  1.00  0.00     0.180 HD
HETATM   19  O1  UNL     1     -15.940  -9.028  17.589  1.00  0.00    -0.182 OA
HETATM   20  O2  UNL     1     -15.414  -7.805  15.488  1.00  0.00    -0.182 OA
HETATM   21  N4  UNL     1     -14.761 -10.322  15.562  1.00  0.00    -0.251 N
HETATM   22  C8  UNL     1     -15.583 -11.200  14.803  1.00  0.00     0.135 A
ATOM     23  H4  UNL     1     -13.761 -10.398  15.743  1.00  0.00     0.182 HD
HETATM   24  N5  UNL     1     -15.046 -12.262  14.218  1.00  0.00    -0.383 N
ATOM     25  H52 UNL     1     -15.636 -12.893  13.674  1.00  0.00     0.157 HD
ATOM     26  H51 UNL     1     -14.069 -12.553  14.253  1.00  0.00     0.157 HD
ENDBRANCH   1  15
TORSDOF 3
ENDMDL