MODEL 4
REMARK VINA RESULT: -6.662014357      1.466      2.410
REMARK  4 active torsions:
REMARK  status: ('A' for Active; 'I' for Inactive)
REMARK    1  A    between atoms: N1_2  and  C2_4
REMARK    2  A    between atoms: N3_9  and  C4_10
REMARK    3  A    between atoms: C4_10  and  C5_11
REMARK    4  A    between atoms: C9_15  and  N4_16
ROOT
HETATM    1  C2  UNL     1     -22.949 -11.084  15.793  1.00  0.00     0.174 C
HETATM    2  N2  UNL     1     -21.902 -11.935  15.969  1.00  0.00    -0.290 N
ATOM      3  H2  UNL     1     -22.076 -12.735  16.577  1.00  0.00     0.172 HD
HETATM    4  C3  UNL     1     -20.661 -11.854  15.441  1.00  0.00     0.332 C
HETATM    5  O1  UNL     1     -19.788 -12.563  15.999  1.00  0.00    -0.246 OA
HETATM    6  N3  UNL     1     -20.219 -11.123  14.403  1.00  0.00    -0.247 N
HETATM    7  C11 UNL     1     -20.736  -9.961  13.925  1.00  0.00     0.333 C
HETATM    8  O4  UNL     1     -19.930  -9.188  13.326  1.00  0.00    -0.246 OA
HETATM    9  N5  UNL     1     -22.024  -9.588  14.046  1.00  0.00    -0.272 N
ATOM     10  H5  UNL     1     -22.293  -8.768  13.501  1.00  0.00     0.174 HD
HETATM   11  C12 UNL     1     -23.019 -10.144  14.787  1.00  0.00     0.293 C
HETATM   12  O5  UNL     1     -24.202  -9.744  14.522  1.00  0.00    -0.264 OA
ENDROOT
BRANCH   6  13
HETATM   13  C4  UNL     1     -19.053 -11.609  13.694  1.00  0.00     0.177 C
BRANCH  13  14
HETATM   14  C5  UNL     1     -17.778 -11.286  14.352  1.00  0.00    -0.037 A
HETATM   15  C6  UNL     1     -16.685 -12.098  14.259  1.00  0.00     0.009 A
HETATM   16  C7  UNL     1     -15.464 -11.827  14.867  1.00  0.00     0.003 A
HETATM   17  C8  UNL     1     -15.369 -10.665  15.600  1.00  0.00     0.036 A
HETATM   18  C9  UNL     1     -16.438  -9.800  15.733  1.00  0.00     0.103 A
HETATM   19  C10 UNL     1     -17.622 -10.123  15.109  1.00  0.00     0.045 A
BRANCH  18  20
HETATM   20  N4  UNL     1     -16.312  -8.608  16.497  1.00  0.00    -0.116 N
HETATM   21  O2  UNL     1     -17.329  -8.105  17.017  1.00  0.00    -0.532 OA
HETATM   22  O3  UNL     1     -15.075  -8.042  16.641  1.00  0.00    -0.532 OA
ENDBRANCH  18  20
ENDBRANCH  13  14
ENDBRANCH   6  13
BRANCH   1  23
HETATM   23  N1  UNL     1     -23.943 -11.158  16.619  1.00  0.00    -0.376 N
HETATM   24  C1  UNL     1     -23.718 -11.401  18.027  1.00  0.00     0.148 C
ATOM     25  H1  UNL     1     -24.895 -11.045  16.274  1.00  0.00     0.160 HD
ENDBRANCH   1  23
TORSDOF 4
ENDMDL