MODEL 5
REMARK VINA RESULT: -7.603417317      5.947      8.929
REMARK  3 active torsions:
REMARK  status: ('A' for Active; 'I' for Inactive)
REMARK    1  A    between atoms: C2_5  and  C3_6
REMARK    2  A    between atoms: C3_6  and  N3_7
REMARK    3  A    between atoms: C6_10  and  C7_11
ROOT
HETATM    1  N3  UNL     1     -22.241 -10.569  13.901  1.00  0.00    -0.361 N
HETATM    2  C4  UNL     1     -21.642 -11.692  14.363  1.00  0.00     0.091 A
HETATM    3  C5  UNL     1     -20.274 -11.800  14.391  1.00  0.00     0.029 A
HETATM    4  C6  UNL     1     -19.496 -10.755  13.946  1.00  0.00    -0.029 A
HETATM    5  C10 UNL     1     -20.147  -9.623  13.481  1.00  0.00     0.029 A
HETATM    6  C11 UNL     1     -21.519  -9.528  13.458  1.00  0.00     0.091 A
ENDROOT
BRANCH   1   7
HETATM    7  C3  UNL     1     -23.675 -10.505  13.891  1.00  0.00     0.184 C
BRANCH   7   8
HETATM    8  C2  UNL     1     -24.250  -9.721  12.799  1.00  0.00     0.035 A
HETATM    9  N2  UNL     1     -24.901  -8.585  12.967  1.00  0.00    -0.332 N
HETATM   10  C1  UNL     1     -25.425  -7.869  11.949  1.00  0.00     0.195 A
ATOM     11  H2  UNL     1     -25.014  -8.229  13.917  1.00  0.00     0.168 HD
HETATM   12  N1  UNL     1     -26.128  -6.641  12.160  1.00  0.00    -0.063 NA
HETATM   13  N6  UNL     1     -25.290  -8.319  10.677  1.00  0.00    -0.297 N
HETATM   14  C13 UNL     1     -24.637  -9.475  10.427  1.00  0.00     0.249 A
ATOM     15  H6  UNL     1     -25.685  -7.783   9.904  1.00  0.00     0.171 HD
HETATM   16  C12 UNL     1     -24.105 -10.194  11.491  1.00  0.00     0.101 A
HETATM   17  O3  UNL     1     -24.522  -9.876   9.246  1.00  0.00    -0.268 OA
ENDBRANCH   7   8
ENDBRANCH   1   7
BRANCH   4  18
HETATM   18  C7  UNL     1     -18.045 -10.878  13.993  1.00  0.00     0.069 C
HETATM   19  C8  UNL     1     -17.370 -10.110  14.857  1.00  0.00     0.168 A
HETATM   20  N4  UNL     1     -15.936 -10.118  15.022  1.00  0.00    -0.275 N
HETATM   21  O2  UNL     1     -17.847  -9.181  15.743  1.00  0.00    -0.241 OA
HETATM   22  N5  UNL     1     -15.586  -9.179  16.019  1.00  0.00    -0.243 N
ATOM     23  H4  UNL     1     -15.282 -10.706  14.505  1.00  0.00     0.189 HD
HETATM   24  C9  UNL     1     -16.808  -8.607  16.453  1.00  0.00     0.386 A
ATOM     25  H5  UNL     1     -14.649  -8.959  16.356  1.00  0.00     0.192 HD
HETATM   26  O1  UNL     1     -16.874  -7.715  17.349  1.00  0.00    -0.236 OA
ENDBRANCH   4  18
TORSDOF 3
ENDMDL