MODEL 4
REMARK VINA RESULT: -6.105137749      3.090      6.740
REMARK  4 active torsions:
REMARK  status: ('A' for Active; 'I' for Inactive)
REMARK    1  A    between atoms: N1_1  and  C1_4
REMARK    2  A    between atoms: C3_9  and  C4_10
REMARK    3  A    between atoms: N5_23  and  C10_24
REMARK    4  A    between atoms: C10_24  and  C11_25
ROOT
HETATM    1  C1  UNL     1     -24.148 -11.029  12.923  1.00  0.00     0.681 A
HETATM    2  N2  UNL     1     -23.704 -11.572  14.056  1.00  0.00    -0.155 N
ATOM      3  H2  UNL     1     -24.360 -11.669  14.832  1.00  0.00     0.187 HD
HETATM    4  C2  UNL     1     -22.461 -11.994  14.234  1.00  0.00     0.271 A
HETATM    5  O1  UNL     1     -22.105 -12.501  15.340  1.00  0.00    -0.267 OA
HETATM    6  C3  UNL     1     -21.552 -11.868  13.173  1.00  0.00     0.050 A
HETATM    7  C9  UNL     1     -21.993 -11.311  11.999  1.00  0.00     0.126 A
HETATM    8  N5  UNL     1     -23.266 -10.911  11.907  1.00  0.00    -0.186 N
ENDROOT
BRANCH   6   9
HETATM    9  C4  UNL     1     -20.228 -12.407  13.403  1.00  0.00     0.041 C
HETATM   10  C5  UNL     1     -19.180 -11.807  13.898  1.00  0.00     0.101 A
HETATM   11  C6  UNL     1     -19.076 -10.443  14.352  1.00  0.00     0.263 A
HETATM   12  C8  UNL     1     -17.926 -12.598  13.975  1.00  0.00     0.263 A
HETATM   13  O2  UNL     1     -20.060  -9.684  14.341  1.00  0.00    -0.267 OA
HETATM   14  N3  UNL     1     -17.841  -9.926  14.833  1.00  0.00    -0.299 N
HETATM   15  C7  UNL     1     -16.657 -10.683  14.902  1.00  0.00     0.181 A
ATOM     16  H3  UNL     1     -17.811  -8.955  15.144  1.00  0.00     0.171 HD
HETATM   17  S1  UNL     1     -15.262 -10.056  15.458  1.00  0.00    -0.040 SA
HETATM   18  N4  UNL     1     -16.708 -12.035  14.465  1.00  0.00    -0.299 N
ATOM     19  H4  UNL     1     -15.866 -12.609  14.503  1.00  0.00     0.171 HD
HETATM   20  O3  UNL     1     -17.951 -13.796  13.594  1.00  0.00    -0.267 OA
ENDBRANCH   6   9
BRANCH   8  21
HETATM   21  C10 UNL     1     -23.705 -10.327  10.660  1.00  0.00     0.216 C
BRANCH  21  22
HETATM   22  C11 UNL     1     -23.512 -11.340   9.581  1.00  0.00     0.251 C
HETATM   23  O4  UNL     1     -23.888 -11.100   8.442  1.00  0.00    -0.305 OA
ENDBRANCH  21  22
ENDBRANCH   8  21
BRANCH   1  24
HETATM   24  N1  UNL     1     -25.356 -10.613  12.739  1.00  0.00    -0.234 N
ATOM     25  H12 UNL     1     -25.574 -10.124  11.871  1.00  0.00     0.174 HD
ATOM     26  H11 UNL     1     -26.116 -10.742  13.406  1.00  0.00     0.174 HD
ENDBRANCH   1  24
TORSDOF 4
ENDMDL