MODEL 1
REMARK VINA RESULT: -8.385471985      0.000      0.000
REMARK  12 active torsions:
REMARK  status: ('A' for Active; 'I' for Inactive)
REMARK    1  A    between atoms: C2_2  and  N1_4
REMARK    2  A    between atoms: C2_2  and  C16_47
REMARK    3  A    between atoms: N1_4  and  C4_6
REMARK    4  A    between atoms: C4_6  and  O1_7
REMARK    5  A    between atoms: C4_6  and  C5_9
REMARK    6  A    between atoms: C5_9  and  C6_11
REMARK    7  A    between atoms: C7_17  and  N4_18
REMARK    8  A    between atoms: N4_18  and  C8_20
REMARK    9  A    between atoms: C8_20  and  N5_21
REMARK   10  A    between atoms: N5_21  and  C9_23
REMARK   11  A    between atoms: N8_28  and  N9_29
REMARK   12  A    between atoms: C13_37  and  N12_38
ROOT
HETATM    1  N5  UNL     1      -7.048 -37.021  24.013  1.00  0.00    -0.208 N
ATOM      2  H5  UNL     1      -6.792 -36.206  24.570  1.00  0.00     0.179 HD
ENDROOT
BRANCH   1   3
HETATM    3  C8  UNL     1      -6.012 -37.982  23.713  1.00  0.00     0.263 C
BRANCH   3   4
HETATM    4  N4  UNL     1      -4.849 -37.304  23.121  1.00  0.00    -0.356 N
ATOM      5  H4  UNL     1      -4.421 -36.519  23.613  1.00  0.00     0.162 HD
BRANCH   4   6
HETATM    6  C7  UNL     1      -4.318 -37.720  21.888  1.00  0.00     0.157 A
HETATM    7  C6  UNL     1      -3.874 -36.962  20.845  1.00  0.00     0.152 A
HETATM    8  N2  UNL     1      -3.449 -37.868  19.913  1.00  0.00    -0.234 N
HETATM    9  O3  UNL     1      -3.624 -39.076  20.359  1.00  0.00    -0.155 OA
ATOM     10  H2  UNL     1      -3.054 -37.631  19.003  1.00  0.00     0.197 HD
HETATM   11  N3  UNL     1      -4.151 -39.020  21.559  1.00  0.00    -0.223 N
ATOM     12  H3  UNL     1      -4.393 -39.820  22.143  1.00  0.00     0.198 HD
BRANCH   7  13
HETATM   13  C5  UNL     1      -3.868 -35.535  20.723  1.00  0.00     0.229 C
HETATM   14  O2  UNL     1      -4.641 -34.806  21.369  1.00  0.00    -0.286 OA
BRANCH  13  15
HETATM   15  C4  UNL     1      -2.897 -34.844  19.773  1.00  0.00     0.292 C
BRANCH  15  16
HETATM   16  N1  UNL     1      -1.760 -34.557  20.572  1.00  0.00    -0.373 N
ATOM     17  H1  UNL     1      -1.855 -33.925  21.367  1.00  0.00     0.157 HD
BRANCH  16  18
HETATM   18  C2  UNL     1      -0.512 -35.125  20.292  1.00  0.00     0.110 C
HETATM   19  C1  UNL     1       0.182 -35.767  21.479  1.00  0.00     0.050 C
HETATM   20  C3  UNL     1       0.427 -33.896  19.979  1.00  0.00     0.050 C
BRANCH  18  21
HETATM   21  C16 UNL     1      -0.377 -35.999  19.122  1.00  0.00     0.201 C
HETATM   22  O4  UNL     1      -0.663 -37.208  19.164  1.00  0.00    -0.646 OA
HETATM   23  O5  UNL     1       0.082 -35.526  17.882  1.00  0.00    -0.646 OA
ENDBRANCH  18  21
ENDBRANCH  16  18
ENDBRANCH  15  16
BRANCH  15  24
HETATM   24  O1  UNL     1      -3.553 -33.739  19.272  1.00  0.00    -0.369 OA
ATOM     25  H1  UNL     1      -4.500 -33.765  19.347  1.00  0.00     0.212 HD
ENDBRANCH  15  24
ENDBRANCH  13  15
ENDBRANCH   7  13
ENDBRANCH   4   6
ENDBRANCH   3   4
ENDBRANCH   1   3
BRANCH   1  26
HETATM   26  C9  UNL     1      -8.388 -37.129  23.590  1.00  0.00     0.710 C
HETATM   27  N6  UNL     1      -9.439 -36.627  24.195  1.00  0.00    -0.208 N
HETATM   28  C10 UNL     1     -10.625 -36.984  23.403  1.00  0.00     0.277 C
ATOM     29  H6  UNL     1      -9.435 -36.086  25.060  1.00  0.00     0.179 HD
HETATM   30  N7  UNL     1     -10.193 -38.230  22.729  1.00  0.00    -0.081 NA
HETATM   31  N8  UNL     1      -8.856 -37.803  22.438  1.00  0.00    -0.001 N
BRANCH  31  32
HETATM   32  N9  UNL     1      -8.159 -37.988  21.247  1.00  0.00    -0.034 N
HETATM   33  C11 UNL     1      -7.515 -37.112  20.459  1.00  0.00     0.701 A
HETATM   34  N10 UNL     1      -7.442 -35.846  20.681  1.00  0.00    -0.233 N
HETATM   35  N11 UNL     1      -6.960 -37.748  19.398  1.00  0.00    -0.183 N
ATOM     36 2H10 UNL     1      -7.860 -35.368  21.478  1.00  0.00     0.174 HD
ATOM     37 1H10 UNL     1      -6.953 -35.181  20.082  1.00  0.00     0.174 HD
HETATM   38  C12 UNL     1      -7.242 -39.067  19.486  1.00  0.00     0.139 A
ATOM     39  H11 UNL     1      -6.418 -37.304  18.656  1.00  0.00     0.184 HD
HETATM   40  C13 UNL     1      -6.909 -40.136  18.669  1.00  0.00     0.131 A
HETATM   41  C15 UNL     1      -7.984 -39.199  20.635  1.00  0.00     0.180 A
HETATM   42  N13 UNL     1      -7.356 -41.366  19.050  1.00  0.00    -0.337 N
HETATM   43  C14 UNL     1      -8.087 -41.493  20.181  1.00  0.00     0.183 A
ATOM     44  H13 UNL     1      -7.141 -42.188  18.485  1.00  0.00     0.168 HD
HETATM   45  N14 UNL     1      -8.404 -40.436  20.972  1.00  0.00    -0.335 N
ATOM     46  H14 UNL     1      -8.957 -40.577  21.818  1.00  0.00     0.168 HD
BRANCH  40  47
HETATM   47  N12 UNL     1      -6.223 -40.022  17.594  1.00  0.00    -0.383 N
ATOM     48 2H12 UNL     1      -5.224 -40.229  17.614  1.00  0.00     0.157 HD
ATOM     49 1H12 UNL     1      -6.618 -39.736  16.698  1.00  0.00     0.157 HD
ENDBRANCH  40  47
ENDBRANCH  31  32
ENDBRANCH   1  26
TORSDOF 12
ENDMDL