MODEL 4
REMARK VINA RESULT: -6.904543118      1.752      2.148
REMARK  16 active torsions:
REMARK  status: ('A' for Active; 'I' for Inactive)
REMARK    1  A    between atoms: C4_13  and  N6_14
REMARK    2  A    between atoms: N7_17  and  N8_18
REMARK    3  A    between atoms: N8_18  and  C5_20
REMARK    4  A    between atoms: C6_22  and  N9_23
REMARK    5  A    between atoms: C7_27  and  N10_28
REMARK    6  A    between atoms: C8_32  and  C9_33
REMARK    7  A    between atoms: C9_33  and  N11_34
REMARK    8  A    between atoms: C10_39  and  N13_40
REMARK    9  A    between atoms: N13_40  and  C11_41
REMARK   10  A    between atoms: C11_41  and  C12_42
REMARK   11  A    between atoms: C12_42  and  C13_43
REMARK   12  A    between atoms: C13_43  and  C14_44
REMARK   13  A    between atoms: C14_44  and  N14_45
REMARK   14  A    between atoms: C14_44  and  C15_49
REMARK   15  A    between atoms: C15_49  and  O1_50
REMARK   16  A    between atoms: C15_49  and  O2_52
ROOT
HETATM    1  C1  UNL     1      -5.013 -35.263  21.781  1.00  0.00     0.179 C
HETATM    2  N1  UNL     1      -6.378 -35.649  21.537  1.00  0.00    -0.274 N
HETATM    3  N2  UNL     1      -7.435 -34.811  21.622  1.00  0.00    -0.239 N
ATOM      4  H2  UNL     1      -7.378 -33.823  21.870  1.00  0.00     0.208 HD
HETATM    5  N3  UNL     1      -8.531 -35.443  21.342  1.00  0.00    -0.268 N
ATOM      6  H3  UNL     1      -9.467 -35.037  21.335  1.00  0.00     0.190 HD
HETATM    7  C2  UNL     1      -8.224 -36.745  21.057  1.00  0.00     0.170 A
HETATM    8  N4  UNL     1      -8.967 -37.786  20.715  1.00  0.00    -0.170 N
ATOM      9  H4  UNL     1      -9.977 -37.672  20.629  1.00  0.00     0.186 HD
HETATM   10  C3  UNL     1      -8.409 -39.007  20.475  1.00  0.00     0.724 A
HETATM   11  N5  UNL     1      -9.014 -40.144  20.144  1.00  0.00    -0.017 N
ATOM     12  H5  UNL     1     -10.015 -40.280  20.005  1.00  0.00     0.203 HD
HETATM   13  C4  UNL     1      -8.036 -41.101  20.027  1.00  0.00     0.728 A
HETATM   14  N7  UNL     1      -6.864 -40.476  20.299  1.00  0.00     0.005 N
HETATM   15  N12 UNL     1      -7.099 -39.167  20.583  1.00  0.00    -0.017 N
HETATM   16  C10 UNL     1      -6.266 -38.120  20.941  1.00  0.00     0.251 A
HETATM   17  C16 UNL     1      -6.872 -36.847  21.187  1.00  0.00     0.158 A
ENDROOT
BRANCH  14  18
HETATM   18  N8  UNL     1      -5.624 -41.062  20.355  1.00  0.00    -0.261 N
ATOM     19  H8  UNL     1      -4.898 -40.455  19.975  1.00  0.00     0.190 HD
BRANCH  18  20
HETATM   20  C5  UNL     1      -5.110 -42.270  20.797  1.00  0.00     0.074 C
HETATM   21  S1  UNL     1      -5.699 -42.947  22.367  1.00  0.00    -0.080 SA
HETATM   22  C6  UNL     1      -5.379 -44.717  21.993  1.00  0.00     0.281 C
HETATM   23  C7  UNL     1      -4.499 -44.608  20.812  1.00  0.00     0.236 C
HETATM   24  C8  UNL     1      -4.849 -43.429  19.958  1.00  0.00     0.103 C
BRANCH  22  25
HETATM   25  N9  UNL     1      -6.571 -45.481  21.839  1.00  0.00    -0.064 N
ATOM     26  H93 UNL     1      -6.868 -45.498  20.864  1.00  0.00     0.275 HD
ATOM     27  H92 UNL     1      -6.386 -46.475  21.975  1.00  0.00     0.275 HD
ATOM     28  H91 UNL     1      -7.330 -45.166  22.445  1.00  0.00     0.275 HD
ENDBRANCH  22  25
BRANCH  23  29
HETATM   29  N10 UNL     1      -3.122 -44.425  21.299  1.00  0.00    -0.071 N
ATOM     30 3H10 UNL     1      -2.499 -44.031  20.594  1.00  0.00     0.274 HD
ATOM     31 2H10 UNL     1      -3.040 -43.674  21.984  1.00  0.00     0.274 HD
ATOM     32 1H10 UNL     1      -2.801 -45.325  21.656  1.00  0.00     0.274 HD
ENDBRANCH  23  29
BRANCH  24  33
HETATM   33  C9  UNL     1      -5.795 -43.858  18.905  1.00  0.00     0.243 C
BRANCH  33  34
HETATM   34  N11 UNL     1      -5.433 -43.251  17.614  1.00  0.00    -0.079 N
ATOM     35 3H11 UNL     1      -5.002 -42.335  17.732  1.00  0.00     0.274 HD
ATOM     36 2H11 UNL     1      -4.648 -43.732  17.175  1.00  0.00     0.274 HD
ATOM     37 1H11 UNL     1      -6.247 -43.213  16.999  1.00  0.00     0.274 HD
ENDBRANCH  33  34
ENDBRANCH  24  33
ENDBRANCH  18  20
ENDBRANCH  14  18
BRANCH  13  38
HETATM   38  N6  UNL     1      -8.334 -42.283  19.701  1.00  0.00    -0.231 N
ATOM     39  H62 UNL     1      -8.988 -42.682  19.027  1.00  0.00     0.174 HD
ATOM     40  H61 UNL     1      -7.891 -43.075  20.167  1.00  0.00     0.174 HD
ENDBRANCH  13  38
BRANCH  16  41
HETATM   41  N13 UNL     1      -5.105 -38.204  21.133  1.00  0.00    -0.399 NA
BRANCH  41  42
HETATM   42  C11 UNL     1      -3.783 -38.296  21.357  1.00  0.00     0.158 C
BRANCH  42  43
HETATM   43  C12 UNL     1      -2.857 -38.176  20.168  1.00  0.00     0.062 C
BRANCH  43  44
HETATM   44  C13 UNL     1      -2.312 -36.840  19.909  1.00  0.00     0.044 C
BRANCH  44  45
HETATM   45  C14 UNL     1      -0.865 -36.578  19.938  1.00  0.00     0.238 C
BRANCH  45  46
HETATM   46  N14 UNL     1       0.052 -37.623  19.716  1.00  0.00    -0.070 N
ATOM     47 3H14 UNL     1      -0.085 -38.329  20.440  1.00  0.00     0.274 HD
ATOM     48 2H14 UNL     1      -0.235 -38.129  18.879  1.00  0.00     0.274 HD
ATOM     49 1H14 UNL     1       1.050 -37.427  19.646  1.00  0.00     0.274 HD
ENDBRANCH  45  46
BRANCH  45  50
HETATM   50  C15 UNL     1      -0.572 -35.507  18.858  1.00  0.00     0.284 C
BRANCH  50  51
HETATM   51  O1  UNL     1      -1.791 -35.151  18.311  1.00  0.00    -0.369 OA
ATOM     52  H1  UNL     1      -1.682 -34.281  17.946  1.00  0.00     0.212 HD
ENDBRANCH  50  51
BRANCH  50  53
HETATM   53  O2  UNL     1       0.318 -35.984  17.920  1.00  0.00    -0.369 OA
ATOM     54  H2  UNL     1      -0.016 -36.768  17.502  1.00  0.00     0.212 HD
ENDBRANCH  50  53
ENDBRANCH  45  50
ENDBRANCH  44  45
ENDBRANCH  43  44
ENDBRANCH  42  43
ENDBRANCH  41  42
ENDBRANCH  16  41
TORSDOF 16
ENDMDL