MODEL 1
REMARK VINA RESULT: -7.936102264      0.000      0.000
REMARK  13 active torsions:
REMARK  status: ('A' for Active; 'I' for Inactive)
REMARK    1  A    between atoms: N1_2  and  C2_5
REMARK    2  A    between atoms: C2_5  and  N2_6
REMARK    3  A    between atoms: C2_5  and  C4_10
REMARK    4  A    between atoms: N2_6  and  C3_8
REMARK    5  A    between atoms: C4_10  and  O2_11
REMARK    6  A    between atoms: C4_10  and  C5_13
REMARK       I    between atoms: C5_13  and  N3_15
REMARK    7  A    between atoms: N3_15  and  C6_17
REMARK    8  A    between atoms: C7_18  and  N4_19
REMARK    9  A    between atoms: C9_24  and  N5_25
REMARK   10  A    between atoms: N5_25  and  C10_27
REMARK   11  A    between atoms: C12_30  and  N7_31
REMARK   12  A    between atoms: C13_36  and  N9_37
REMARK   13  A    between atoms: C19_48  and  O5_49
ROOT
HETATM    1  C6  UNL     1      -5.333 -38.826  20.514  1.00  0.00     0.170 C
HETATM    2  C7  UNL     1      -5.403 -40.334  20.287  1.00  0.00     0.215 C
HETATM    3  C8  UNL     1      -6.826 -40.733  20.725  1.00  0.00     0.088 C
HETATM    4  C9  UNL     1      -7.798 -40.211  19.705  1.00  0.00     0.227 C
HETATM    5  O4  UNL     1      -7.308 -39.004  19.140  1.00  0.00    -0.335 OA
HETATM    6  C19 UNL     1      -6.630 -38.247  20.085  1.00  0.00     0.284 C
ENDROOT
BRANCH   4   7
HETATM    7  N5  UNL     1      -9.140 -40.041  20.175  1.00  0.00    -0.347 N
ATOM      8  H5  UNL     1      -9.801 -39.745  19.457  1.00  0.00     0.163 HD
BRANCH   7   9
HETATM    9  C10 UNL     1      -9.705 -40.208  21.441  1.00  0.00     0.149 A
HETATM   10  C11 UNL     1      -9.995 -41.399  22.065  1.00  0.00     0.134 A
HETATM   11  N6  UNL     1      -9.827 -42.632  21.425  1.00  0.00    -0.094 NA
HETATM   12  C12 UNL     1     -10.518 -41.421  23.362  1.00  0.00     0.143 A
HETATM   13  N8  UNL     1     -10.738 -40.271  24.003  1.00  0.00    -0.175 N
HETATM   14  C13 UNL     1     -10.460 -39.074  23.406  1.00  0.00     0.685 A
ATOM     15  H8  UNL     1     -11.118 -40.286  24.950  1.00  0.00     0.186 HD
HETATM   16  N11 UNL     1      -9.963 -39.072  22.171  1.00  0.00    -0.171 N
HETATM   17  C18 UNL     1      -9.668 -37.771  21.559  1.00  0.00     0.177 C
BRANCH  12  18
HETATM   18  N7  UNL     1     -10.766 -42.570  23.880  1.00  0.00    -0.383 N
ATOM     19  H72 UNL     1     -10.767 -43.435  23.340  1.00  0.00     0.157 HD
ATOM     20  H71 UNL     1     -10.968 -42.600  24.878  1.00  0.00     0.157 HD
ENDBRANCH  12  18
BRANCH  14  21
HETATM   21  N9  UNL     1     -10.742 -37.913  24.186  1.00  0.00    -0.214 N
HETATM   22  C14 UNL     1     -12.091 -37.398  24.123  1.00  0.00     0.168 C
HETATM   23  C15 UNL     1     -12.079 -35.914  24.060  1.00  0.00     0.252 C
HETATM   24  N10 UNL     1     -11.299 -35.302  25.113  1.00  0.00    -0.072 N
HETATM   25  C16 UNL     1      -9.961 -35.789  25.177  1.00  0.00     0.252 C
ATOM     26 2H10 UNL     1     -11.312 -34.286  25.030  1.00  0.00     0.277 HD
ATOM     27 1H10 UNL     1     -11.765 -35.403  26.015  1.00  0.00     0.277 HD
HETATM   28  C17 UNL     1      -9.780 -37.253  25.028  1.00  0.00     0.168 C
ENDBRANCH  14  21
ENDBRANCH   7   9
ENDBRANCH   4   7
BRANCH   2  29
HETATM   29  N4  UNL     1      -4.491 -40.982  21.178  1.00  0.00    -0.073 N
ATOM     30  H43 UNL     1      -4.430 -41.986  21.007  1.00  0.00     0.274 HD
ATOM     31  H42 UNL     1      -3.519 -40.744  20.980  1.00  0.00     0.274 HD
ATOM     32  H41 UNL     1      -4.755 -40.767  22.139  1.00  0.00     0.274 HD
ENDBRANCH   2  29
BRANCH   6  33
HETATM   33  O5  UNL     1      -6.409 -36.990  19.482  1.00  0.00    -0.369 OA
ATOM     34  H5  UNL     1      -5.731 -37.070  18.822  1.00  0.00     0.212 HD
ENDBRANCH   6  33
BRANCH   1  35
HETATM   35  N3  UNL     1      -4.162 -38.261  19.876  1.00  0.00    -0.347 N
HETATM   36  C5  UNL     1      -2.956 -37.983  20.563  1.00  0.00     0.250 C
HETATM   37  O3  UNL     1      -2.811 -38.209  21.801  1.00  0.00    -0.271 OA
ATOM     38  H3  UNL     1      -4.209 -38.053  18.879  1.00  0.00     0.163 HD
BRANCH  36  39
HETATM   39  C4  UNL     1      -1.780 -37.407  19.866  1.00  0.00     0.260 C
BRANCH  39  40
HETATM   40  C2  UNL     1      -1.546 -35.955  20.184  1.00  0.00     0.323 C
BRANCH  40  41
HETATM   41  N1  UNL     1      -2.506 -35.119  19.469  1.00  0.00    -0.055 N
HETATM   42  C1  UNL     1      -3.201 -34.201  20.324  1.00  0.00     0.269 C
ATOM     43  H12 UNL     1      -3.163 -35.693  18.941  1.00  0.00     0.279 HD
ATOM     44  H11 UNL     1      -2.055 -34.627  18.698  1.00  0.00     0.279 HD
ENDBRANCH  40  41
BRANCH  40  45
HETATM   45  N2  UNL     1      -0.225 -35.547  19.678  1.00  0.00    -0.338 N
ATOM     46  H2  UNL     1       0.577 -35.525  20.309  1.00  0.00     0.164 HD
BRANCH  45  47
HETATM   47  C3  UNL     1      -0.079 -35.217  18.440  1.00  0.00     0.350 C
HETATM   48  O1  UNL     1      -0.107 -35.200  17.190  1.00  0.00    -0.284 OA
ENDBRANCH  45  47
ENDBRANCH  40  45
ENDBRANCH  39  40
BRANCH  39  49
HETATM   49  O2  UNL     1      -1.976 -37.545  18.505  1.00  0.00    -0.382 OA
ATOM     50  H2  UNL     1      -2.813 -37.162  18.272  1.00  0.00     0.210 HD
ENDBRANCH  39  49
ENDBRANCH  36  39
ENDBRANCH   1  35
TORSDOF 13
ENDMDL