MODEL 5
REMARK VINA RESULT: -7.911644742      5.629     10.491
REMARK  11 active torsions:
REMARK  status: ('A' for Active; 'I' for Inactive)
REMARK    1  A    between atoms: N1_1  and  C1_4
REMARK    2  A    between atoms: C3_8  and  N3_9
REMARK    3  A    between atoms: N5_14  and  O1_15
REMARK    4  A    between atoms: O1_15  and  C4_16
REMARK    5  A    between atoms: C6_21  and  C7_22
REMARK    6  A    between atoms: C7_22  and  N7_23
REMARK    7  A    between atoms: C9_29  and  N10_30
REMARK    8  A    between atoms: C14_46  and  N15_47
REMARK    9  A    between atoms: N15_47  and  C15_49
REMARK   10  A    between atoms: C15_49  and  C16_50
REMARK   11  A    between atoms: C16_50  and  O3_51
ROOT
HETATM    1  C4  UNL     1      -7.141 -39.847  19.899  1.00  0.00     0.293 C
HETATM    2  C5  UNL     1      -7.250 -39.490  21.361  1.00  0.00     0.292 C
HETATM    3  N6  UNL     1      -6.666 -38.207  21.681  1.00  0.00    -0.047 N
ATOM      4  H61 UNL     1      -6.253 -38.180  22.613  1.00  0.00     0.279 HD
ATOM      5  H62 UNL     1      -7.364 -37.477  21.822  1.00  0.00     0.279 HD
HETATM    6  C6  UNL     1      -5.724 -37.886  20.644  1.00  0.00     0.318 C
HETATM    7  N13 UNL     1      -6.505 -37.698  19.442  1.00  0.00    -0.306 N
ATOM      8  H13 UNL     1      -6.488 -36.823  18.918  1.00  0.00     0.182 HD
HETATM    9  N14 UNL     1      -7.197 -38.666  19.084  1.00  0.00    -0.306 N
ATOM     10  H14 UNL     1      -7.780 -38.623  18.248  1.00  0.00     0.183 HD
ENDROOT
BRANCH   1  11
HETATM   11  O1  UNL     1      -8.086 -40.804  19.531  1.00  0.00    -0.226 OA
BRANCH  11  12
HETATM   12  N5  UNL     1      -7.708 -42.011  19.014  1.00  0.00    -0.116 N
HETATM   13  N4  UNL     1      -6.913 -42.056  17.965  1.00  0.00    -0.254 N
HETATM   14  C3  UNL     1      -6.517 -43.218  17.426  1.00  0.00     0.144 A
ATOM     15  H4  UNL     1      -6.590 -41.182  17.551  1.00  0.00     0.191 HD
HETATM   16  C2  UNL     1      -6.996 -44.384  18.041  1.00  0.00     0.113 A
HETATM   17  N2  UNL     1      -6.617 -45.567  17.534  1.00  0.00    -0.187 N
HETATM   18  C13 UNL     1      -7.833 -44.346  19.147  1.00  0.00     0.111 A
HETATM   19  C1  UNL     1      -7.049 -46.703  18.096  1.00  0.00     0.678 A
ATOM     20  H2  UNL     1      -6.001 -45.601  16.722  1.00  0.00     0.184 HD
HETATM   21  N16 UNL     1      -7.858 -46.686  19.161  1.00  0.00    -0.176 N
HETATM   22  C14 UNL     1      -8.279 -45.532  19.725  1.00  0.00     0.135 A
ATOM     23  H16 UNL     1      -8.166 -47.571  19.560  1.00  0.00     0.186 HD
HETATM   24  C12 UNL     1      -8.191 -43.123  19.637  1.00  0.00     0.303 A
HETATM   25  O2  UNL     1      -8.939 -42.990  20.628  1.00  0.00    -0.263 OA
BRANCH  14  26
HETATM   26  N3  UNL     1      -5.743 -43.302  16.403  1.00  0.00    -0.382 N
ATOM     27  H32 UNL     1      -6.068 -43.530  15.463  1.00  0.00     0.157 HD
ATOM     28  H31 UNL     1      -4.741 -43.138  16.505  1.00  0.00     0.157 HD
ENDBRANCH  14  26
BRANCH  19  29
HETATM   29  N1  UNL     1      -6.669 -47.856  17.588  1.00  0.00    -0.234 N
ATOM     30  H12 UNL     1      -7.360 -48.591  17.434  1.00  0.00     0.174 HD
ATOM     31  H11 UNL     1      -5.686 -47.999  17.355  1.00  0.00     0.174 HD
ENDBRANCH  19  29
BRANCH  22  32
HETATM   32  N15 UNL     1      -9.178 -45.558  20.816  1.00  0.00    -0.373 N
ATOM     33  H15 UNL     1      -8.863 -45.193  21.716  1.00  0.00     0.161 HD
BRANCH  32  34
HETATM   34  C15 UNL     1     -10.544 -46.085  20.713  1.00  0.00     0.147 C
BRANCH  34  35
HETATM   35  C16 UNL     1     -11.382 -45.413  19.689  1.00  0.00     0.183 C
BRANCH  35  36
HETATM   36  O3  UNL     1     -11.731 -44.114  19.882  1.00  0.00    -0.399 OA
ATOM     37  H3  UNL     1     -12.211 -43.665  19.197  1.00  0.00     0.209 HD
ENDBRANCH  35  36
ENDBRANCH  34  35
ENDBRANCH  32  34
ENDBRANCH  22  32
ENDBRANCH  11  12
ENDBRANCH   1  11
BRANCH   6  38
HETATM   38  C7  UNL     1      -4.905 -36.658  20.972  1.00  0.00     0.208 C
BRANCH  38  39
HETATM   39  N7  UNL     1      -3.642 -36.681  20.247  1.00  0.00    -0.256 N
HETATM   40  N8  UNL     1      -3.030 -37.692  19.682  1.00  0.00    -0.238 N
HETATM   41  N9  UNL     1      -1.915 -37.236  19.144  1.00  0.00    -0.279 N
ATOM     42  H8  UNL     1      -3.357 -38.658  19.661  1.00  0.00     0.208 HD
HETATM   43  C8  UNL     1      -1.792 -35.921  19.355  1.00  0.00     0.139 A
ATOM     44  H9  UNL     1      -1.239 -37.808  18.638  1.00  0.00     0.189 HD
HETATM   45  C9  UNL     1      -0.870 -34.949  19.036  1.00  0.00     0.132 A
HETATM   46  C11 UNL     1      -2.915 -35.567  20.071  1.00  0.00     0.157 A
HETATM   47  N11 UNL     1      -1.118 -33.687  19.447  1.00  0.00    -0.337 N
HETATM   48  C10 UNL     1      -2.197 -33.331  20.138  1.00  0.00     0.183 A
ATOM     49  H11 UNL     1      -0.438 -32.964  19.213  1.00  0.00     0.168 HD
HETATM   50  N12 UNL     1      -3.093 -34.270  20.448  1.00  0.00    -0.335 N
ATOM     51  H12 UNL     1      -3.926 -34.012  20.978  1.00  0.00     0.168 HD
BRANCH  45  52
HETATM   52  N10 UNL     1       0.166 -35.282  18.373  1.00  0.00    -0.383 N
ATOM     53 2H10 UNL     1       0.169 -36.014  17.662  1.00  0.00     0.157 HD
ATOM     54 1H10 UNL     1       1.044 -34.796  18.559  1.00  0.00     0.157 HD
ENDBRANCH  45  52
ENDBRANCH  38  39
ENDBRANCH   6  38
TORSDOF 11
ENDMDL