MODEL 2
REMARK VINA RESULT: -8.452542092      2.168      2.862
REMARK  13 active torsions:
REMARK  status: ('A' for Active; 'I' for Inactive)
REMARK    1  A    between atoms: N1_1  and  C1_4
REMARK    2  A    between atoms: C2_7  and  N3_8
REMARK    3  A    between atoms: N3_8  and  N4_9
REMARK    4  A    between atoms: N3_8  and  C3_12
REMARK    5  A    between atoms: C4_13  and  C5_14
REMARK    6  A    between atoms: C5_14  and  O1_15
REMARK    7  A    between atoms: C7_19  and  C8_20
REMARK    8  A    between atoms: C8_20  and  S2_21
REMARK    9  A    between atoms: S2_21  and  C9_22
REMARK   10  A    between atoms: N8_31  and  N9_32
REMARK   11  A    between atoms: C11_36  and  O3_37
REMARK   12  A    between atoms: C11_36  and  C12_39
REMARK   13  A    between atoms: C13_42  and  N10_43
ROOT
HETATM    1  C3  UNL     1      -5.127 -37.368  20.988  1.00  0.00     0.167 C
HETATM    2  C4  UNL     1      -5.038 -36.823  22.337  1.00  0.00     0.057 C
HETATM    3  C6  UNL     1      -6.275 -36.108  22.847  1.00  0.00     0.132 C
HETATM    4  S1  UNL     1      -7.635 -37.371  22.803  1.00  0.00    -0.117 SA
HETATM    5  C7  UNL     1      -7.578 -37.211  20.948  1.00  0.00     0.152 C
HETATM    6  O2  UNL     1      -7.150 -35.955  20.685  1.00  0.00    -0.320 OA
HETATM    7  C11 UNL     1      -6.905 -35.231  21.806  1.00  0.00     0.268 C
HETATM    8  C13 UNL     1      -6.403 -38.137  20.647  1.00  0.00     0.255 C
ENDROOT
BRANCH   5   9
HETATM    9  C8  UNL     1      -8.852 -37.661  20.356  1.00  0.00     0.134 C
BRANCH   9  10
HETATM   10  S2  UNL     1      -9.725 -38.741  21.475  1.00  0.00    -0.086 SA
BRANCH  10  11
HETATM   11  C9  UNL     1      -9.401 -40.458  21.184  1.00  0.00     0.198 A
HETATM   12  N5  UNL     1      -8.748 -40.974  20.143  1.00  0.00    -0.263 N
HETATM   13  N6  UNL     1      -8.715 -42.287  20.271  1.00  0.00    -0.129 N
ATOM     14  H5  UNL     1      -8.341 -40.442  19.374  1.00  0.00     0.189 HD
HETATM   15  C10 UNL     1      -9.360 -42.658  21.420  1.00  0.00     0.713 A
ATOM     16  H6  UNL     1      -8.276 -42.930  19.612  1.00  0.00     0.205 HD
HETATM   17  N7  UNL     1      -9.528 -43.850  21.878  1.00  0.00    -0.231 N
HETATM   18  N8  UNL     1      -9.775 -41.491  21.965  1.00  0.00    -0.068 N
ATOM     19  H72 UNL     1      -9.215 -44.730  21.468  1.00  0.00     0.174 HD
ATOM     20  H71 UNL     1     -10.008 -44.126  22.734  1.00  0.00     0.174 HD
BRANCH  18  21
HETATM   21  N9  UNL     1     -10.482 -41.329  23.146  1.00  0.00    -0.322 N
ATOM     22  H92 UNL     1     -10.402 -40.556  23.806  1.00  0.00     0.178 HD
ATOM     23  H91 UNL     1     -11.177 -41.999  23.475  1.00  0.00     0.178 HD
ENDBRANCH  18  21
ENDBRANCH  10  11
ENDBRANCH   9  10
ENDBRANCH   5   9
BRANCH   8  24
HETATM   24  N10 UNL     1      -6.408 -38.430  19.247  1.00  0.00    -0.069 N
ATOM     25 3H10 UNL     1      -7.350 -38.444  18.855  1.00  0.00     0.275 HD
ATOM     26 2H10 UNL     1      -6.032 -37.664  18.687  1.00  0.00     0.275 HD
ATOM     27 1H10 UNL     1      -5.909 -39.306  19.090  1.00  0.00     0.275 HD
ENDBRANCH   8  24
BRANCH   7  28
HETATM   28  O3  UNL     1      -8.202 -34.917  22.335  1.00  0.00    -0.356 OA
ATOM     29  H3  UNL     1      -8.100 -34.054  22.721  1.00  0.00     0.213 HD
ENDBRANCH   7  28
BRANCH   7  30
HETATM   30  C12 UNL     1      -6.198 -33.985  21.619  1.00  0.00     0.240 C
HETATM   31  O4  UNL     1      -6.665 -32.899  22.080  1.00  0.00    -0.644 OA
HETATM   32  O5  UNL     1      -5.000 -33.879  20.948  1.00  0.00    -0.644 OA
ENDBRANCH   7  30
BRANCH   1  33
HETATM   33  N3  UNL     1      -3.965 -38.126  20.584  1.00  0.00    -0.121 N
BRANCH  33  34
HETATM   34  C2  UNL     1      -2.741 -37.636  20.107  1.00  0.00     0.722 A
HETATM   35  N2  UNL     1      -1.520 -37.955  20.594  1.00  0.00    -0.150 N
HETATM   36  C1  UNL     1      -0.598 -37.315  19.881  1.00  0.00     0.256 A
ATOM     37  H2  UNL     1      -1.337 -38.582  21.378  1.00  0.00     0.188 HD
HETATM   38  O6  UNL     1      -1.245 -36.626  18.985  1.00  0.00    -0.186 OA
HETATM   39  N11 UNL     1      -2.527 -36.802  19.102  1.00  0.00    -0.086 N
ATOM     40  H11 UNL     1      -3.246 -36.372  18.519  1.00  0.00     0.214 HD
BRANCH  36  41
HETATM   41  N1  UNL     1       0.680 -37.410  20.106  1.00  0.00    -0.363 N
ATOM     42  H12 UNL     1       1.199 -38.071  20.683  1.00  0.00     0.159 HD
ATOM     43  H11 UNL     1       1.373 -36.786  19.694  1.00  0.00     0.159 HD
ENDBRANCH  36  41
ENDBRANCH  33  34
BRANCH  33  44
HETATM   44  N4  UNL     1      -4.047 -39.550  20.683  1.00  0.00    -0.328 N
ATOM     45  H42 UNL     1      -4.362 -40.057  19.856  1.00  0.00     0.177 HD
ATOM     46  H41 UNL     1      -3.785 -39.934  21.591  1.00  0.00     0.177 HD
ENDBRANCH  33  44
ENDBRANCH   1  33
BRANCH   2  47
HETATM   47  C5  UNL     1      -4.572 -37.724  23.454  1.00  0.00     0.172 C
BRANCH  47  48
HETATM   48  O1  UNL     1      -3.257 -37.580  23.800  1.00  0.00    -0.400 OA
ATOM     49  H1  UNL     1      -2.721 -38.353  23.664  1.00  0.00     0.209 HD
ENDBRANCH  47  48
ENDBRANCH   2  47
TORSDOF 13
ENDMDL