MODEL 2
REMARK VINA RESULT: -8.379764509      1.035      1.325
REMARK  15 active torsions:
REMARK  status: ('A' for Active; 'I' for Inactive)
REMARK    1  A    between atoms: N1_1  and  C1_4
REMARK    2  A    between atoms: C2_7  and  N3_8
REMARK    3  A    between atoms: C4_14  and  N5_15
REMARK    4  A    between atoms: C6_17  and  N6_18
REMARK    5  A    between atoms: C8_23  and  N7_24
REMARK    6  A    between atoms: C9_28  and  O1_29
REMARK    7  A    between atoms: C10_33  and  S1_34
REMARK    8  A    between atoms: S1_34  and  C11_35
REMARK    9  A    between atoms: C11_35  and  C12_36
REMARK   10  A    between atoms: C12_36  and  N9_37
REMARK   11  A    between atoms: N9_37  and  C13_38
REMARK   12  A    between atoms: C13_38  and  O2_39
REMARK   13  A    between atoms: C13_38  and  C14_41
REMARK   14  A    between atoms: C14_41  and  N10_42
REMARK   15  A    between atoms: C15_47  and  O3_48
ROOT
HETATM    1  C1  UNL     1      -7.738 -39.082  19.282  1.00  0.00     0.678 A
HETATM    2  N2  UNL     1      -8.454 -40.171  19.662  1.00  0.00    -0.175 N
ATOM      3  H2  UNL     1      -8.347 -41.053  19.160  1.00  0.00     0.186 HD
HETATM    4  C2  UNL     1      -9.317 -40.088  20.715  1.00  0.00     0.144 A
HETATM    5  C3  UNL     1      -9.397 -38.860  21.335  1.00  0.00     0.123 A
HETATM    6  N4  UNL     1     -10.229 -38.708  22.370  1.00  0.00    -0.185 N
ATOM      7  H4  UNL     1     -10.777 -39.515  22.670  1.00  0.00     0.184 HD
HETATM    8  C4  UNL     1     -10.383 -37.547  23.038  1.00  0.00     0.684 A
HETATM    9  N8  UNL     1      -9.645 -36.476  22.626  1.00  0.00    -0.183 N
ATOM     10  H8  UNL     1      -9.745 -35.588  23.119  1.00  0.00     0.185 HD
HETATM   11  C10 UNL     1      -8.794 -36.554  21.599  1.00  0.00     0.116 A
HETATM   12  C16 UNL     1      -8.672 -37.761  20.949  1.00  0.00     0.114 A
HETATM   13  N14 UNL     1      -7.836 -37.888  19.907  1.00  0.00    -0.187 N
ATOM     14  H14 UNL     1      -7.281 -37.093  19.591  1.00  0.00     0.184 HD
ENDROOT
BRANCH   8  15
HETATM   15  N5  UNL     1     -11.270 -37.414  24.149  1.00  0.00    -0.187 N
HETATM   16  C5  UNL     1     -12.581 -36.865  23.961  1.00  0.00     0.177 C
HETATM   17  C6  UNL     1     -13.017 -35.923  25.033  1.00  0.00     0.204 C
HETATM   18  C7  UNL     1     -12.356 -36.072  26.343  1.00  0.00     0.071 C
HETATM   19  C8  UNL     1     -10.998 -36.665  26.377  1.00  0.00     0.234 C
HETATM   20  C9  UNL     1     -10.814 -37.839  25.449  1.00  0.00     0.268 C
BRANCH  17  21
HETATM   21  N6  UNL     1     -14.455 -36.165  25.246  1.00  0.00    -0.073 N
ATOM     22  H63 UNL     1     -14.844 -35.628  26.021  1.00  0.00     0.274 HD
ATOM     23  H62 UNL     1     -15.043 -35.773  24.512  1.00  0.00     0.274 HD
ATOM     24  H61 UNL     1     -14.567 -37.173  25.358  1.00  0.00     0.274 HD
ENDBRANCH  17  21
BRANCH  19  25
HETATM   25  N7  UNL     1     -10.016 -35.646  25.973  1.00  0.00    -0.071 N
ATOM     26  H73 UNL     1     -10.392 -34.700  26.034  1.00  0.00     0.274 HD
ATOM     27  H72 UNL     1      -9.261 -35.546  26.651  1.00  0.00     0.274 HD
ATOM     28  H71 UNL     1      -9.671 -35.866  25.038  1.00  0.00     0.274 HD
ENDBRANCH  19  25
BRANCH  20  29
HETATM   29  O1  UNL     1     -11.480 -38.986  25.895  1.00  0.00    -0.374 OA
ATOM     30  H1  UNL     1     -10.890 -39.606  26.309  1.00  0.00     0.212 HD
ENDBRANCH  20  29
ENDBRANCH   8  15
BRANCH  11  31
HETATM   31  S1  UNL     1      -7.854 -35.141  21.023  1.00  0.00    -0.107 SA
BRANCH  31  32
HETATM   32  C11 UNL     1      -6.373 -35.037  22.042  1.00  0.00     0.114 C
BRANCH  32  33
HETATM   33  C12 UNL     1      -5.313 -36.082  21.650  1.00  0.00     0.231 C
BRANCH  33  34
HETATM   34  N9  UNL     1      -4.259 -35.563  20.931  1.00  0.00    -0.426 NA
BRANCH  34  35
HETATM   35  C13 UNL     1      -3.214 -35.048  20.219  1.00  0.00     0.203 C
BRANCH  35  36
HETATM   36  O2  UNL     1      -3.367 -34.218  19.227  1.00  0.00    -0.338 OA
ATOM     37  H2  UNL     1      -3.835 -34.440  18.430  1.00  0.00     0.220 HD
ENDBRANCH  35  36
BRANCH  35  38
HETATM   38  C14 UNL     1      -1.768 -35.363  20.486  1.00  0.00     0.249 C
BRANCH  38  39
HETATM   39  N10 UNL     1      -0.900 -35.077  19.375  1.00  0.00    -0.232 N
HETATM   40  N11 UNL     1      -0.912 -35.728  18.189  1.00  0.00    -0.003 NA
HETATM   41  N12 UNL     1      -0.004 -35.213  17.376  1.00  0.00    -0.005 NA
HETATM   42  N13 UNL     1       0.607 -34.231  18.012  1.00  0.00    -0.250 N
HETATM   43  C15 UNL     1       0.051 -34.149  19.250  1.00  0.00     0.250 A
ATOM     44  H13 UNL     1       1.355 -33.645  17.644  1.00  0.00     0.187 HD
BRANCH  43  45
HETATM   45  O3  UNL     1       0.473 -33.207  20.186  1.00  0.00    -0.331 OA
ATOM     46  H3  UNL     1       0.550 -32.265  20.085  1.00  0.00     0.221 HD
ENDBRANCH  43  45
ENDBRANCH  38  39
ENDBRANCH  35  38
ENDBRANCH  34  35
ENDBRANCH  33  34
ENDBRANCH  32  33
ENDBRANCH  31  32
ENDBRANCH  11  31
BRANCH   4  47
HETATM   47  N3  UNL     1      -9.992 -41.123  21.062  1.00  0.00    -0.383 N
ATOM     48  H32 UNL     1      -9.809 -42.070  20.731  1.00  0.00     0.157 HD
ATOM     49  H31 UNL     1     -10.769 -41.020  21.716  1.00  0.00     0.157 HD
ENDBRANCH   4  47
BRANCH   1  50
HETATM   50  N1  UNL     1      -6.938 -39.224  18.281  1.00  0.00    -0.234 N
ATOM     51  H12 UNL     1      -6.476 -40.119  18.119  1.00  0.00     0.174 HD
ATOM     52  H11 UNL     1      -6.799 -38.414  17.677  1.00  0.00     0.174 HD
ENDBRANCH   1  50
TORSDOF 15
ENDMDL