MODEL 3
REMARK VINA RESULT: -7.592734754      1.480      2.468
REMARK  15 active torsions:
REMARK  status: ('A' for Active; 'I' for Inactive)
REMARK    1  A    between atoms: N1_1  and  C1_4
REMARK    2  A    between atoms: C2_8  and  C3_9
REMARK    3  A    between atoms: C5_11  and  C6_12
REMARK    4  A    between atoms: C6_12  and  O1_13
REMARK    5  A    between atoms: C6_12  and  O2_15
REMARK    6  A    between atoms: N5_19  and  C7_20
REMARK    7  A    between atoms: C7_20  and  N6_21
REMARK    8  A    between atoms: C7_20  and  S1_31
REMARK    9  A    between atoms: N6_21  and  O3_22
REMARK   10  A    between atoms: N6_21  and  C8_26
REMARK   11  A    between atoms: O3_22  and  N7_23
REMARK   12  A    between atoms: C8_26  and  O4_27
REMARK   13  A    between atoms: C8_26  and  O5_29
REMARK   14  A    between atoms: C9_35  and  N8_36
REMARK   15  A    between atoms: C12_43  and  N10_44
ROOT
HETATM    1  C3  UNL     1      -5.570 -37.591  20.472  1.00  0.00     0.042 A
HETATM    2  C4  UNL     1      -6.458 -36.632  21.040  1.00  0.00     0.049 A
HETATM    3  C5  UNL     1      -5.962 -35.445  21.475  1.00  0.00     0.081 A
HETATM    4  N4  UNL     1      -4.672 -35.225  21.356  1.00  0.00    -0.290 N
ATOM      5  H4  UNL     1      -4.325 -34.328  21.693  1.00  0.00     0.187 HD
HETATM    6  N5  UNL     1      -3.762 -36.071  20.831  1.00  0.00    -0.213 N
HETATM    7  C9  UNL     1      -4.237 -37.269  20.383  1.00  0.00     0.136 A
ENDROOT
BRANCH   1   8
HETATM    8  C2  UNL     1      -6.145 -38.804  19.976  1.00  0.00     0.088 A
HETATM    9  N3  UNL     1      -5.715 -40.056  19.931  1.00  0.00    -0.234 N
HETATM   10  N2  UNL     1      -4.677 -40.874  20.175  1.00  0.00    -0.275 N
HETATM   11  C11 UNL     1      -6.717 -40.853  19.492  1.00  0.00     0.165 A
HETATM   12  C1  UNL     1      -4.995 -42.143  19.902  1.00  0.00     0.151 A
ATOM     13  H2  UNL     1      -3.768 -40.566  20.522  1.00  0.00     0.189 HD
HETATM   14  C12 UNL     1      -6.291 -42.172  19.464  1.00  0.00     0.193 A
HETATM   15  N9  UNL     1      -7.805 -40.112  19.255  1.00  0.00    -0.346 N
HETATM   16  C10 UNL     1      -7.486 -38.850  19.543  1.00  0.00     0.122 A
ATOM     17  H9  UNL     1      -8.707 -40.449  18.920  1.00  0.00     0.167 HD
BRANCH  12  18
HETATM   18  N1  UNL     1      -4.177 -43.160  20.046  1.00  0.00    -0.382 N
ATOM     19  H12 UNL     1      -4.229 -43.904  20.742  1.00  0.00     0.157 HD
ATOM     20  H11 UNL     1      -3.361 -43.332  19.458  1.00  0.00     0.157 HD
ENDBRANCH  12  18
BRANCH  14  21
HETATM   21  N10 UNL     1      -7.058 -43.283  19.050  1.00  0.00    -0.108 N
HETATM   22  O9  UNL     1      -8.262 -43.370  19.394  1.00  0.00    -0.531 OA
HETATM   23  O10 UNL     1      -6.563 -44.287  18.272  1.00  0.00    -0.531 OA
ENDBRANCH  14  21
ENDBRANCH   1   8
BRANCH   7  24
HETATM   24  N8  UNL     1      -3.414 -37.979  19.788  1.00  0.00    -0.383 N
ATOM     25  H82 UNL     1      -3.751 -38.900  19.509  1.00  0.00     0.157 HD
ATOM     26  H81 UNL     1      -2.437 -37.711  19.669  1.00  0.00     0.157 HD
ENDBRANCH   7  24
BRANCH   3  27
HETATM   27  C6  UNL     1      -6.904 -34.413  22.063  1.00  0.00     0.306 C
BRANCH  27  28
HETATM   28  O1  UNL     1      -6.324 -33.157  22.095  1.00  0.00    -0.366 OA
ATOM     29  H1  UNL     1      -6.950 -32.479  21.871  1.00  0.00     0.213 HD
ENDBRANCH  27  28
BRANCH  27  30
HETATM   30  O2  UNL     1      -8.055 -34.335  21.279  1.00  0.00    -0.366 OA
ATOM     31  H2  UNL     1      -8.743 -33.899  21.769  1.00  0.00     0.213 HD
ENDBRANCH  27  30
ENDBRANCH   3  27
BRANCH   6  32
HETATM   32  C7  UNL     1      -2.380 -35.686  20.789  1.00  0.00     0.255 C
BRANCH  32  33
HETATM   33  N6  UNL     1      -1.816 -35.261  19.567  1.00  0.00    -0.052 NA
BRANCH  33  34
HETATM   34  O3  UNL     1      -0.729 -36.037  19.295  1.00  0.00    -0.178 OA
BRANCH  34  35
HETATM   35  N7  UNL     1       0.135 -35.505  18.439  1.00  0.00    -0.291 N
ATOM     36  H72 UNL     1      -0.072 -35.434  17.443  1.00  0.00     0.186 HD
ATOM     37  H71 UNL     1       1.007 -35.179  18.857  1.00  0.00     0.186 HD
ENDBRANCH  34  35
ENDBRANCH  33  34
BRANCH  33  38
HETATM   38  C8  UNL     1      -1.357 -33.906  19.448  1.00  0.00     0.373 C
BRANCH  38  39
HETATM   39  O4  UNL     1      -2.338 -32.933  19.381  1.00  0.00    -0.357 OA
ATOM     40  H4  UNL     1      -2.235 -32.282  18.697  1.00  0.00     0.214 HD
ENDBRANCH  38  39
BRANCH  38  41
HETATM   41  O5  UNL     1      -0.528 -33.547  20.531  1.00  0.00    -0.357 OA
ATOM     42  H5  UNL     1      -0.473 -32.604  20.626  1.00  0.00     0.214 HD
ENDBRANCH  38  41
ENDBRANCH  33  38
ENDBRANCH  32  33
BRANCH  32  43
HETATM   43  S1  UNL     1      -1.251 -36.555  21.824  1.00  0.00     0.171 S
HETATM   44  O6  UNL     1      -1.930 -36.773  23.181  1.00  0.00    -0.589 OA
HETATM   45  O7  UNL     1      -1.047 -37.958  21.312  1.00  0.00    -0.589 OA
HETATM   46  O8  UNL     1       0.189 -35.843  22.160  1.00  0.00    -0.589 OA
ENDBRANCH  32  43
ENDBRANCH   6  32
TORSDOF 15
ENDMDL