MODEL 4
REMARK VINA RESULT: -7.949686567      4.173      6.410
REMARK  14 active torsions:
REMARK  status: ('A' for Active; 'I' for Inactive)
REMARK    1  A    between atoms: N1_2  and  C2_5
REMARK    2  A    between atoms: C4_8  and  C5_9
REMARK    3  A    between atoms: C5_9  and  S1_10
REMARK    4  A    between atoms: S1_10  and  C6_11
REMARK    5  A    between atoms: C7_16  and  C8_17
REMARK    6  A    between atoms: C8_17  and  N4_18
REMARK    7  A    between atoms: C9_22  and  C10_23
REMARK       I    between atoms: C10_23  and  N7_25
REMARK    8  A    between atoms: N7_25  and  N8_27
REMARK    9  A    between atoms: C11_30  and  N9_31
REMARK   10  A    between atoms: N10_34  and  C12_35
REMARK   11  A    between atoms: C12_35  and  N11_37
REMARK   12  A    between atoms: N11_37  and  O3_39
REMARK   13  A    between atoms: C15_45  and  N13_46
REMARK   14  A    between atoms: C16_50  and  N14_51
ROOT
HETATM    1  C6  UNL     1      -7.967 -37.202  23.812  1.00  0.00     0.168 A
HETATM    2  N2  UNL     1      -7.319 -38.359  24.104  1.00  0.00    -0.278 N
ATOM      3  H2  UNL     1      -7.338 -38.836  25.005  1.00  0.00     0.189 HD
HETATM    4  N3  UNL     1      -6.664 -38.766  23.040  1.00  0.00    -0.285 N
ATOM      5  H3  UNL     1      -6.093 -39.610  22.982  1.00  0.00     0.188 HD
HETATM    6  C7  UNL     1      -6.866 -37.893  22.042  1.00  0.00     0.125 A
HETATM    7  N10 UNL     1      -7.671 -36.935  22.531  1.00  0.00    -0.265 N
ENDROOT
BRANCH   1   8
HETATM    8  S1  UNL     1      -8.981 -36.232  24.922  1.00  0.00    -0.087 SA
BRANCH   8   9
HETATM    9  C5  UNL     1     -10.452 -37.164  25.418  1.00  0.00     0.154 C
BRANCH   9  10
HETATM   10  C4  UNL     1     -11.577 -37.154  24.482  1.00  0.00     0.272 C
HETATM   11  O1  UNL     1     -11.676 -38.379  23.839  1.00  0.00    -0.350 OA
HETATM   12  C3  UNL     1     -11.965 -39.324  24.805  1.00  0.00     0.206 C
HETATM   13  C2  UNL     1     -13.030 -39.086  25.775  1.00  0.00     0.242 C
HETATM   14  C16 UNL     1     -13.370 -37.619  26.081  1.00  0.00     0.258 C
HETATM   15  C15 UNL     1     -12.995 -36.909  24.861  1.00  0.00     0.234 C
HETATM   16  C14 UNL     1     -12.713 -35.523  24.656  1.00  0.00     0.282 C
HETATM   17  N12 UNL     1     -11.653 -35.951  23.758  1.00  0.00    -0.037 N
ATOM     18 2H12 UNL     1     -10.824 -35.373  23.619  1.00  0.00     0.281 HD
ATOM     19 1H12 UNL     1     -11.798 -35.959  22.749  1.00  0.00     0.281 HD
BRANCH  13  20
HETATM   20  N1  UNL     1     -12.677 -39.770  27.034  1.00  0.00    -0.071 N
HETATM   21  C1  UNL     1     -11.495 -40.578  26.699  1.00  0.00     0.267 C
ATOM     22  H12 UNL     1     -13.443 -40.304  27.445  1.00  0.00     0.277 HD
ATOM     23  H11 UNL     1     -12.540 -39.140  27.825  1.00  0.00     0.277 HD
ENDBRANCH  13  20
BRANCH  14  24
HETATM   24  N14 UNL     1     -12.850 -37.179  27.324  1.00  0.00    -0.070 N
ATOM     25 3H14 UNL     1     -13.226 -36.263  27.573  1.00  0.00     0.274 HD
ATOM     26 2H14 UNL     1     -13.229 -37.729  28.094  1.00  0.00     0.274 HD
ATOM     27 1H14 UNL     1     -11.830 -37.172  27.348  1.00  0.00     0.274 HD
ENDBRANCH  14  24
BRANCH  15  28
HETATM   28  N13 UNL     1     -13.887 -37.369  23.764  1.00  0.00    -0.062 N
ATOM     29 3H13 UNL     1     -14.736 -36.809  23.696  1.00  0.00     0.275 HD
ATOM     30 2H13 UNL     1     -13.502 -37.163  22.842  1.00  0.00     0.275 HD
ATOM     31 1H13 UNL     1     -14.087 -38.362  23.885  1.00  0.00     0.275 HD
ENDBRANCH  15  28
ENDBRANCH   9  10
ENDBRANCH   8   9
ENDBRANCH   1   8
BRANCH   7  32
HETATM   32  C12 UNL     1      -8.155 -35.772  21.829  1.00  0.00     0.107 C
HETATM   33  C13 UNL     1      -9.430 -35.839  21.086  1.00  0.00     0.091 C
BRANCH  32  34
HETATM   34  N11 UNL     1      -7.448 -34.679  21.869  1.00  0.00    -0.257 N
ATOM     35  H11 UNL     1      -7.036 -34.363  22.748  1.00  0.00     0.195 HD
BRANCH  34  36
HETATM   36  O3  UNL     1      -7.263 -33.960  20.722  1.00  0.00    -0.288 OA
ATOM     37  H3  UNL     1      -6.722 -33.180  20.745  1.00  0.00     0.244 HD
ENDBRANCH  34  36
ENDBRANCH  32  34
ENDBRANCH   7  32
BRANCH   6  38
HETATM   38  C8  UNL     1      -6.281 -38.004  20.706  1.00  0.00     0.227 C
BRANCH  38  39
HETATM   39  N4  UNL     1      -5.042 -37.271  20.566  1.00  0.00    -0.252 N
HETATM   40  N5  UNL     1      -4.796 -35.980  20.747  1.00  0.00    -0.018 NA
HETATM   41  N6  UNL     1      -3.508 -35.707  20.511  1.00  0.00    -0.276 N
HETATM   42  C9  UNL     1      -2.884 -36.830  20.168  1.00  0.00     0.160 A
ATOM     43  H6  UNL     1      -3.075 -34.787  20.583  1.00  0.00     0.184 HD
HETATM   44  C11 UNL     1      -3.854 -37.832  20.201  1.00  0.00     0.148 A
BRANCH  42  45
HETATM   45  C10 UNL     1      -1.471 -37.037  19.818  1.00  0.00     0.291 C
HETATM   46  O2  UNL     1      -1.054 -36.674  18.688  1.00  0.00    -0.264 OA
HETATM   47  N7  UNL     1      -0.561 -37.636  20.725  1.00  0.00    -0.271 N
ATOM     48  H7  UNL     1      -0.889 -37.933  21.644  1.00  0.00     0.189 HD
BRANCH  47  49
HETATM   49  N8  UNL     1       0.769 -37.826  20.381  1.00  0.00    -0.342 N
ATOM     50  H82 UNL     1       1.236 -37.108  19.828  1.00  0.00     0.176 HD
ATOM     51  H81 UNL     1       1.273 -38.663  20.673  1.00  0.00     0.176 HD
ENDBRANCH  47  49
ENDBRANCH  42  45
BRANCH  44  52
HETATM   52  N9  UNL     1      -3.646 -39.069  19.939  1.00  0.00    -0.382 N
ATOM     53  H92 UNL     1      -3.274 -39.753  20.597  1.00  0.00     0.157 HD
ATOM     54  H91 UNL     1      -3.828 -39.540  19.053  1.00  0.00     0.157 HD
ENDBRANCH  44  52
ENDBRANCH  38  39
ENDBRANCH   6  38
TORSDOF 14
ENDMDL