MODEL 3
REMARK VINA RESULT: -8.940605873      1.392      2.341
REMARK  14 active torsions:
REMARK  status: ('A' for Active; 'I' for Inactive)
REMARK       I    between atoms: C2_2  and  N1_4
REMARK    1  A    between atoms: N1_4  and  C3_6
REMARK    2  A    between atoms: C3_6  and  C5_9
REMARK    3  A    between atoms: C5_9  and  O2_10
REMARK    4  A    between atoms: C5_9  and  C6_12
REMARK    5  A    between atoms: C6_12  and  O3_13
REMARK    6  A    between atoms: C6_12  and  C7_15
REMARK    7  A    between atoms: C7_15  and  O4_16
REMARK    8  A    between atoms: C7_15  and  C8_18
REMARK    9  A    between atoms: C8_18  and  O5_19
REMARK   10  A    between atoms: O5_19  and  N3_20
REMARK   11  A    between atoms: C11_24  and  O6_25
REMARK   12  A    between atoms: C18_37  and  N8_38
REMARK   13  A    between atoms: C19_42  and  N9_43
REMARK   14  A    between atoms: N9_43  and  O7_44
ROOT
HETATM    1  C3  UNL     1      -0.337 -35.813  21.456  1.00  0.00     0.223 C
HETATM    2  C4  UNL     1       0.017 -36.597  22.647  1.00  0.00     0.087 C
HETATM    3  N2  UNL     1       0.284 -37.230  23.591  1.00  0.00    -0.195 NA
ENDROOT
BRANCH   1   4
HETATM    4  N1  UNL     1       0.781 -34.968  21.172  1.00  0.00    -0.342 N
HETATM    5  C2  UNL     1       0.773 -33.717  20.546  1.00  0.00     0.214 C
HETATM    6  C1  UNL     1       2.025 -32.943  20.307  1.00  0.00     0.117 C
HETATM    7  O1  UNL     1      -0.294 -33.185  20.154  1.00  0.00    -0.274 OA
ATOM      8  H1  UNL     1       1.694 -35.320  21.459  1.00  0.00     0.163 HD
ENDBRANCH   1   4
BRANCH   1   9
HETATM    9  C5  UNL     1      -0.722 -36.720  20.307  1.00  0.00     0.186 C
BRANCH   9  10
HETATM   10  O2  UNL     1      -0.846 -38.005  20.794  1.00  0.00    -0.390 OA
ATOM     11  H2  UNL     1      -1.771 -38.211  20.858  1.00  0.00     0.210 HD
ENDBRANCH   9  10
BRANCH   9  12
HETATM   12  C6  UNL     1      -1.995 -36.292  19.645  1.00  0.00     0.180 C
BRANCH  12  13
HETATM   13  O3  UNL     1      -1.689 -35.381  18.588  1.00  0.00    -0.390 OA
ATOM     14  H3  UNL     1      -1.340 -34.579  18.959  1.00  0.00     0.210 HD
ENDBRANCH  12  13
BRANCH  12  15
HETATM   15  C7  UNL     1      -2.909 -35.578  20.602  1.00  0.00     0.175 C
BRANCH  15  16
HETATM   16  O4  UNL     1      -3.620 -34.607  19.789  1.00  0.00    -0.391 OA
ATOM     17  H4  UNL     1      -3.598 -33.801  20.292  1.00  0.00     0.210 HD
ENDBRANCH  15  16
BRANCH  15  18
HETATM   18  C8  UNL     1      -3.933 -36.508  21.182  1.00  0.00     0.228 C
BRANCH  18  19
HETATM   19  O5  UNL     1      -5.150 -35.776  21.168  1.00  0.00    -0.298 OA
BRANCH  19  20
HETATM   20  N3  UNL     1      -6.062 -36.376  20.412  1.00  0.00    -0.155 NA
HETATM   21  C9  UNL     1      -5.616 -37.659  19.924  1.00  0.00     0.249 C
HETATM   22  N4  UNL     1      -6.291 -38.789  20.500  1.00  0.00    -0.339 N
HETATM   23  C10 UNL     1      -6.636 -40.103  20.000  1.00  0.00     0.096 A
HETATM   24  C17 UNL     1      -6.804 -38.792  21.845  1.00  0.00     0.219 C
HETATM   25  C11 UNL     1      -6.137 -40.852  18.959  1.00  0.00     0.102 A
HETATM   26  C16 UNL     1      -7.673 -40.626  20.745  1.00  0.00     0.086 A
HETATM   27  C12 UNL     1      -6.674 -42.116  18.665  1.00  0.00    -0.000 A
HETATM   28  C13 UNL     1      -6.104 -42.888  17.529  1.00  0.00     0.053 C
HETATM   29  C14 UNL     1      -7.704 -42.630  19.407  1.00  0.00     0.081 A
HETATM   30  N5  UNL     1      -8.265 -43.923  19.118  1.00  0.00    -0.100 NA
HETATM   31  C15 UNL     1      -8.196 -41.877  20.444  1.00  0.00     0.100 A
HETATM   32  N6  UNL     1      -9.260 -42.381  21.229  1.00  0.00    -0.098 NA
HETATM   33  N7  UNL     1      -7.972 -39.661  21.753  1.00  0.00    -0.363 N
ATOM     34  H7  UNL     1      -8.831 -39.592  22.300  1.00  0.00     0.162 HD
HETATM   35  C18 UNL     1      -7.286 -37.441  22.223  1.00  0.00     0.263 C
HETATM   36  C19 UNL     1      -7.343 -36.494  21.038  1.00  0.00     0.242 C
BRANCH  25  37
HETATM   37  O6  UNL     1      -5.104 -40.355  18.207  1.00  0.00    -0.358 OA
ATOM     38  H6  UNL     1      -4.567 -40.952  17.697  1.00  0.00     0.217 HD
ENDBRANCH  25  37
BRANCH  35  39
HETATM   39  N8  UNL     1      -8.583 -37.521  22.821  1.00  0.00    -0.068 N
ATOM     40  H83 UNL     1      -9.298 -37.084  22.239  1.00  0.00     0.275 HD
ATOM     41  H82 UNL     1      -8.945 -38.475  22.815  1.00  0.00     0.275 HD
ATOM     42  H81 UNL     1      -8.568 -37.127  23.762  1.00  0.00     0.275 HD
ENDBRANCH  35  39
BRANCH  36  43
HETATM   43  N9  UNL     1      -7.802 -35.190  21.444  1.00  0.00    -0.079 NA
BRANCH  43  44
HETATM   44  O7  UNL     1      -7.562 -34.215  20.560  1.00  0.00    -0.294 OA
ATOM     45  H7  UNL     1      -8.337 -33.760  20.253  1.00  0.00     0.238 HD
ENDBRANCH  43  44
ENDBRANCH  36  43
ENDBRANCH  19  20
ENDBRANCH  18  19
ENDBRANCH  15  18
ENDBRANCH  12  15
ENDBRANCH   9  12
ENDBRANCH   1   9
TORSDOF 14
ENDMDL