MODEL 3
REMARK VINA RESULT: -8.303641325      1.241      1.721
REMARK  12 active torsions:
REMARK  status: ('A' for Active; 'I' for Inactive)
REMARK    1  A    between atoms: N1_1  and  C1_5
REMARK    2  A    between atoms: C1_5  and  C2_6
REMARK    3  A    between atoms: C2_6  and  C3_7
REMARK    4  A    between atoms: C3_7  and  N2_8
REMARK    5  A    between atoms: N2_8  and  C4_10
REMARK    6  A    between atoms: C4_10  and  O1_11
REMARK    7  A    between atoms: C4_10  and  C5_13
REMARK    8  A    between atoms: C5_13  and  O2_14
REMARK    9  A    between atoms: C5_13  and  C6_16
REMARK   10  A    between atoms: C6_16  and  O3_17
REMARK   11  A    between atoms: O3_17  and  C7_18
REMARK   12  A    between atoms: C13_24  and  O4_25
ROOT
HETATM    1  C7  UNL     1      -3.610 -35.560  20.476  1.00  0.00     0.309 C
HETATM    2  C8  UNL     1      -4.302 -34.664  21.555  1.00  0.00     0.125 C
HETATM    3  C9  UNL     1      -5.448 -35.414  22.159  1.00  0.00     0.016 A
HETATM    4  C10 UNL     1      -5.524 -36.425  23.026  1.00  0.00     0.026 A
HETATM    5  C11 UNL     1      -6.760 -37.089  23.289  1.00  0.00     0.021 A
HETATM    6  C12 UNL     1      -7.936 -36.706  22.650  1.00  0.00     0.057 A
HETATM    7  C13 UNL     1      -7.765 -35.648  21.786  1.00  0.00     0.154 A
HETATM    8  N3  UNL     1      -6.585 -35.046  21.562  1.00  0.00    -0.340 N
ATOM      9  H3  UNL     1      -6.556 -34.268  20.903  1.00  0.00     0.167 HD
HETATM   10  C14 UNL     1      -9.202 -37.511  22.757  1.00  0.00     0.145 C
HETATM   11  N4  UNL     1     -10.409 -37.359  23.587  1.00  0.00    -0.080 NA
HETATM   12  N5  UNL     1      -9.362 -38.607  22.046  1.00  0.00    -0.282 N
ATOM     13  H5  UNL     1     -10.278 -39.003  22.256  1.00  0.00     0.188 HD
HETATM   14  N6  UNL     1      -8.755 -39.382  21.151  1.00  0.00    -0.257 N
HETATM   15  C15 UNL     1      -9.590 -40.691  21.170  1.00  0.00     0.267 C
HETATM   16  N7  UNL     1      -8.855 -41.713  21.846  1.00  0.00    -0.403 N
ATOM     17  H7  UNL     1      -9.111 -42.698  21.777  1.00  0.00     0.154 HD
HETATM   18  C16 UNL     1      -7.736 -41.271  22.625  1.00  0.00     0.135 C
HETATM   19  C17 UNL     1      -6.572 -41.057  21.703  1.00  0.00     0.140 C
HETATM   20  N8  UNL     1      -7.015 -40.828  20.368  1.00  0.00    -0.372 N
ATOM     21  H8  UNL     1      -6.890 -41.486  19.598  1.00  0.00     0.161 HD
HETATM   22  C18 UNL     1      -7.695 -39.486  20.240  1.00  0.00     0.135 C
HETATM   23  C19 UNL     1      -6.691 -38.607  19.752  1.00  0.00     0.141 C
HETATM   24  N9  UNL     1      -5.295 -38.867  20.006  1.00  0.00    -0.326 N
ATOM     25  H9  UNL     1      -4.994 -39.814  19.773  1.00  0.00     0.169 HD
HETATM   26  C20 UNL     1      -4.272 -38.041  20.519  1.00  0.00     0.264 C
HETATM   27  N10 UNL     1      -3.323 -38.913  21.290  1.00  0.00    -0.049 NA
HETATM   28  N11 UNL     1      -3.952 -36.879  20.505  1.00  0.00    -0.384 NA
ENDROOT
BRANCH   1  29
HETATM   29  O3  UNL     1      -2.283 -35.355  20.687  1.00  0.00    -0.352 OA
BRANCH  29  30
HETATM   30  C6  UNL     1      -1.322 -35.382  19.783  1.00  0.00     0.207 C
BRANCH  30  31
HETATM   31  C5  UNL     1      -0.556 -36.640  19.574  1.00  0.00     0.190 C
BRANCH  31  32
HETATM   32  C4  UNL     1       0.069 -37.320  20.711  1.00  0.00     0.244 C
BRANCH  32  33
HETATM   33  N2  UNL     1       0.449 -36.488  21.820  1.00  0.00    -0.395 N
ATOM     34  H2  UNL     1      -0.142 -35.711  22.118  1.00  0.00     0.155 HD
BRANCH  33  35
HETATM   35  C3  UNL     1       1.659 -36.772  22.485  1.00  0.00     0.118 C
BRANCH  35  36
HETATM   36  C2  UNL     1       2.492 -35.488  22.663  1.00  0.00     0.046 C
BRANCH  36  37
HETATM   37  C1  UNL     1       1.769 -34.384  21.924  1.00  0.00     0.231 C
BRANCH  37  38
HETATM   38  N1  UNL     1       2.702 -33.659  21.098  1.00  0.00    -0.079 N
ATOM     39  H13 UNL     1       2.259 -32.882  20.609  1.00  0.00     0.274 HD
ATOM     40  H12 UNL     1       3.369 -33.122  21.653  1.00  0.00     0.274 HD
ATOM     41  H11 UNL     1       3.165 -34.303  20.456  1.00  0.00     0.274 HD
ENDBRANCH  37  38
ENDBRANCH  36  37
ENDBRANCH  35  36
ENDBRANCH  33  35
ENDBRANCH  32  33
BRANCH  32  42
HETATM   42  O1  UNL     1       1.248 -38.008  20.358  1.00  0.00    -0.374 OA
ATOM     43  H1  UNL     1       1.822 -37.339  20.004  1.00  0.00     0.212 HD
ENDBRANCH  32  42
ENDBRANCH  31  32
BRANCH  31  44
HETATM   44  O2  UNL     1       0.290 -36.480  18.493  1.00  0.00    -0.389 OA
ATOM     45  H2  UNL     1       1.123 -36.925  18.595  1.00  0.00     0.210 HD
ENDBRANCH  31  44
ENDBRANCH  30  31
ENDBRANCH  29  30
ENDBRANCH   1  29
BRANCH   7  46
HETATM   46  O4  UNL     1      -8.640 -34.879  20.903  1.00  0.00    -0.345 OA
ATOM     47  H4  UNL     1      -9.420 -34.350  21.022  1.00  0.00     0.219 HD
ENDBRANCH   7  46
TORSDOF 12
ENDMDL