MODEL 2
REMARK VINA RESULT: -9.008661492      4.185     10.407
REMARK  11 active torsions:
REMARK  status: ('A' for Active; 'I' for Inactive)
REMARK    1  A    between atoms: C1_4  and  C2_6
REMARK    2  A    between atoms: C3_8  and  N3_9
REMARK    3  A    between atoms: N3_9  and  C4_11
REMARK    4  A    between atoms: C4_11  and  O1_12
REMARK    5  A    between atoms: C4_11  and  C5_14
REMARK    6  A    between atoms: C9_18  and  C10_19
REMARK    7  A    between atoms: C10_19  and  N4_20
REMARK    8  A    between atoms: N4_20  and  N5_22
REMARK    9  A    between atoms: N10_34  and  C15_35
REMARK   10  A    between atoms: C15_35  and  C16_36
REMARK   11  A    between atoms: N13_43  and  N14_44
ROOT
HETATM    1  C5  UNL     1       0.939 -35.747  20.944  1.00  0.00     0.088 A
HETATM    2  C6  UNL     1       1.710 -35.677  22.118  1.00  0.00     0.049 A
HETATM    3  C7  UNL     1       2.136 -34.385  22.310  1.00  0.00     0.011 A
HETATM    4  C8  UNL     1       2.899 -33.740  23.259  1.00  0.00     0.025 A
HETATM    5  C9  UNL     1       3.176 -32.380  23.189  1.00  0.00    -0.023 A
HETATM    6  C13 UNL     1       2.634 -31.725  22.102  1.00  0.00     0.098 A
HETATM    7  N9  UNL     1       1.893 -32.361  21.183  1.00  0.00    -0.351 N
ATOM      8  H9  UNL     1       1.516 -31.826  20.400  1.00  0.00     0.166 HD
HETATM    9  C14 UNL     1       1.629 -33.674  21.258  1.00  0.00     0.118 A
HETATM   10  N10 UNL     1       0.901 -34.526  20.436  1.00  0.00    -0.319 N
ENDROOT
BRANCH   1  11
HETATM   11  C4  UNL     1       0.360 -36.991  20.511  1.00  0.00     0.165 C
BRANCH  11  12
HETATM   12  N3  UNL     1      -0.728 -37.702  21.038  1.00  0.00    -0.338 N
ATOM     13  H3  UNL     1      -0.583 -38.434  21.734  1.00  0.00     0.164 HD
BRANCH  12  14
HETATM   14  C3  UNL     1      -2.062 -37.378  20.575  1.00  0.00     0.266 C
HETATM   15  S1  UNL     1      -2.801 -36.036  21.598  1.00  0.00    -0.090 SA
HETATM   16  C2  UNL     1      -4.610 -36.365  21.422  1.00  0.00     0.232 C
HETATM   17  N13 UNL     1      -4.700 -36.972  20.083  1.00  0.00    -0.111 NA
HETATM   18  N12 UNL     1      -4.230 -38.258  20.136  1.00  0.00    -0.245 N
HETATM   19  N11 UNL     1      -2.988 -38.469  20.665  1.00  0.00    -0.292 N
ATOM     20  H12 UNL     1      -4.791 -39.036  19.790  1.00  0.00     0.203 HD
ATOM     21  H11 UNL     1      -2.734 -39.355  21.101  1.00  0.00     0.184 HD
BRANCH  16  22
HETATM   22  C1  UNL     1      -5.293 -35.038  21.460  1.00  0.00     0.118 C
HETATM   23  N1  UNL     1      -6.433 -34.869  22.029  1.00  0.00    -0.389 N
ATOM     24  H12 UNL     1      -6.899 -33.963  22.055  1.00  0.00     0.157 HD
ATOM     25  H11 UNL     1      -6.868 -35.681  22.467  1.00  0.00     0.157 HD
HETATM   26  N2  UNL     1      -4.681 -33.897  20.845  1.00  0.00    -0.085 NA
ENDBRANCH  16  22
BRANCH  17  27
HETATM   27  N14 UNL     1      -5.968 -36.875  19.551  1.00  0.00    -0.343 NA
ATOM     28 2H14 UNL     1      -6.699 -37.193  20.187  1.00  0.00     0.172 HD
ATOM     29 1H14 UNL     1      -6.183 -35.928  19.238  1.00  0.00     0.172 HD
ENDBRANCH  17  27
ENDBRANCH  12  14
ENDBRANCH  11  12
BRANCH  11  30
HETATM   30  O1  UNL     1       0.945 -37.535  19.464  1.00  0.00    -0.345 OA
ATOM     31  H1  UNL     1       1.894 -37.569  19.493  1.00  0.00     0.219 HD
ENDBRANCH  11  30
ENDBRANCH   1  11
BRANCH  10  32
HETATM   32  C15 UNL     1       0.266 -34.040  19.234  1.00  0.00     0.244 C
BRANCH  32  33
HETATM   33  C16 UNL     1       1.036 -34.414  18.033  1.00  0.00     0.191 C
HETATM   34  O2  UNL     1       2.142 -33.876  17.741  1.00  0.00    -0.647 OA
HETATM   35  O3  UNL     1       0.585 -35.376  17.163  1.00  0.00    -0.647 OA
ENDBRANCH  32  33
ENDBRANCH  10  32
BRANCH   5  36
HETATM   36  C10 UNL     1       3.984 -31.678  24.195  1.00  0.00     0.181 C
BRANCH  36  37
HETATM   37  N4  UNL     1       4.139 -30.280  23.840  1.00  0.00    -0.310 N
ATOM     38  H4  UNL     1       4.844 -30.005  23.156  1.00  0.00     0.182 HD
BRANCH  37  39
HETATM   39  N5  UNL     1       3.324 -29.303  24.434  1.00  0.00    -0.194 N
HETATM   40  C11 UNL     1       3.755 -28.217  25.085  1.00  0.00     0.229 A
HETATM   41  N6  UNL     1       2.670 -27.550  25.497  1.00  0.00    -0.323 N
HETATM   42  C12 UNL     1       1.552 -28.198  25.117  1.00  0.00     0.209 A
ATOM     43  H6  UNL     1       2.687 -26.676  26.023  1.00  0.00     0.169 HD
HETATM   44  N7  UNL     1       0.243 -27.757  25.397  1.00  0.00    -0.062 NA
HETATM   45  N8  UNL     1       1.988 -29.283  24.458  1.00  0.00    -0.251 N
ATOM     46  H8  UNL     1       1.386 -29.990  24.037  1.00  0.00     0.192 HD
ENDBRANCH  37  39
ENDBRANCH  36  37
ENDBRANCH   5  36
TORSDOF 11
ENDMDL