MODEL 1
REMARK VINA RESULT: -8.839189220      0.000      0.000
REMARK  13 active torsions:
REMARK  status: ('A' for Active; 'I' for Inactive)
REMARK    1  A    between atoms: O1_2  and  C2_3
REMARK    2  A    between atoms: C2_3  and  C3_5
REMARK    3  A    between atoms: C3_5  and  C4_6
REMARK    4  A    between atoms: C3_5  and  N1_11
REMARK    5  A    between atoms: C4_6  and  C5_7
REMARK    6  A    between atoms: C5_7  and  O3_9
REMARK       I    between atoms: N1_11  and  C7_13
REMARK    7  A    between atoms: C7_13  and  C8_15
REMARK    8  A    between atoms: C9_18  and  N3_19
REMARK    9  A    between atoms: C10_23  and  C11_24
REMARK   10  A    between atoms: C11_24  and  O5_26
REMARK   11  A    between atoms: C11_24  and  N6_28
REMARK   12  A    between atoms: C14_32  and  N8_33
REMARK   13  A    between atoms: C16_40  and  N11_41
ROOT
HETATM    1  C8  UNL     1      -0.805 -35.457  20.662  1.00  0.00     0.144 A
HETATM    2  N2  UNL     1      -1.952 -35.756  21.340  1.00  0.00    -0.331 N
ATOM      3  H2  UNL     1      -2.227 -35.161  22.122  1.00  0.00     0.168 HD
HETATM    4  C9  UNL     1      -2.733 -36.801  21.020  1.00  0.00     0.172 A
HETATM    5  C16 UNL     1      -2.315 -37.578  19.953  1.00  0.00     0.147 A
HETATM    6  N12 UNL     1      -1.180 -37.291  19.273  1.00  0.00    -0.326 N
ATOM      7  H12 UNL     1      -0.904 -37.885  18.491  1.00  0.00     0.168 HD
HETATM    8  C17 UNL     1      -0.410 -36.243  19.604  1.00  0.00     0.150 A
HETATM    9  N13 UNL     1       0.790 -35.931  18.894  1.00  0.00    -0.080 NA
ENDROOT
BRANCH   4  10
HETATM   10  N3  UNL     1      -3.932 -37.128  21.715  1.00  0.00    -0.204 N
HETATM   11  N4  UNL     1      -4.138 -38.091  22.621  1.00  0.00    -0.012 NA
HETATM   12  N5  UNL     1      -5.400 -38.064  23.032  1.00  0.00    -0.280 N
HETATM   13  C10 UNL     1      -6.056 -37.073  22.402  1.00  0.00     0.123 A
ATOM     14  H5  UNL     1      -5.809 -38.696  23.720  1.00  0.00     0.184 HD
HETATM   15  C15 UNL     1      -5.112 -36.500  21.580  1.00  0.00     0.167 A
HETATM   16  N10 UNL     1      -5.367 -35.402  20.718  1.00  0.00    -0.079 NA
BRANCH  13  17
HETATM   17  C11 UNL     1      -7.472 -36.726  22.590  1.00  0.00     0.197 C
HETATM   18  C12 UNL     1      -7.909 -36.841  24.034  1.00  0.00     0.080 C
BRANCH  17  19
HETATM   19  O5  UNL     1      -7.650 -35.420  22.125  1.00  0.00    -0.364 OA
ATOM     20  H5  UNL     1      -7.901 -34.884  22.869  1.00  0.00     0.213 HD
ENDBRANCH  17  19
BRANCH  17  21
HETATM   21  N6  UNL     1      -8.314 -37.615  21.802  1.00  0.00    -0.232 N
HETATM   22  C13 UNL     1      -8.457 -38.941  21.969  1.00  0.00     0.222 A
HETATM   23  N7  UNL     1      -9.321 -39.385  21.042  1.00  0.00    -0.185 N
HETATM   24  C14 UNL     1      -9.713 -38.334  20.297  1.00  0.00     0.691 A
ATOM     25  H7  UNL     1      -9.627 -40.351  20.922  1.00  0.00     0.185 HD
HETATM   26  N9  UNL     1      -9.079 -37.264  20.789  1.00  0.00    -0.126 N
ATOM     27  H9  UNL     1      -9.175 -36.313  20.431  1.00  0.00     0.206 HD
BRANCH  24  28
HETATM   28  N8  UNL     1     -10.549 -38.379  19.301  1.00  0.00    -0.233 N
ATOM     29  H82 UNL     1     -11.503 -38.019  19.268  1.00  0.00     0.174 HD
ATOM     30  H81 UNL     1     -10.364 -38.794  18.388  1.00  0.00     0.174 HD
ENDBRANCH  24  28
ENDBRANCH  17  21
ENDBRANCH  13  17
ENDBRANCH   4  10
BRANCH   5  31
HETATM   31  N11 UNL     1      -3.062 -38.586  19.640  1.00  0.00    -0.382 N
ATOM     32 2H11 UNL     1      -2.757 -39.298  18.975  1.00  0.00     0.157 HD
ATOM     33 1H11 UNL     1      -3.976 -38.637  20.090  1.00  0.00     0.157 HD
ENDBRANCH   5  31
BRANCH   1  34
HETATM   34  C7  UNL     1       0.012 -34.313  21.040  1.00  0.00     0.272 C
HETATM   35  N1  UNL     1       1.194 -34.543  21.772  1.00  0.00    -0.342 N
ATOM     36  H1  UNL     1       1.447 -35.500  22.018  1.00  0.00     0.163 HD
HETATM   37  O4  UNL     1      -0.369 -33.158  20.699  1.00  0.00    -0.266 OA
BRANCH  35  38
HETATM   38  C3  UNL     1       2.082 -33.427  22.194  1.00  0.00     0.187 C
BRANCH  38  39
HETATM   39  C2  UNL     1       2.596 -32.865  20.947  1.00  0.00     0.281 C
HETATM   40  O2  UNL     1       3.013 -33.566  19.981  1.00  0.00    -0.263 OA
BRANCH  39  41
HETATM   41  O1  UNL     1       2.629 -31.472  20.795  1.00  0.00    -0.325 OA
HETATM   42  C1  UNL     1       3.000 -30.620  21.865  1.00  0.00     0.213 C
ENDBRANCH  39  41
ENDBRANCH  38  39
BRANCH  38  43
HETATM   43  C4  UNL     1       3.118 -34.086  23.030  1.00  0.00     0.066 C
BRANCH  43  44
HETATM   44  C5  UNL     1       3.255 -35.543  23.080  1.00  0.00     0.116 C
HETATM   45  C6  UNL     1       2.116 -36.282  23.648  1.00  0.00     0.039 C
BRANCH  44  46
HETATM   46  O3  UNL     1       3.573 -35.998  21.765  1.00  0.00    -0.396 OA
ATOM     47  H3  UNL     1       3.996 -36.845  21.844  1.00  0.00     0.210 HD
ENDBRANCH  44  46
ENDBRANCH  43  44
ENDBRANCH  38  43
ENDBRANCH  35  38
ENDBRANCH   1  34
TORSDOF 13
ENDMDL