MODEL 5
REMARK VINA RESULT: -7.940849414      2.880      6.431
REMARK  11 active torsions:
REMARK  status: ('A' for Active; 'I' for Inactive)
REMARK    1  A    between atoms: C2_2  and  C13_43
REMARK    2  A    between atoms: N1_3  and  N2_5
REMARK       I    between atoms: N2_5  and  C3_7
REMARK       I    between atoms: C3_7  and  N4_11
REMARK       I    between atoms: N4_11  and  C4_13
REMARK    3  A    between atoms: C4_13  and  C5_15
REMARK    4  A    between atoms: C5_15  and  O2_16
REMARK    5  A    between atoms: C5_15  and  C6_18
REMARK    6  A    between atoms: C5_15  and  C9_31
REMARK    7  A    between atoms: C6_18  and  S1_19
REMARK    8  A    between atoms: S1_19  and  C7_20
REMARK       I    between atoms: N7_25  and  C8_26
REMARK    9  A    between atoms: C10_34  and  C11_35
REMARK   10  A    between atoms: C11_35  and  O4_36
REMARK   11  A    between atoms: C11_35  and  O5_38
ROOT
HETATM    1  C5  UNL     1      -2.075 -35.308  20.518  1.00  0.00     0.192 C
ENDROOT
BRANCH   1   2
HETATM    2  C4  UNL     1      -3.347 -36.086  20.461  1.00  0.00     0.277 C
HETATM    3  N4  UNL     1      -3.390 -37.443  20.074  1.00  0.00    -0.156 N
HETATM    4  C3  UNL     1      -4.620 -38.143  20.033  1.00  0.00     0.693 C
ATOM      5  H4  UNL     1      -2.527 -37.924  19.822  1.00  0.00     0.187 HD
HETATM    6  N2  UNL     1      -5.836 -37.500  20.372  1.00  0.00    -0.132 N
HETATM    7  N3  UNL     1      -4.610 -39.377  19.678  1.00  0.00    -0.233 N
ATOM      8  H2  UNL     1      -6.198 -36.790  19.735  1.00  0.00     0.205 HD
ATOM      9  H32 UNL     1      -5.495 -39.882  19.648  1.00  0.00     0.174 HD
ATOM     10  H31 UNL     1      -3.734 -39.840  19.434  1.00  0.00     0.174 HD
HETATM   11  O1  UNL     1      -4.413 -35.494  20.772  1.00  0.00    -0.269 OA
BRANCH   6  12
HETATM   12  N1  UNL     1      -6.565 -37.780  21.523  1.00  0.00    -0.286 N
HETATM   13  C2  UNL     1      -7.592 -37.144  21.945  1.00  0.00     0.087 C
HETATM   14  C1  UNL     1      -8.258 -37.593  23.225  1.00  0.00     0.075 C
ATOM     15  H1  UNL     1      -6.249 -38.570  22.087  1.00  0.00     0.187 HD
BRANCH  13  16
HETATM   16  C13 UNL     1      -8.140 -36.007  21.236  1.00  0.00     0.278 C
HETATM   17  N12 UNL     1      -9.436 -36.077  20.684  1.00  0.00    -0.056 NA
HETATM   18  O6  UNL     1      -7.460 -34.969  21.119  1.00  0.00    -0.270 OA
ENDBRANCH  13  16
ENDBRANCH   6  12
ENDBRANCH   1   2
BRANCH   1  19
HETATM   19  O2  UNL     1      -2.241 -34.052  21.090  1.00  0.00    -0.373 OA
ATOM     20  H2  UNL     1      -1.424 -33.683  21.405  1.00  0.00     0.211 HD
ENDBRANCH   1  19
BRANCH   1  21
HETATM   21  C6  UNL     1      -1.490 -35.174  19.147  1.00  0.00     0.137 C
BRANCH  21  22
HETATM   22  S1  UNL     1      -0.629 -33.596  19.006  1.00  0.00    -0.087 SA
BRANCH  22  23
HETATM   23  C7  UNL     1       0.878 -33.551  19.969  1.00  0.00     0.176 A
HETATM   24  N5  UNL     1       2.115 -33.869  19.590  1.00  0.00    -0.262 N
HETATM   25  N6  UNL     1       2.912 -33.690  20.614  1.00  0.00    -0.215 N
ATOM     26  H5  UNL     1       2.393 -34.195  18.665  1.00  0.00     0.190 HD
HETATM   27  N7  UNL     1       2.184 -33.263  21.628  1.00  0.00    -0.128 N
ATOM     28  H6  UNL     1       3.919 -33.852  20.625  1.00  0.00     0.210 HD
HETATM   29  C8  UNL     1       2.657 -32.945  22.938  1.00  0.00     0.370 C
HETATM   30  N9  UNL     1       0.926 -33.172  21.247  1.00  0.00    -0.252 N
HETATM   31  N8  UNL     1       4.027 -33.083  23.229  1.00  0.00    -0.037 NA
HETATM   32  O3  UNL     1       1.837 -32.545  23.811  1.00  0.00    -0.247 OA
ATOM     33  H9  UNL     1       0.139 -32.869  21.820  1.00  0.00     0.191 HD
ENDBRANCH  22  23
ENDBRANCH  21  22
ENDBRANCH   1  21
BRANCH   1  34
HETATM   34  C9  UNL     1      -1.114 -36.052  21.435  1.00  0.00     0.086 A
HETATM   35  N10 UNL     1       0.065 -36.485  21.069  1.00  0.00    -0.348 N
HETATM   36  C10 UNL     1       0.825 -37.121  21.934  1.00  0.00     0.108 A
ATOM     37  H10 UNL     1       0.395 -36.330  20.116  1.00  0.00     0.166 HD
HETATM   38  S2  UNL     1      -0.128 -37.131  23.341  1.00  0.00    -0.055 SA
HETATM   39  C12 UNL     1      -1.496 -36.292  22.729  1.00  0.00     0.115 A
HETATM   40  N11 UNL     1      -2.725 -35.929  23.391  1.00  0.00    -0.092 NA
BRANCH  36  41
HETATM   41  C11 UNL     1       2.195 -37.715  21.785  1.00  0.00     0.312 C
BRANCH  41  42
HETATM   42  O4  UNL     1       2.354 -38.278  20.520  1.00  0.00    -0.365 OA
ATOM     43  H4  UNL     1       1.559 -38.723  20.248  1.00  0.00     0.213 HD
ENDBRANCH  41  42
BRANCH  41  44
HETATM   44  O5  UNL     1       3.087 -36.622  21.844  1.00  0.00    -0.365 OA
ATOM     45  H5  UNL     1       3.084 -36.341  22.751  1.00  0.00     0.213 HD
ENDBRANCH  41  44
ENDBRANCH  36  41
ENDBRANCH   1  34
TORSDOF 11
ENDMDL