MODEL 5
REMARK VINA RESULT: -8.537817469      3.403      8.457
REMARK  11 active torsions:
REMARK  status: ('A' for Active; 'I' for Inactive)
REMARK    1  A    between atoms: C2_2  and  O1_3
REMARK    2  A    between atoms: C2_2  and  C3_5
REMARK    3  A    between atoms: C3_5  and  N1_6
REMARK    4  A    between atoms: C3_5  and  C6_13
REMARK       I    between atoms: N1_6  and  C4_8
REMARK    5  A    between atoms: C4_8  and  C5_10
REMARK    6  A    between atoms: C5_10  and  O3_11
REMARK       I    between atoms: N2_16  and  C9_18
REMARK       I    between atoms: C9_18  and  N3_19
REMARK       I    between atoms: C9_18  and  N4_23
REMARK    7  A    between atoms: C11_29  and  C12_30
REMARK    8  A    between atoms: C12_30  and  N6_31
REMARK    9  A    between atoms: C12_30  and  C13_35
REMARK   10  A    between atoms: C19_49  and  C20_50
REMARK   11  A    between atoms: C20_50  and  N11_51
ROOT
HETATM    1  C6  UNL     1       1.210 -36.976  22.356  1.00  0.00     0.081 A
HETATM    2  C7  UNL     1       2.210 -36.971  23.276  1.00  0.00     0.066 A
HETATM    3  C8  UNL     1       2.132 -37.880  24.356  1.00  0.00     0.060 A
HETATM    4  N2  UNL     1       3.081 -37.819  25.169  1.00  0.00    -0.339 N
ATOM      5  H2  UNL     1       3.757 -37.105  24.898  1.00  0.00     0.163 HD
HETATM    6  C9  UNL     1       3.464 -38.464  26.346  1.00  0.00     0.480 C
HETATM    7  N3  UNL     1       4.288 -37.549  27.175  1.00  0.00    -0.033 N
ATOM      8  H31 UNL     1       4.568 -38.021  28.036  1.00  0.00     0.278 HD
ATOM      9  H32 UNL     1       3.812 -36.665  27.359  1.00  0.00     0.278 HD
ATOM     10  H33 UNL     1       5.088 -37.181  26.661  1.00  0.00     0.278 HD
HETATM   11  N4  UNL     1       4.358 -39.589  25.996  1.00  0.00    -0.033 N
ATOM     12  H41 UNL     1       4.638 -40.061  26.857  1.00  0.00     0.278 HD
ATOM     13  H42 UNL     1       5.156 -39.293  25.434  1.00  0.00     0.278 HD
ATOM     14  H43 UNL     1       3.938 -40.226  25.319  1.00  0.00     0.278 HD
HETATM   15  C10 UNL     1       1.024 -38.699  24.365  1.00  0.00     0.105 A
HETATM   16  N5  UNL     1       0.919 -39.616  25.437  1.00  0.00    -0.097 NA
HETATM   17  C11 UNL     1       0.036 -38.671  23.412  1.00  0.00     0.116 A
HETATM   18  O4  UNL     1       0.199 -37.786  22.444  1.00  0.00    -0.312 OA
ENDROOT
BRANCH  17  19
HETATM   19  C12 UNL     1      -1.116 -39.564  23.473  1.00  0.00     0.291 C
BRANCH  19  20
HETATM   20  N6  UNL     1      -0.776 -40.985  23.381  1.00  0.00    -0.064 N
ATOM     21  H63 UNL     1       0.230 -41.105  23.263  1.00  0.00     0.275 HD
ATOM     22  H62 UNL     1      -0.900 -41.441  24.285  1.00  0.00     0.275 HD
ATOM     23  H61 UNL     1      -1.284 -41.489  22.653  1.00  0.00     0.275 HD
ENDBRANCH  19  20
BRANCH  19  24
HETATM   24  C13 UNL     1      -2.265 -39.204  22.618  1.00  0.00     0.048 A
HETATM   25  C14 UNL     1      -3.164 -38.190  22.921  1.00  0.00     0.028 A
HETATM   26  C15 UNL     1      -4.237 -37.910  22.087  1.00  0.00     0.019 A
HETATM   27  C16 UNL     1      -4.413 -38.652  20.939  1.00  0.00     0.034 A
HETATM   28  C17 UNL     1      -3.510 -39.651  20.660  1.00  0.00     0.118 A
HETATM   29  C19 UNL     1      -5.586 -38.241  20.162  1.00  0.00     0.065 C
HETATM   30  N7  UNL     1      -2.502 -39.876  21.493  1.00  0.00    -0.343 N
HETATM   31  N8  UNL     1      -3.547 -40.505  19.525  1.00  0.00    -0.337 N
ATOM     32  H7  UNL     1      -1.854 -40.626  21.251  1.00  0.00     0.167 HD
HETATM   33  C18 UNL     1      -4.596 -40.837  18.593  1.00  0.00     0.199 C
ATOM     34  H8  UNL     1      -2.661 -40.972  19.331  1.00  0.00     0.168 HD
HETATM   35  N9  UNL     1      -5.466 -39.761  18.252  1.00  0.00    -0.296 N
HETATM   36  N10 UNL     1      -5.973 -38.748  19.040  1.00  0.00    -0.301 N
ATOM     37  H9  UNL     1      -5.760 -39.736  17.275  1.00  0.00     0.187 HD
ATOM     38  H10 UNL     1      -6.816 -38.317  18.663  1.00  0.00     0.186 HD
BRANCH  29  39
HETATM   39  C20 UNL     1      -6.393 -37.129  20.744  1.00  0.00     0.288 C
BRANCH  39  40
HETATM   40  N11 UNL     1      -7.792 -37.565  20.747  1.00  0.00    -0.074 N
ATOM     41 3H11 UNL     1      -8.452 -36.791  20.822  1.00  0.00     0.274 HD
ATOM     42 2H11 UNL     1      -8.103 -37.916  19.842  1.00  0.00     0.274 HD
ATOM     43 1H11 UNL     1      -7.892 -38.249  21.497  1.00  0.00     0.274 HD
ENDBRANCH  39  40
ENDBRANCH  29  39
ENDBRANCH  19  24
ENDBRANCH  17  19
BRANCH   1  44
HETATM   44  C3  UNL     1       1.305 -36.002  21.209  1.00  0.00     0.170 C
BRANCH  44  45
HETATM   45  C2  UNL     1       0.343 -36.296  20.106  1.00  0.00     0.143 C
HETATM   46  C1  UNL     1       0.329 -35.230  19.025  1.00  0.00     0.042 C
BRANCH  45  47
HETATM   47  O1  UNL     1       0.772 -37.473  19.436  1.00  0.00    -0.393 OA
ATOM     48  H1  UNL     1       1.546 -37.748  19.913  1.00  0.00     0.210 HD
ENDBRANCH  45  47
ENDBRANCH  44  45
BRANCH  44  49
HETATM   49  N1  UNL     1       1.049 -34.644  21.711  1.00  0.00    -0.346 N
HETATM   50  C4  UNL     1       2.042 -33.655  21.553  1.00  0.00     0.241 C
HETATM   51  O2  UNL     1       3.123 -33.937  20.993  1.00  0.00    -0.271 OA
ATOM     52  H1  UNL     1       0.164 -34.421  22.166  1.00  0.00     0.163 HD
BRANCH  50  53
HETATM   53  C5  UNL     1       1.816 -32.287  22.044  1.00  0.00     0.266 C
BRANCH  53  54
HETATM   54  O3  UNL     1       2.485 -31.328  21.317  1.00  0.00    -0.392 OA
ATOM     55  H3  UNL     1       2.274 -30.440  21.580  1.00  0.00     0.210 HD
ENDBRANCH  53  54
ENDBRANCH  50  53
ENDBRANCH  44  49
ENDBRANCH   1  44
TORSDOF 11
ENDMDL