MODEL 2
REMARK VINA RESULT: -8.924565244      3.257      3.949
REMARK  11 active torsions:
REMARK  status: ('A' for Active; 'I' for Inactive)
REMARK       I    between atoms: N1_1  and  C1_5
REMARK       I    between atoms: C1_5  and  N2_6
REMARK       I    between atoms: C1_5  and  N3_10
REMARK       I    between atoms: N3_10  and  C2_12
REMARK    1  A    between atoms: C2_12  and  C3_14
REMARK    2  A    between atoms: C5_16  and  C6_17
REMARK    3  A    between atoms: C6_17  and  N4_18
REMARK    4  A    between atoms: N4_18  and  C7_21
REMARK    5  A    between atoms: C7_21  and  C8_22
REMARK    6  A    between atoms: C8_22  and  N5_23
REMARK    7  A    between atoms: C11_33  and  O2_34
REMARK    8  A    between atoms: C12_36  and  C13_37
REMARK    9  A    between atoms: C16_46  and  C17_47
REMARK   10  A    between atoms: C17_47  and  O5_48
REMARK   11  A    between atoms: C17_47  and  O6_50
ROOT
HETATM    1  C6  UNL     1      -2.253 -36.625  24.371  1.00  0.00     0.289 C
ENDROOT
BRANCH   1   2
HETATM    2  C5  UNL     1      -2.708 -36.574  22.946  1.00  0.00     0.036 A
HETATM    3  C4  UNL     1      -3.450 -37.586  22.382  1.00  0.00     0.043 A
HETATM    4  C3  UNL     1      -3.892 -37.578  21.062  1.00  0.00     0.036 A
HETATM    5  C18 UNL     1      -3.550 -36.480  20.309  1.00  0.00     0.047 A
HETATM    6  C16 UNL     1      -2.797 -35.457  20.886  1.00  0.00     0.065 A
HETATM    7  N11 UNL     1      -2.398 -35.523  22.172  1.00  0.00    -0.357 N
ATOM      8  H11 UNL     1      -1.850 -34.758  22.564  1.00  0.00     0.165 HD
BRANCH   4   9
HETATM    9  C2  UNL     1      -4.678 -38.687  20.524  1.00  0.00     0.254 C
HETATM   10  N3  UNL     1      -4.188 -39.444  19.432  1.00  0.00    -0.307 N
HETATM   11  C1  UNL     1      -4.955 -40.560  18.874  1.00  0.00     0.483 C
ATOM     12  H3  UNL     1      -3.283 -39.207  19.026  1.00  0.00     0.166 HD
HETATM   13  N1  UNL     1      -4.087 -41.733  19.005  1.00  0.00    -0.033 N
HETATM   14  N2  UNL     1      -5.210 -40.392  17.466  1.00  0.00    -0.033 N
ATOM     15  H13 UNL     1      -4.469 -42.569  18.562  1.00  0.00     0.278 HD
ATOM     16  H12 UNL     1      -3.236 -41.670  18.446  1.00  0.00     0.278 HD
ATOM     17  H11 UNL     1      -3.907 -41.853  20.002  1.00  0.00     0.278 HD
ATOM     18  H23 UNL     1      -4.359 -40.328  16.907  1.00  0.00     0.278 HD
ATOM     19  H22 UNL     1      -5.591 -41.227  17.023  1.00  0.00     0.278 HD
ATOM     20  H21 UNL     1      -5.814 -39.575  17.375  1.00  0.00     0.278 HD
HETATM   21  O1  UNL     1      -5.798 -39.000  21.006  1.00  0.00    -0.268 OA
ENDBRANCH   4   9
BRANCH   6  22
HETATM   22  C17 UNL     1      -2.450 -34.290  20.039  1.00  0.00     0.305 C
BRANCH  22  23
HETATM   23  O5  UNL     1      -1.784 -34.688  18.875  1.00  0.00    -0.366 OA
ATOM     24  H5  UNL     1      -2.232 -34.377  18.097  1.00  0.00     0.213 HD
ENDBRANCH  22  23
BRANCH  22  25
HETATM   25  O6  UNL     1      -1.637 -33.409  20.720  1.00  0.00    -0.366 OA
ATOM     26  H6  UNL     1      -0.829 -33.254  20.244  1.00  0.00     0.213 HD
ENDBRANCH  22  25
ENDBRANCH   6  22
ENDBRANCH   1   2
BRANCH   1  27
HETATM   27  N4  UNL     1      -0.967 -35.976  24.530  1.00  0.00    -0.068 N
ATOM     28  H42 UNL     1      -0.780 -35.275  23.813  1.00  0.00     0.277 HD
ATOM     29  H41 UNL     1      -0.930 -35.350  25.335  1.00  0.00     0.277 HD
BRANCH  27  30
HETATM   30  C7  UNL     1       0.036 -37.025  24.578  1.00  0.00     0.253 C
BRANCH  30  31
HETATM   31  C8  UNL     1       1.272 -36.502  23.899  1.00  0.00     0.157 C
BRANCH  31  32
HETATM   32  N5  UNL     1       1.087 -36.309  22.493  1.00  0.00    -0.335 N
HETATM   33  C9  UNL     1       0.668 -37.209  21.575  1.00  0.00     0.185 A
HETATM   34  N6  UNL     1       0.620 -36.661  20.360  1.00  0.00    -0.335 N
HETATM   35  C10 UNL     1       1.022 -35.371  20.502  1.00  0.00     0.153 A
ATOM     36  H6  UNL     1       0.338 -37.121  19.495  1.00  0.00     0.168 HD
HETATM   37  N7  UNL     1       1.175 -34.346  19.649  1.00  0.00    -0.268 N
HETATM   38  C15 UNL     1       1.303 -35.175  21.824  1.00  0.00     0.128 A
HETATM   39  N8  UNL     1       1.585 -33.159  20.026  1.00  0.00    -0.231 N
ATOM     40  H7  UNL     1       0.963 -34.498  18.663  1.00  0.00     0.190 HD
HETATM   41  N9  UNL     1       1.872 -32.923  21.310  1.00  0.00    -0.198 N
ATOM     42  H8  UNL     1       1.684 -32.413  19.338  1.00  0.00     0.209 HD
HETATM   43  C11 UNL     1       2.303 -31.815  21.948  1.00  0.00     0.199 A
HETATM   44  C14 UNL     1       1.739 -33.899  22.200  1.00  0.00     0.163 A
HETATM   45  C12 UNL     1       2.431 -32.140  23.266  1.00  0.00     0.164 A
HETATM   46  N10 UNL     1       2.084 -33.415  23.404  1.00  0.00    -0.330 N
ATOM     47  H10 UNL     1       2.081 -33.940  24.279  1.00  0.00     0.168 HD
BRANCH  43  48
HETATM   48  O2  UNL     1       2.560 -30.584  21.362  1.00  0.00    -0.343 OA
ATOM     49  H2  UNL     1       2.367 -29.734  21.740  1.00  0.00     0.219 HD
ENDBRANCH  43  48
BRANCH  45  50
HETATM   50  C13 UNL     1       2.868 -31.279  24.362  1.00  0.00     0.231 C
HETATM   51  O3  UNL     1       2.187 -31.184  25.415  1.00  0.00    -0.643 OA
HETATM   52  O4  UNL     1       4.059 -30.577  24.188  1.00  0.00    -0.643 OA
ENDBRANCH  45  50
ENDBRANCH  31  32
ENDBRANCH  30  31
ENDBRANCH  27  30
ENDBRANCH   1  27
TORSDOF 11
ENDMDL