MODEL 1
REMARK VINA RESULT: -9.531088348      0.000      0.000
REMARK  11 active torsions:
REMARK  status: ('A' for Active; 'I' for Inactive)
REMARK    1  A    between atoms: N1_1  and  C1_4
REMARK    2  A    between atoms: C2_7  and  C3_8
REMARK    3  A    between atoms: C3_8  and  C4_10
REMARK    4  A    between atoms: C4_10  and  O2_11
REMARK    5  A    between atoms: C4_10  and  N3_13
REMARK    6  A    between atoms: N3_13  and  C5_15
REMARK    7  A    between atoms: C7_19  and  C8_20
REMARK    8  A    between atoms: C10_30  and  C11_31
REMARK       I    between atoms: C11_31  and  N9_33
REMARK    9  A    between atoms: N9_33  and  C12_35
REMARK   10  A    between atoms: C12_35  and  O4_39
REMARK   11  A    between atoms: N12_43  and  S1_44
ROOT
HETATM    1  C5  UNL     1       2.324 -33.180  21.447  1.00  0.00     0.119 A
HETATM    2  N4  UNL     1       2.553 -31.907  21.017  1.00  0.00    -0.351 N
ATOM      3  H4  UNL     1       2.432 -31.706  20.024  1.00  0.00     0.166 HD
HETATM    4  C6  UNL     1       2.925 -30.913  21.815  1.00  0.00     0.105 A
HETATM    5  C7  UNL     1       3.088 -31.183  23.157  1.00  0.00     0.027 A
HETATM    6  C9  UNL     1       2.876 -32.456  23.668  1.00  0.00     0.037 A
HETATM    7  C10 UNL     1       2.488 -33.452  22.767  1.00  0.00     0.077 A
ENDROOT
BRANCH   1   8
HETATM    8  N3  UNL     1       1.914 -34.083  20.463  1.00  0.00    -0.343 N
ATOM      9  H3  UNL     1       2.389 -34.980  20.362  1.00  0.00     0.164 HD
BRANCH   8  10
HETATM   10  C4  UNL     1       0.773 -33.731  19.557  1.00  0.00     0.297 C
BRANCH  10  11
HETATM   11  C3  UNL     1       0.307 -34.998  18.970  1.00  0.00     0.227 C
HETATM   12  O1  UNL     1       0.787 -35.366  17.882  1.00  0.00    -0.286 OA
BRANCH  11  13
HETATM   13  C2  UNL     1      -0.693 -35.784  19.666  1.00  0.00     0.142 A
HETATM   14  N2  UNL     1      -0.534 -37.015  20.226  1.00  0.00    -0.184 N
HETATM   15  C1  UNL     1      -1.704 -37.420  20.768  1.00  0.00     0.696 A
ATOM     16  H2  UNL     1       0.335 -37.549  20.234  1.00  0.00     0.184 HD
HETATM   17  N12 UNL     1      -2.636 -36.471  20.576  1.00  0.00    -0.037 N
HETATM   18  C13 UNL     1      -2.030 -35.468  19.907  1.00  0.00     0.184 A
HETATM   19  N11 UNL     1      -2.674 -34.271  19.495  1.00  0.00    -0.078 NA
BRANCH  15  20
HETATM   20  N1  UNL     1      -1.943 -38.550  21.387  1.00  0.00    -0.233 N
ATOM     21  H12 UNL     1      -1.561 -39.447  21.084  1.00  0.00     0.174 HD
ATOM     22  H11 UNL     1      -2.512 -38.690  22.221  1.00  0.00     0.174 HD
ENDBRANCH  15  20
BRANCH  17  23
HETATM   23  S1  UNL     1      -4.301 -36.507  21.073  1.00  0.00     0.231 S
HETATM   24  O5  UNL     1      -5.203 -36.499  19.849  1.00  0.00    -0.577 OA
HETATM   25  O6  UNL     1      -4.636 -37.693  21.904  1.00  0.00    -0.577 OA
HETATM   26  O7  UNL     1      -4.654 -35.042  21.861  1.00  0.00    -0.577 OA
ENDBRANCH  17  23
ENDBRANCH  11  13
ENDBRANCH  10  11
BRANCH  10  27
HETATM   27  O2  UNL     1      -0.164 -33.153  20.395  1.00  0.00    -0.369 OA
ATOM     28  H2  UNL     1      -0.755 -33.788  20.779  1.00  0.00     0.212 HD
ENDBRANCH  10  27
ENDBRANCH   8  10
ENDBRANCH   1   8
BRANCH   7  29
HETATM   29  C11 UNL     1       2.345 -34.819  23.257  1.00  0.00     0.262 C
HETATM   30  O3  UNL     1       3.331 -35.544  23.528  1.00  0.00    -0.267 OA
HETATM   31  N9  UNL     1       1.044 -35.355  23.426  1.00  0.00    -0.289 N
ATOM     32  H9  UNL     1       0.307 -34.694  23.182  1.00  0.00     0.172 HD
BRANCH  31  33
HETATM   33  C12 UNL     1       0.561 -36.558  23.843  1.00  0.00     0.217 C
HETATM   34  N10 UNL     1       0.094 -37.729  24.245  1.00  0.00    -0.365 N
ATOM     35 2H10 UNL     1      -0.370 -37.261  25.023  1.00  0.00     0.159 HD
ATOM     36 1H10 UNL     1      -0.267 -38.630  24.558  1.00  0.00     0.159 HD
BRANCH  33  37
HETATM   37  O4  UNL     1       1.306 -37.311  22.592  1.00  0.00    -0.333 OA
ATOM     38  H4  UNL     1       1.192 -38.154  23.016  1.00  0.00     0.220 HD
ENDBRANCH  33  37
ENDBRANCH  31  33
ENDBRANCH   7  29
BRANCH   5  39
HETATM   39  C8  UNL     1       3.490 -30.111  24.078  1.00  0.00     0.148 A
HETATM   40  N5  UNL     1       2.814 -29.016  24.417  1.00  0.00    -0.268 N
HETATM   41  N6  UNL     1       3.549 -28.300  25.272  1.00  0.00    -0.227 N
ATOM     42  H5  UNL     1       1.885 -28.764  24.079  1.00  0.00     0.190 HD
HETATM   43  N7  UNL     1       4.680 -28.943  25.466  1.00  0.00    -0.227 N
ATOM     44  H6  UNL     1       3.281 -27.413  25.699  1.00  0.00     0.210 HD
HETATM   45  N8  UNL     1       4.662 -30.058  24.742  1.00  0.00    -0.268 N
ATOM     46  H7  UNL     1       5.443 -28.638  26.070  1.00  0.00     0.210 HD
ATOM     47  H8  UNL     1       5.407 -30.754  24.697  1.00  0.00     0.190 HD
ENDBRANCH   5  39
TORSDOF 11
ENDMDL