MODEL 3
REMARK VINA RESULT: -7.985112494      1.186      1.592
REMARK  15 active torsions:
REMARK  status: ('A' for Active; 'I' for Inactive)
REMARK    1  A    between atoms: N1_2  and  C3_4
REMARK    2  A    between atoms: C6_13  and  N5_14
REMARK    3  A    between atoms: C8_20  and  C9_21
REMARK    4  A    between atoms: C11_26  and  C12_27
REMARK    5  A    between atoms: C12_27  and  C13_29
REMARK    6  A    between atoms: C13_29  and  N9_30
REMARK    7  A    between atoms: C13_29  and  C14_34
REMARK    8  A    between atoms: C14_34  and  C15_35
REMARK    9  A    between atoms: C14_34  and  C16_40
REMARK   10  A    between atoms: C15_35  and  O2_36
REMARK   11  A    between atoms: C15_35  and  O3_38
REMARK   12  A    between atoms: C16_40  and  O4_41
REMARK   13  A    between atoms: C16_40  and  O5_43
REMARK   14  A    between atoms: C16_40  and  C17_45
REMARK   15  A    between atoms: C17_45  and  O6_46
ROOT
HETATM    1  C9  UNL     1      -7.717 -36.392  22.617  1.00  0.00     0.107 A
HETATM    2  N7  UNL     1      -7.628 -35.423  21.740  1.00  0.00    -0.336 N
ATOM      3  H7  UNL     1      -8.481 -34.982  21.399  1.00  0.00     0.168 HD
HETATM    4  C10 UNL     1      -6.489 -35.013  21.296  1.00  0.00     0.138 A
HETATM    5  N8  UNL     1      -6.402 -33.929  20.316  1.00  0.00    -0.081 NA
HETATM    6  C11 UNL     1      -5.347 -35.642  21.785  1.00  0.00     0.096 A
HETATM    7  S1  UNL     1      -6.069 -36.778  22.853  1.00  0.00    -0.063 SA
ENDROOT
BRANCH   6   8
HETATM    8  C12 UNL     1      -3.955 -35.383  21.455  1.00  0.00     0.200 C
HETATM    9  O1  UNL     1      -3.394 -34.545  22.214  1.00  0.00    -0.289 OA
BRANCH   8  10
HETATM   10  C13 UNL     1      -3.300 -36.046  20.346  1.00  0.00     0.272 C
BRANCH  10  11
HETATM   11  N9  UNL     1      -4.227 -37.093  19.878  1.00  0.00    -0.067 N
ATOM     12  H93 UNL     1      -4.641 -37.634  20.637  1.00  0.00     0.275 HD
ATOM     13  H92 UNL     1      -5.098 -36.721  19.499  1.00  0.00     0.275 HD
ATOM     14  H91 UNL     1      -3.707 -37.663  19.213  1.00  0.00     0.275 HD
ENDBRANCH  10  11
BRANCH  10  15
HETATM   15  C14 UNL     1      -2.008 -36.723  20.530  1.00  0.00     0.143 C
BRANCH  15  16
HETATM   16  C15 UNL     1      -2.172 -37.941  21.395  1.00  0.00     0.265 C
BRANCH  16  17
HETATM   17  O2  UNL     1      -2.252 -39.148  20.723  1.00  0.00    -0.371 OA
ATOM     18  H2  UNL     1      -1.451 -39.443  20.308  1.00  0.00     0.212 HD
ENDBRANCH  16  17
BRANCH  16  19
HETATM   19  O3  UNL     1      -0.959 -38.030  22.143  1.00  0.00    -0.371 OA
ATOM     20  H3  UNL     1      -0.291 -38.253  21.505  1.00  0.00     0.212 HD
ENDBRANCH  16  19
ENDBRANCH  15  16
BRANCH  15  21
HETATM   21  C16 UNL     1      -1.095 -37.003  19.421  1.00  0.00     0.191 C
BRANCH  21  22
HETATM   22  O4  UNL     1      -1.495 -37.900  18.463  1.00  0.00    -0.363 OA
ATOM     23  H4  UNL     1      -1.706 -38.785  18.737  1.00  0.00     0.213 HD
ENDBRANCH  21  22
BRANCH  21  24
HETATM   24  O5  UNL     1      -0.028 -37.766  20.059  1.00  0.00    -0.363 OA
ATOM     25  H5  UNL     1       0.555 -37.964  19.335  1.00  0.00     0.213 HD
ENDBRANCH  21  24
BRANCH  21  26
HETATM   26  C17 UNL     1      -0.300 -35.819  18.888  1.00  0.00     0.233 C
BRANCH  26  27
HETATM   27  O6  UNL     1       0.939 -36.269  18.367  1.00  0.00    -0.396 OA
ATOM     28  H6  UNL     1       0.819 -36.578  17.477  1.00  0.00     0.209 HD
ENDBRANCH  26  27
ENDBRANCH  21  26
ENDBRANCH  15  21
ENDBRANCH  10  15
ENDBRANCH   8  10
ENDBRANCH   6   8
BRANCH   1  29
HETATM   29  C8  UNL     1      -8.833 -37.037  23.272  1.00  0.00     0.111 A
HETATM   30  C3  UNL     1      -9.503 -38.113  22.778  1.00  0.00     0.134 A
HETATM   31  N2  UNL     1     -10.541 -38.688  23.484  1.00  0.00    -0.325 N
HETATM   32  C4  UNL     1     -10.910 -38.207  24.659  1.00  0.00     0.139 A
ATOM     33  H2  UNL     1     -11.029 -39.494  23.094  1.00  0.00     0.169 HD
HETATM   34  N3  UNL     1     -11.912 -38.725  25.391  1.00  0.00    -0.337 N
HETATM   35  C7  UNL     1     -10.252 -37.119  25.181  1.00  0.00     0.121 A
HETATM   36  C5  UNL     1     -12.265 -38.210  26.584  1.00  0.00     0.183 A
ATOM     37  H3  UNL     1     -12.421 -39.532  25.030  1.00  0.00     0.168 HD
HETATM   38  N4  UNL     1     -11.632 -37.141  27.119  1.00  0.00    -0.337 N
HETATM   39  C6  UNL     1     -10.629 -36.602  26.414  1.00  0.00     0.130 A
ATOM     40  H4  UNL     1     -11.909 -36.760  28.024  1.00  0.00     0.168 HD
HETATM   41  N6  UNL     1      -9.245 -36.569  24.486  1.00  0.00    -0.345 N
ATOM     42  H6  UNL     1      -8.764 -35.762  24.885  1.00  0.00     0.166 HD
BRANCH  30  43
HETATM   43  N1  UNL     1      -9.188 -38.648  21.504  1.00  0.00    -0.374 N
HETATM   44  C1  UNL     1      -9.770 -38.080  20.322  1.00  0.00     0.150 C
HETATM   45  C2  UNL     1      -8.278 -39.764  21.435  1.00  0.00     0.150 C
ENDBRANCH  30  43
BRANCH  39  46
HETATM   46  N5  UNL     1      -9.992 -35.585  26.872  1.00  0.00    -0.383 N
ATOM     47  H52 UNL     1      -9.205 -35.222  26.333  1.00  0.00     0.157 HD
ATOM     48  H51 UNL     1     -10.272 -35.158  27.754  1.00  0.00     0.157 HD
ENDBRANCH  39  46
ENDBRANCH   1  29
TORSDOF 15
ENDMDL