MODEL 3
REMARK VINA RESULT: -9.321315689      1.302      1.632
REMARK  14 active torsions:
REMARK  status: ('A' for Active; 'I' for Inactive)
REMARK    1  A    between atoms: C3_5  and  C4_6
REMARK    2  A    between atoms: C4_6  and  C5_11
REMARK    3  A    between atoms: N2_7  and  O1_9
REMARK    4  A    between atoms: C5_11  and  N3_12
REMARK    5  A    between atoms: C5_11  and  C6_16
REMARK    6  A    between atoms: C6_16  and  C8_18
REMARK    7  A    between atoms: C8_18  and  C9_19
REMARK       I    between atoms: C9_19  and  N4_21
REMARK    8  A    between atoms: N4_21  and  C10_23
REMARK    9  A    between atoms: C10_23  and  O3_24
REMARK   10  A    between atoms: C10_23  and  C11_26
REMARK   11  A    between atoms: C13_30  and  N6_31
REMARK   12  A    between atoms: C14_36  and  C15_37
REMARK   13  A    between atoms: C17_43  and  N10_44
REMARK   14  A    between atoms: N10_44  and  O5_46
ROOT
HETATM    1  C10 UNL     1      -6.363 -35.394  21.583  1.00  0.00     0.289 C
ENDROOT
BRANCH   1   2
HETATM    2  N4  UNL     1      -5.320 -36.372  21.296  1.00  0.00    -0.329 N
HETATM    3  C9  UNL     1      -3.967 -36.131  21.672  1.00  0.00     0.220 C
HETATM    4  O2  UNL     1      -3.634 -35.061  22.264  1.00  0.00    -0.274 OA
ATOM      5  H4  UNL     1      -5.562 -37.240  20.819  1.00  0.00     0.165 HD
BRANCH   3   6
HETATM    6  C8  UNL     1      -2.941 -37.132  21.370  1.00  0.00     0.109 C
BRANCH   6   7
HETATM    7  C6  UNL     1      -1.563 -36.543  21.524  1.00  0.00     0.027 C
HETATM    8  C7  UNL     1      -0.669 -37.571  22.174  1.00  0.00     0.013 C
BRANCH   7   9
HETATM    9  C5  UNL     1      -1.058 -36.176  20.138  1.00  0.00     0.242 C
BRANCH   9  10
HETATM   10  C4  UNL     1      -0.947 -34.715  19.980  1.00  0.00     0.108 C
HETATM   11  N2  UNL     1      -1.987 -34.014  19.745  1.00  0.00    -0.268 N
ATOM     12  H2  UNL     1      -2.897 -34.468  19.673  1.00  0.00     0.194 HD
BRANCH  10  13
HETATM   13  C3  UNL     1       0.344 -34.068  20.083  1.00  0.00     0.154 A
HETATM   14  N1  UNL     1       0.747 -33.201  21.042  1.00  0.00    -0.322 N
HETATM   15  C2  UNL     1       2.009 -32.810  20.804  1.00  0.00     0.144 A
ATOM     16  H1  UNL     1       0.177 -32.891  21.829  1.00  0.00     0.169 HD
HETATM   17  C1  UNL     1       2.803 -31.856  21.644  1.00  0.00     0.100 C
HETATM   18  O6  UNL     1       2.375 -33.432  19.707  1.00  0.00    -0.223 OA
HETATM   19  N12 UNL     1       1.416 -34.178  19.262  1.00  0.00    -0.241 N
ATOM     20  H12 UNL     1       1.460 -34.758  18.424  1.00  0.00     0.196 HD
ENDBRANCH  10  13
BRANCH  11  21
HETATM   21  O1  UNL     1      -1.891 -32.654  19.587  1.00  0.00    -0.290 OA
ATOM     22  H1  UNL     1      -2.584 -32.082  19.896  1.00  0.00     0.244 HD
ENDBRANCH  11  21
ENDBRANCH   9  10
BRANCH   9  23
HETATM   23  N3  UNL     1      -1.964 -36.656  19.116  1.00  0.00    -0.069 N
ATOM     24  H33 UNL     1      -2.137 -37.659  19.177  1.00  0.00     0.275 HD
ATOM     25  H32 UNL     1      -2.925 -36.346  19.260  1.00  0.00     0.275 HD
ATOM     26  H31 UNL     1      -1.584 -36.371  18.213  1.00  0.00     0.275 HD
ENDBRANCH   9  23
ENDBRANCH   7   9
ENDBRANCH   6   7
ENDBRANCH   3   6
ENDBRANCH   1   2
BRANCH   1  27
HETATM   27  O3  UNL     1      -6.569 -34.629  20.459  1.00  0.00    -0.369 OA
ATOM     28  H3  UNL     1      -7.401 -34.179  20.548  1.00  0.00     0.212 HD
ENDBRANCH   1  27
BRANCH   1  29
HETATM   29  C11 UNL     1      -7.595 -36.154  21.931  1.00  0.00     0.133 A
HETATM   30  N5  UNL     1      -8.185 -35.990  23.139  1.00  0.00    -0.337 N
HETATM   31  C12 UNL     1      -9.292 -36.686  23.422  1.00  0.00     0.108 A
ATOM     32  H5  UNL     1      -7.791 -35.345  23.824  1.00  0.00     0.167 HD
HETATM   33  C13 UNL     1      -9.954 -36.574  24.635  1.00  0.00     0.130 A
HETATM   34  C16 UNL     1      -9.828 -37.561  22.497  1.00  0.00     0.111 A
HETATM   35  N7  UNL     1     -11.078 -37.287  24.909  1.00  0.00    -0.323 N
HETATM   36  C14 UNL     1     -11.573 -38.127  23.993  1.00  0.00     0.174 A
ATOM     37  H7  UNL     1     -11.543 -37.182  25.810  1.00  0.00     0.169 HD
HETATM   38  N9  UNL     1     -10.942 -38.252  22.801  1.00  0.00    -0.333 N
ATOM     39  H9  UNL     1     -11.325 -38.894  22.107  1.00  0.00     0.168 HD
HETATM   40  C17 UNL     1      -9.235 -37.735  21.267  1.00  0.00     0.156 A
HETATM   41  N11 UNL     1      -8.108 -37.001  21.031  1.00  0.00    -0.325 N
ATOM     42  H11 UNL     1      -7.639 -37.102  20.132  1.00  0.00     0.169 HD
BRANCH  33  43
HETATM   43  N6  UNL     1      -9.522 -35.786  25.542  1.00  0.00    -0.384 N
ATOM     44  H62 UNL     1      -9.532 -34.787  25.338  1.00  0.00     0.157 HD
ATOM     45  H61 UNL     1      -9.180 -36.154  26.430  1.00  0.00     0.157 HD
ENDBRANCH  33  43
BRANCH  36  46
HETATM   46  C15 UNL     1     -12.781 -38.912  24.251  1.00  0.00     0.298 C
HETATM   47  N8  UNL     1     -14.033 -38.469  23.774  1.00  0.00    -0.054 NA
HETATM   48  O4  UNL     1     -12.716 -39.975  24.891  1.00  0.00    -0.268 OA
ENDBRANCH  36  46
BRANCH  40  49
HETATM   49  N10 UNL     1      -9.711 -38.542  20.386  1.00  0.00    -0.251 N
ATOM     50  H10 UNL     1      -9.725 -39.549  20.550  1.00  0.00     0.196 HD
BRANCH  49  51
HETATM   51  O5  UNL     1     -10.203 -38.007  19.215  1.00  0.00    -0.288 OA
ATOM     52  H5  UNL     1     -11.046 -38.315  18.903  1.00  0.00     0.244 HD
ENDBRANCH  49  51
ENDBRANCH  40  49
ENDBRANCH   1  29
TORSDOF 14
ENDMDL