MODEL 2
REMARK VINA RESULT: -8.232557552      2.471      5.594
REMARK  12 active torsions:
REMARK  status: ('A' for Active; 'I' for Inactive)
REMARK       I    between atoms: N1_2  and  C2_4
REMARK       I    between atoms: C2_4  and  N2_5
REMARK    1  A    between atoms: N3_7  and  N4_9
REMARK    2  A    between atoms: N4_9  and  O1_10
REMARK    3  A    between atoms: N5_12  and  C3_14
REMARK    4  A    between atoms: C4_17  and  N7_18
REMARK    5  A    between atoms: C6_24  and  N9_25
REMARK    6  A    between atoms: N9_25  and  C7_27
REMARK    7  A    between atoms: C7_27  and  N10_28
REMARK    8  A    between atoms: C7_27  and  C10_39
REMARK    9  A    between atoms: N10_28  and  N11_30
REMARK       I    between atoms: N11_30  and  C8_32
REMARK   10  A    between atoms: C8_32  and  C9_34
REMARK   11  A    between atoms: C9_34  and  N12_35
REMARK   12  A    between atoms: C11_42  and  N14_43
REMARK       I    between atoms: N15_46  and  C12_47
ROOT
HETATM    1  C1  UNL     1      -8.281 -36.781  23.962  1.00  0.00     0.165 C
HETATM    2  N1  UNL     1      -6.868 -36.869  23.666  1.00  0.00    -0.228 N
ATOM      3  H1  UNL     1      -6.363 -36.008  23.459  1.00  0.00     0.177 HD
HETATM    4  C2  UNL     1      -6.150 -38.089  23.649  1.00  0.00     0.702 C
HETATM    5  N2  UNL     1      -4.774 -38.101  23.311  1.00  0.00    -0.114 N
ATOM      6  H2  UNL     1      -4.397 -38.812  22.685  1.00  0.00     0.207 HD
HETATM    7  N3  UNL     1      -4.030 -37.216  23.800  1.00  0.00    -0.186 N
ATOM      8  H3  UNL     1      -4.464 -36.533  24.419  1.00  0.00     0.213 HD
HETATM    9  N17 UNL     1      -6.745 -39.187  23.943  1.00  0.00    -0.125 N
ATOM     10  H17 UNL     1      -7.735 -39.137  24.184  1.00  0.00     0.197 HD
HETATM   11  C13 UNL     1      -6.142 -40.439  23.960  1.00  0.00     0.196 C
HETATM   12  N18 UNL     1      -5.642 -41.481  23.989  1.00  0.00    -0.171 NA
ENDROOT
BRANCH   7  13
HETATM   13  N4  UNL     1      -2.671 -37.086  23.571  1.00  0.00    -0.078 N
HETATM   14  N5  UNL     1      -1.978 -38.000  23.050  1.00  0.00    -0.240 N
ATOM     15  H5  UNL     1      -2.393 -38.888  22.769  1.00  0.00     0.193 HD
BRANCH  13  16
HETATM   16  O1  UNL     1      -2.061 -35.908  23.926  1.00  0.00    -0.252 OA
ATOM     17  H1  UNL     1      -2.168 -35.156  23.355  1.00  0.00     0.248 HD
ENDBRANCH  13  16
BRANCH  14  18
HETATM   18  C3  UNL     1      -0.575 -37.737  22.870  1.00  0.00     0.166 A
HETATM   19  N6  UNL     1       0.328 -37.958  23.813  1.00  0.00    -0.173 N
HETATM   20  C4  UNL     1       1.651 -37.719  23.600  1.00  0.00     0.677 A
ATOM     21  H6  UNL     1       0.025 -38.317  24.719  1.00  0.00     0.186 HD
HETATM   22  N8  UNL     1       2.031 -37.249  22.405  1.00  0.00    -0.200 N
HETATM   23  C5  UNL     1       1.151 -37.000  21.396  1.00  0.00     0.139 A
ATOM     24  H8  UNL     1       3.022 -37.069  22.244  1.00  0.00     0.183 HD
HETATM   25  C6  UNL     1      -0.177 -37.246  21.626  1.00  0.00     0.092 A
BRANCH  20  26
HETATM   26  N7  UNL     1       2.495 -37.955  24.558  1.00  0.00    -0.234 N
ATOM     27  H72 UNL     1       2.334 -37.653  25.519  1.00  0.00     0.174 HD
ATOM     28  H71 UNL     1       3.354 -38.462  24.346  1.00  0.00     0.174 HD
ENDBRANCH  20  26
BRANCH  25  29
HETATM   29  N9  UNL     1      -1.150 -36.988  20.634  1.00  0.00    -0.357 N
ATOM     30  H9  UNL     1      -1.535 -37.797  20.147  1.00  0.00     0.162 HD
BRANCH  29  31
HETATM   31  C7  UNL     1      -1.645 -35.710  20.246  1.00  0.00     0.276 C
BRANCH  31  32
HETATM   32  N10 UNL     1      -1.191 -34.582  20.980  1.00  0.00    -0.303 N
ATOM     33  H10 UNL     1      -1.677 -34.293  21.829  1.00  0.00     0.183 HD
BRANCH  32  34
HETATM   34  N11 UNL     1      -0.112 -33.892  20.547  1.00  0.00    -0.271 N
HETATM   35  C8  UNL     1       1.039 -33.591  21.272  1.00  0.00     0.261 C
HETATM   36  O2  UNL     1       1.262 -33.915  22.459  1.00  0.00    -0.270 OA
ATOM     37  H11 UNL     1      -0.143 -33.554  19.585  1.00  0.00     0.189 HD
BRANCH  35  38
HETATM   38  C9  UNL     1       2.120 -32.801  20.567  1.00  0.00     0.333 C
BRANCH  38  39
HETATM   39  N12 UNL     1       3.263 -33.654  20.343  1.00  0.00    -0.071 N
ATOM     40 3H12 UNL     1       3.850 -33.739  21.173  1.00  0.00     0.274 HD
ATOM     41 2H12 UNL     1       3.001 -34.635  20.250  1.00  0.00     0.274 HD
ATOM     42 1H12 UNL     1       3.782 -33.314  19.534  1.00  0.00     0.274 HD
ENDBRANCH  38  39
ENDBRANCH  35  38
ENDBRANCH  32  34
ENDBRANCH  31  32
BRANCH  31  43
HETATM   43  C10 UNL     1      -3.162 -35.722  20.411  1.00  0.00     0.206 A
HETATM   44  N13 UNL     1      -4.000 -36.714  20.055  1.00  0.00    -0.166 N
HETATM   45  C11 UNL     1      -5.257 -36.339  20.370  1.00  0.00     0.709 A
ATOM     46  H13 UNL     1      -3.730 -37.597  19.622  1.00  0.00     0.186 HD
HETATM   47  N15 UNL     1      -5.176 -35.121  20.915  1.00  0.00     0.010 N
HETATM   48  C12 UNL     1      -6.272 -34.356  21.394  1.00  0.00     0.375 C
HETATM   49  O4  UNL     1      -3.910 -34.778  20.926  1.00  0.00    -0.195 OA
HETATM   50  N16 UNL     1      -6.162 -33.067  21.975  1.00  0.00    -0.037 NA
HETATM   51  O3  UNL     1      -7.450 -34.852  21.302  1.00  0.00    -0.248 OA
BRANCH  45  52
HETATM   52  N14 UNL     1      -6.338 -37.052  20.170  1.00  0.00    -0.232 N
ATOM     53 2H14 UNL     1      -6.435 -38.065  20.241  1.00  0.00     0.174 HD
ATOM     54 1H14 UNL     1      -7.253 -36.682  19.908  1.00  0.00     0.174 HD
ENDBRANCH  45  52
ENDBRANCH  31  43
ENDBRANCH  29  31
ENDBRANCH  25  29
ENDBRANCH  14  18
ENDBRANCH   7  13
TORSDOF 12
ENDMDL