MODEL 5
REMARK VINA RESULT: -7.667621433      1.808      8.081
REMARK  13 active torsions:
REMARK  status: ('A' for Active; 'I' for Inactive)
REMARK    1  A    between atoms: N1_2  and  C3_4
REMARK    2  A    between atoms: C4_7  and  N3_8
REMARK    3  A    between atoms: N5_15  and  C7_16
REMARK    4  A    between atoms: C7_16  and  N6_19
REMARK    5  A    between atoms: N6_19  and  C10_21
REMARK    6  A    between atoms: C10_21  and  C11_22
REMARK    7  A    between atoms: C11_22  and  N7_23
REMARK    8  A    between atoms: N7_23  and  C12_26
REMARK    9  A    between atoms: C12_26  and  C13_27
REMARK   10  A    between atoms: C16_32  and  N9_33
REMARK   11  A    between atoms: N9_33  and  N10_35
REMARK   12  A    between atoms: C17_40  and  N12_41
REMARK   13  A    between atoms: N14_46  and  N15_47
ROOT
HETATM    1  N7  UNL     1      -2.653 -36.322  19.568  1.00  0.00    -0.064 N
ATOM      2  H71 UNL     1      -3.317 -36.333  18.794  1.00  0.00     0.278 HD
ATOM      3  H72 UNL     1      -3.033 -37.107  20.096  1.00  0.00     0.278 HD
ENDROOT
BRANCH   1   4
HETATM    4  C11 UNL     1      -2.701 -35.058  20.329  1.00  0.00     0.277 C
BRANCH   4   5
HETATM    5  C10 UNL     1      -3.765 -35.103  21.401  1.00  0.00     0.085 C
BRANCH   5   6
HETATM    6  N6  UNL     1      -4.005 -36.304  22.046  1.00  0.00    -0.375 N
ATOM      7  H6  UNL     1      -3.224 -36.748  22.529  1.00  0.00     0.161 HD
BRANCH   6   8
HETATM    8  C7  UNL     1      -5.266 -36.960  22.081  1.00  0.00     0.104 C
HETATM    9  C8  UNL     1      -6.466 -35.995  22.020  1.00  0.00     0.063 C
HETATM   10  C9  UNL     1      -5.366 -37.522  23.469  1.00  0.00     0.063 C
BRANCH   8  11
HETATM   11  N5  UNL     1      -5.383 -37.853  20.989  1.00  0.00    -0.300 N
HETATM   12  C6  UNL     1      -6.104 -37.555  19.887  1.00  0.00     0.187 A
HETATM   13  N4  UNL     1      -6.055 -38.600  19.046  1.00  0.00    -0.346 N
HETATM   14  C5  UNL     1      -5.323 -39.575  19.564  1.00  0.00     0.123 A
ATOM     15  H4  UNL     1      -6.517 -38.639  18.137  1.00  0.00     0.167 HD
HETATM   16  C4  UNL     1      -4.940 -40.822  19.182  1.00  0.00     0.145 A
HETATM   17  C19 UNL     1      -4.887 -39.095  20.814  1.00  0.00     0.157 A
HETATM   18  N2  UNL     1      -4.167 -41.572  19.978  1.00  0.00    -0.175 N
HETATM   19  C3  UNL     1      -3.747 -41.125  21.169  1.00  0.00     0.682 A
ATOM     20  H2  UNL     1      -3.892 -42.505  19.671  1.00  0.00     0.186 HD
HETATM   21  N16 UNL     1      -4.117 -39.883  21.572  1.00  0.00    -0.174 N
ATOM     22  H16 UNL     1      -3.798 -39.541  22.478  1.00  0.00     0.186 HD
BRANCH  16  23
HETATM   23  N3  UNL     1      -5.362 -41.244  18.026  1.00  0.00    -0.383 N
ATOM     24  H32 UNL     1      -5.234 -40.620  17.228  1.00  0.00     0.157 HD
ATOM     25  H31 UNL     1      -5.807 -42.154  17.908  1.00  0.00     0.157 HD
ENDBRANCH  16  23
BRANCH  19  26
HETATM   26  N1  UNL     1      -2.937 -41.977  21.960  1.00  0.00    -0.226 N
HETATM   27  C1  UNL     1      -3.068 -43.412  21.839  1.00  0.00     0.168 C
HETATM   28  C2  UNL     1      -1.950 -41.464  22.890  1.00  0.00     0.168 C
ENDBRANCH  19  26
ENDBRANCH   8  11
ENDBRANCH   6   8
ENDBRANCH   5   6
ENDBRANCH   4   5
ENDBRANCH   1   4
BRANCH   1  29
HETATM   29  C12 UNL     1      -1.324 -36.556  19.139  1.00  0.00     0.310 C
BRANCH  29  30
HETATM   30  C13 UNL     1      -0.343 -36.681  20.251  1.00  0.00     0.131 A
HETATM   31  N8  UNL     1      -0.249 -37.573  21.246  1.00  0.00    -0.327 N
HETATM   32  C14 UNL     1       0.802 -37.253  22.025  1.00  0.00     0.157 A
ATOM     33  H8  UNL     1      -0.872 -38.367  21.390  1.00  0.00     0.169 HD
HETATM   34  C15 UNL     1       1.376 -36.137  21.505  1.00  0.00     0.148 A
HETATM   35  N13 UNL     1       1.349 -37.794  23.155  1.00  0.00    -0.170 N
HETATM   36  C16 UNL     1       2.489 -35.590  22.137  1.00  0.00     0.168 A
HETATM   37  N14 UNL     1       0.674 -35.797  20.427  1.00  0.00    -0.241 N
HETATM   38  N11 UNL     1       3.006 -36.134  23.241  1.00  0.00    -0.173 N
HETATM   39  C17 UNL     1       2.417 -37.257  23.751  1.00  0.00     0.681 A
ATOM     40  H11 UNL     1       3.822 -35.722  23.693  1.00  0.00     0.186 HD
HETATM   41  C18 UNL     1       0.735 -38.979  23.696  1.00  0.00     0.177 C
BRANCH  36  42
HETATM   42  N9  UNL     1       3.046 -34.523  21.646  1.00  0.00    -0.290 N
ATOM     43  H9  UNL     1       3.306 -34.514  20.659  1.00  0.00     0.188 HD
BRANCH  42  44
HETATM   44  N10 UNL     1       3.301 -33.396  22.413  1.00  0.00    -0.344 N
ATOM     45 2H10 UNL     1       4.233 -32.985  22.357  1.00  0.00     0.176 HD
ATOM     46 1H10 UNL     1       2.596 -32.975  23.018  1.00  0.00     0.176 HD
ENDBRANCH  42  44
ENDBRANCH  36  42
BRANCH  39  47
HETATM   47  N12 UNL     1       2.955 -37.724  24.815  1.00  0.00    -0.234 N
ATOM     48 2H12 UNL     1       3.580 -37.192  25.421  1.00  0.00     0.174 HD
ATOM     49 1H12 UNL     1       2.724 -38.694  25.032  1.00  0.00     0.174 HD
ENDBRANCH  39  47
BRANCH  37  50
HETATM   50  N15 UNL     1       0.949 -34.703  19.603  1.00  0.00    -0.337 N
ATOM     51 2H15 UNL     1       1.185 -33.767  19.931  1.00  0.00     0.177 HD
ATOM     52 1H15 UNL     1       0.950 -34.717  18.583  1.00  0.00     0.177 HD
ENDBRANCH  37  50
ENDBRANCH  29  30
ENDBRANCH   1  29
TORSDOF 13
ENDMDL