MODEL 5
REMARK VINA RESULT: -9.434322205      1.111      2.529
REMARK  8 active torsions:
REMARK  status: ('A' for Active; 'I' for Inactive)
REMARK    1  A    between atoms: N1_1  and  C1_4
REMARK       I    between atoms: N5_15  and  C5_17
REMARK       I    between atoms: C5_17  and  N6_19
REMARK    2  A    between atoms: N6_19  and  C6_21
REMARK    3  A    between atoms: C6_21  and  C7_22
REMARK    4  A    between atoms: C8_26  and  N10_27
REMARK    5  A    between atoms: C9_32  and  C10_33
REMARK    6  A    between atoms: C10_33  and  O3_34
REMARK    7  A    between atoms: O3_34  and  N13_35
REMARK    8  A    between atoms: C11_37  and  C12_38
ROOT
HETATM    1  C7  UNL     1      -4.228 -34.183  21.203  1.00  0.00     0.253 C
HETATM    2  N7  UNL     1      -3.217 -34.532  20.237  1.00  0.00    -0.096 NA
HETATM    3  N8  UNL     1      -2.806 -33.352  19.598  1.00  0.00    -0.033 NA
HETATM    4  N9  UNL     1      -2.381 -32.402  20.530  1.00  0.00    -0.075 NA
HETATM    5  C8  UNL     1      -2.527 -32.851  21.886  1.00  0.00     0.364 C
HETATM    6  O4  UNL     1      -3.777 -33.303  22.161  1.00  0.00    -0.325 OA
ENDROOT
BRANCH   1   7
HETATM    7  C6  UNL     1      -4.856 -35.415  21.818  1.00  0.00     0.175 C
BRANCH   7   8
HETATM    8  N6  UNL     1      -5.296 -36.302  20.786  1.00  0.00    -0.339 N
HETATM    9  C5  UNL     1      -6.204 -37.379  20.915  1.00  0.00     0.321 C
HETATM   10  N5  UNL     1      -6.524 -38.155  19.792  1.00  0.00    -0.292 N
HETATM   11  O2  UNL     1      -6.734 -37.646  22.049  1.00  0.00    -0.247 OA
HETATM   12  C4  UNL     1      -6.119 -39.346  19.614  1.00  0.00     0.157 A
ATOM     13  H5  UNL     1      -7.117 -37.738  19.074  1.00  0.00     0.172 HD
HETATM   14  C3  UNL     1      -5.322 -40.022  20.493  1.00  0.00     0.147 A
HETATM   15  N17 UNL     1      -6.483 -40.024  18.479  1.00  0.00    -0.174 N
HETATM   16  C2  UNL     1      -4.897 -41.407  20.198  1.00  0.00     0.175 A
HETATM   17  N4  UNL     1      -4.756 -39.759  21.669  1.00  0.00    -0.234 N
HETATM   18  N2  UNL     1      -5.302 -41.971  19.075  1.00  0.00    -0.173 N
HETATM   19  N3  UNL     1      -4.133 -41.761  21.261  1.00  0.00    -0.223 N
HETATM   20  C1  UNL     1      -6.086 -41.275  18.235  1.00  0.00     0.679 A
ATOM     21  H2  UNL     1      -5.023 -42.925  18.848  1.00  0.00     0.186 HD
HETATM   22  O1  UNL     1      -4.075 -40.771  22.097  1.00  0.00    -0.155 OA
ATOM     23  H3  UNL     1      -3.674 -42.664  21.383  1.00  0.00     0.198 HD
ATOM     24  H4  UNL     1      -4.847 -38.874  22.168  1.00  0.00     0.197 HD
ATOM     25  H17 UNL     1      -7.079 -39.555  17.796  1.00  0.00     0.186 HD
ATOM     26  H6  UNL     1      -4.913 -36.139  19.855  1.00  0.00     0.164 HD
BRANCH  20  27
HETATM   27  N1  UNL     1      -6.472 -41.843  17.131  1.00  0.00    -0.234 N
ATOM     28  H12 UNL     1      -5.759 -42.155  16.472  1.00  0.00     0.174 HD
ATOM     29  H11 UNL     1      -7.472 -41.959  16.965  1.00  0.00     0.174 HD
ENDBRANCH  20  27
ENDBRANCH   7   8
ENDBRANCH   1   7
BRANCH   5  30
HETATM   30  N10 UNL     1      -1.481 -33.796  22.241  1.00  0.00    -0.217 N
HETATM   31  N11 UNL     1      -1.712 -34.996  22.802  1.00  0.00    -0.235 N
HETATM   32  N12 UNL     1      -0.553 -35.588  22.992  1.00  0.00    -0.285 N
ATOM     33  H11 UNL     1      -2.626 -35.381  23.039  1.00  0.00     0.208 HD
HETATM   34  C9  UNL     1       0.446 -34.801  22.567  1.00  0.00     0.096 A
ATOM     35  H12 UNL     1      -0.432 -36.514  23.404  1.00  0.00     0.188 HD
HETATM   36  C15 UNL     1      -0.160 -33.658  22.089  1.00  0.00     0.164 A
HETATM   37  N16 UNL     1       0.491 -32.532  21.524  1.00  0.00    -0.079 NA
BRANCH  34  38
HETATM   38  C10 UNL     1       1.939 -35.077  22.593  1.00  0.00     0.263 C
BRANCH  38  39
HETATM   39  O3  UNL     1       2.175 -36.195  21.862  1.00  0.00    -0.275 OA
BRANCH  39  40
HETATM   40  N13 UNL     1       1.721 -37.338  21.523  1.00  0.00    -0.275 N
HETATM   41  C11 UNL     1       0.887 -37.790  20.725  1.00  0.00     0.144 C
ATOM     42  H13 UNL     1       2.167 -38.085  22.054  1.00  0.00     0.193 HD
BRANCH  41  43
HETATM   43  C12 UNL     1       0.035 -37.098  19.789  1.00  0.00     0.066 A
HETATM   44  C13 UNL     1      -1.338 -37.338  19.639  1.00  0.00     0.119 A
HETATM   45  N14 UNL     1      -1.846 -36.529  18.693  1.00  0.00    -0.360 N
HETATM   46  C14 UNL     1      -0.839 -35.773  18.225  1.00  0.00     0.180 A
ATOM     47  H14 UNL     1      -2.818 -36.496  18.385  1.00  0.00     0.166 HD
HETATM   48  N15 UNL     1       0.279 -36.132  18.897  1.00  0.00    -0.350 N
ATOM     49  H15 UNL     1       1.196 -35.716  18.741  1.00  0.00     0.166 HD
ENDBRANCH  41  43
ENDBRANCH  39  40
ENDBRANCH  38  39
ENDBRANCH  34  38
ENDBRANCH   5  30
TORSDOF 8
ENDMDL