MODEL 2
REMARK VINA RESULT: -8.974447198      2.167      3.272
REMARK  11 active torsions:
REMARK  status: ('A' for Active; 'I' for Inactive)
REMARK    1  A    between atoms: N4_10  and  C5_11
REMARK    2  A    between atoms: N6_15  and  C7_16
REMARK    3  A    between atoms: C7_16  and  O1_17
REMARK    4  A    between atoms: C7_16  and  C8_19
REMARK       I    between atoms: C8_19  and  N7_21
REMARK    5  A    between atoms: N7_21  and  C9_23
REMARK    6  A    between atoms: C9_23  and  O3_24
REMARK    7  A    between atoms: C9_23  and  N8_26
REMARK    8  A    between atoms: N8_26  and  C10_29
REMARK    9  A    between atoms: C10_29  and  C11_30
REMARK   10  A    between atoms: C10_29  and  C13_37
REMARK   11  A    between atoms: C15_42  and  N13_43
ROOT
HETATM    1  C9  UNL     1       0.315 -37.295  20.009  1.00  0.00     0.430 C
ENDROOT
BRANCH   1   2
HETATM    2  N7  UNL     1      -0.720 -37.872  20.866  1.00  0.00    -0.308 N
HETATM    3  C8  UNL     1      -2.035 -38.106  20.415  1.00  0.00     0.273 C
HETATM    4  O2  UNL     1      -2.302 -37.796  19.222  1.00  0.00    -0.268 OA
ATOM      5  H7  UNL     1      -0.481 -38.115  21.828  1.00  0.00     0.166 HD
BRANCH   3   6
HETATM    6  C7  UNL     1      -3.110 -38.680  21.227  1.00  0.00     0.352 C
BRANCH   6   7
HETATM    7  N6  UNL     1      -4.354 -37.941  21.116  1.00  0.00    -0.193 N
HETATM    8  N5  UNL     1      -4.787 -37.192  20.129  1.00  0.00    -0.289 N
HETATM    9  C6  UNL     1      -5.991 -36.690  20.429  1.00  0.00     0.160 A
ATOM     10  H5  UNL     1      -4.280 -37.018  19.261  1.00  0.00     0.188 HD
HETATM   11  C5  UNL     1      -6.329 -37.151  21.674  1.00  0.00     0.158 A
HETATM   12  N16 UNL     1      -5.283 -37.918  22.050  1.00  0.00    -0.263 N
ATOM     13  H16 UNL     1      -5.220 -38.413  22.940  1.00  0.00     0.190 HD
BRANCH  11  14
HETATM   14  N4  UNL     1      -7.516 -36.876  22.400  1.00  0.00    -0.242 N
HETATM   15  C2  UNL     1      -8.866 -37.301  22.135  1.00  0.00     0.121 A
HETATM   16  C1  UNL     1      -8.918 -38.794  22.246  1.00  0.00     0.065 C
HETATM   17  C3  UNL     1      -9.367 -36.803  20.796  1.00  0.00     0.065 C
HETATM   18  N1  UNL     1      -9.633 -36.725  23.204  1.00  0.00    -0.336 N
HETATM   19  C4  UNL     1      -8.910 -36.043  24.011  1.00  0.00     0.205 A
ATOM     20  H1  UNL     1     -10.641 -36.845  23.308  1.00  0.00     0.164 HD
HETATM   21  N2  UNL     1      -9.382 -35.357  25.158  1.00  0.00    -0.062 NA
HETATM   22  N3  UNL     1      -7.563 -36.100  23.557  1.00  0.00    -0.267 N
ATOM     23  H3  UNL     1      -6.765 -35.650  24.004  1.00  0.00     0.190 HD
ENDBRANCH  11  14
ENDBRANCH   6   7
BRANCH   6  24
HETATM   24  O1  UNL     1      -2.712 -38.547  22.578  1.00  0.00    -0.366 OA
ATOM     25  H1  UNL     1      -1.785 -38.339  22.550  1.00  0.00     0.212 HD
ENDBRANCH   6  24
ENDBRANCH   3   6
ENDBRANCH   1   2
BRANCH   1  26
HETATM   26  O3  UNL     1       1.527 -37.776  20.411  1.00  0.00    -0.354 OA
ATOM     27  H3  UNL     1       1.689 -38.596  19.960  1.00  0.00     0.214 HD
ENDBRANCH   1  26
BRANCH   1  28
HETATM   28  N8  UNL     1       0.189 -35.853  19.952  1.00  0.00    -0.016 N
ATOM     29  H82 UNL     1       1.045 -35.424  19.600  1.00  0.00     0.283 HD
ATOM     30  H81 UNL     1      -0.453 -35.571  19.212  1.00  0.00     0.283 HD
BRANCH  28  31
HETATM   31  C10 UNL     1      -0.189 -35.288  21.197  1.00  0.00     0.289 C
BRANCH  31  32
HETATM   32  C11 UNL     1       0.713 -34.173  21.663  1.00  0.00     0.103 A
HETATM   33  N9  UNL     1       0.595 -32.860  21.604  1.00  0.00    -0.295 N
HETATM   34  N10 UNL     1       1.490 -32.107  22.068  1.00  0.00    -0.305 N
ATOM     35  H9  UNL     1      -0.235 -32.450  21.176  1.00  0.00     0.187 HD
HETATM   36  C12 UNL     1       2.576 -32.633  22.628  1.00  0.00     0.158 A
ATOM     37  H10 UNL     1       1.382 -31.094  22.016  1.00  0.00     0.186 HD
HETATM   38  S1  UNL     1       2.247 -34.307  22.455  1.00  0.00    -0.066 SA
ENDBRANCH  31  32
BRANCH  31  39
HETATM   39  C13 UNL     1      -1.556 -34.839  21.365  1.00  0.00     0.065 A
HETATM   40  C14 UNL     1      -2.157 -34.075  20.348  1.00  0.00     0.144 A
HETATM   41  N11 UNL     1      -1.387 -33.756  19.192  1.00  0.00    -0.081 NA
HETATM   42  N12 UNL     1      -3.432 -33.648  20.444  1.00  0.00    -0.178 N
HETATM   43  C15 UNL     1      -4.177 -33.937  21.520  1.00  0.00     0.678 A
ATOM     44  H12 UNL     1      -3.836 -33.096  19.687  1.00  0.00     0.185 HD
HETATM   45  N14 UNL     1      -3.631 -34.656  22.495  1.00  0.00    -0.177 N
HETATM   46  C16 UNL     1      -2.331 -35.118  22.443  1.00  0.00     0.126 A
ATOM     47  H14 UNL     1      -4.196 -34.876  23.316  1.00  0.00     0.186 HD
HETATM   48  N15 UNL     1      -1.919 -35.796  23.431  1.00  0.00    -0.384 N
ATOM     49 2H15 UNL     1      -0.958 -36.137  23.392  1.00  0.00     0.157 HD
ATOM     50 1H15 UNL     1      -2.502 -36.006  24.241  1.00  0.00     0.157 HD
BRANCH  43  51
HETATM   51  N13 UNL     1      -5.396 -33.503  21.567  1.00  0.00    -0.234 N
ATOM     52 2H13 UNL     1      -6.120 -33.818  20.921  1.00  0.00     0.174 HD
ATOM     53 1H13 UNL     1      -5.646 -32.819  22.281  1.00  0.00     0.174 HD
ENDBRANCH  43  51
ENDBRANCH  31  39
ENDBRANCH  28  31
ENDBRANCH   1  28
TORSDOF 11
ENDMDL