MODEL 5
REMARK VINA RESULT: -8.832058330      2.929      7.236
REMARK  14 active torsions:
REMARK  status: ('A' for Active; 'I' for Inactive)
REMARK    1  A    between atoms: C2_2  and  N1_3
REMARK    2  A    between atoms: C2_2  and  C18_49
REMARK    3  A    between atoms: N1_3  and  C3_6
REMARK    4  A    between atoms: C3_6  and  O1_7
REMARK    5  A    between atoms: C3_6  and  N2_9
REMARK    6  A    between atoms: N2_9  and  C4_11
REMARK    7  A    between atoms: C5_14  and  N4_15
REMARK    8  A    between atoms: C8_18  and  C9_19
REMARK    9  A    between atoms: C10_22  and  O4_23
REMARK   10  A    between atoms: C12_28  and  N6_29
REMARK   11  A    between atoms: N7_31  and  C13_33
REMARK   12  A    between atoms: C14_36  and  N9_37
REMARK   13  A    between atoms: C18_49  and  N14_50
REMARK   14  A    between atoms: C18_49  and  O5_54
ROOT
HETATM    1  C13 UNL     1      -4.844 -41.431  19.775  1.00  0.00     0.163 A
HETATM    2  N8  UNL     1      -4.087 -42.442  20.241  1.00  0.00    -0.174 N
ATOM      3  H8  UNL     1      -3.511 -42.285  21.068  1.00  0.00     0.186 HD
HETATM    4  C14 UNL     1      -4.064 -43.653  19.654  1.00  0.00     0.678 A
HETATM    5  N10 UNL     1      -4.820 -43.865  18.565  1.00  0.00    -0.180 N
ATOM      6  H10 UNL     1      -4.809 -44.779  18.113  1.00  0.00     0.185 HD
HETATM    7  C15 UNL     1      -5.597 -42.877  18.062  1.00  0.00     0.157 A
HETATM    8  C16 UNL     1      -6.411 -43.086  16.899  1.00  0.00     0.120 C
HETATM    9  N11 UNL     1      -7.065 -43.271  15.980  1.00  0.00    -0.190 NA
HETATM   10  C17 UNL     1      -5.627 -41.631  18.658  1.00  0.00     0.130 A
HETATM   11  N12 UNL     1      -6.448 -40.618  18.109  1.00  0.00    -0.095 NA
ENDROOT
BRANCH   4  12
HETATM   12  N9  UNL     1      -3.350 -44.642  20.076  1.00  0.00    -0.234 N
ATOM     13  H92 UNL     1      -3.801 -45.556  20.113  1.00  0.00     0.174 HD
ATOM     14  H91 UNL     1      -2.377 -44.557  20.368  1.00  0.00     0.174 HD
ENDBRANCH   4  12
BRANCH   1  15
HETATM   15  N7  UNL     1      -4.861 -40.161  20.403  1.00  0.00    -0.269 N
HETATM   16  N6  UNL     1      -4.431 -39.136  19.787  1.00  0.00    -0.129 N
ATOM     17  H6  UNL     1      -4.074 -39.246  18.838  1.00  0.00     0.205 HD
ATOM     18  H7  UNL     1      -5.221 -40.069  21.352  1.00  0.00     0.189 HD
BRANCH  16  19
HETATM   19  C12 UNL     1      -4.428 -37.852  20.370  1.00  0.00     0.726 A
HETATM   20  N5  UNL     1      -3.318 -37.097  20.293  1.00  0.00    -0.020 N
HETATM   21  C5  UNL     1      -3.209 -35.856  20.814  1.00  0.00     0.709 A
ATOM     22  H5  UNL     1      -2.508 -37.486  19.810  1.00  0.00     0.203 HD
HETATM   23  N3  UNL     1      -4.311 -35.377  21.447  1.00  0.00    -0.021 N
HETATM   24  C4  UNL     1      -5.444 -36.084  21.555  1.00  0.00     0.710 A
ATOM     25  H3  UNL     1      -4.275 -34.443  21.855  1.00  0.00     0.203 HD
HETATM   26  N13 UNL     1      -5.480 -37.312  21.013  1.00  0.00    -0.020 N
ATOM     27  H13 UNL     1      -6.339 -37.857  21.091  1.00  0.00     0.203 HD
BRANCH  21  28
HETATM   28  N4  UNL     1      -2.019 -35.089  20.710  1.00  0.00    -0.214 N
HETATM   29  C6  UNL     1      -1.788 -34.307  19.542  1.00  0.00     0.142 C
HETATM   30  C7  UNL     1      -0.617 -33.362  19.685  1.00  0.00     0.038 C
HETATM   31  C8  UNL     1       0.603 -34.037  20.231  1.00  0.00     0.118 C
HETATM   32  C10 UNL     1       0.351 -34.992  21.344  1.00  0.00     0.151 C
HETATM   33  C11 UNL     1      -1.072 -35.117  21.780  1.00  0.00     0.173 C
BRANCH  31  34
HETATM   34  C9  UNL     1       1.522 -32.962  20.737  1.00  0.00     0.179 C
HETATM   35  O2  UNL     1       1.170 -32.141  21.622  1.00  0.00    -0.648 OA
HETATM   36  O3  UNL     1       2.825 -32.828  20.237  1.00  0.00    -0.648 OA
ENDBRANCH  31  34
BRANCH  32  37
HETATM   37  O4  UNL     1       0.822 -36.264  20.942  1.00  0.00    -0.393 OA
ATOM     38  H4  UNL     1       0.113 -36.886  21.052  1.00  0.00     0.210 HD
ENDBRANCH  32  37
ENDBRANCH  21  28
BRANCH  24  39
HETATM   39  N2  UNL     1      -6.494 -35.638  22.150  1.00  0.00    -0.173 N
ATOM     40  H2  UNL     1      -6.485 -35.576  23.167  1.00  0.00     0.182 HD
BRANCH  39  41
HETATM   41  C3  UNL     1      -7.694 -35.215  21.443  1.00  0.00     0.441 C
BRANCH  41  42
HETATM   42  N1  UNL     1      -8.127 -36.339  20.649  1.00  0.00    -0.022 N
ATOM     43  H12 UNL     1      -7.329 -36.909  20.369  1.00  0.00     0.283 HD
ATOM     44  H11 UNL     1      -8.446 -36.029  19.732  1.00  0.00     0.283 HD
BRANCH  42  45
HETATM   45  C2  UNL     1      -9.122 -37.143  21.283  1.00  0.00     0.242 C
HETATM   46  C1  UNL     1      -9.780 -36.479  22.468  1.00  0.00     0.045 C
BRANCH  45  47
HETATM   47  C18 UNL     1      -8.625 -38.533  21.624  1.00  0.00     0.346 C
BRANCH  47  48
HETATM   48  N14 UNL     1      -9.686 -39.487  21.724  1.00  0.00    -0.051 N
ATOM     49 3H14 UNL     1      -9.718 -40.087  20.901  1.00  0.00     0.277 HD
ATOM     50 2H14 UNL     1      -9.481 -40.191  22.433  1.00  0.00     0.277 HD
ATOM     51 1H14 UNL     1     -10.592 -39.049  21.894  1.00  0.00     0.277 HD
ENDBRANCH  47  48
BRANCH  47  52
HETATM   52  O5  UNL     1      -7.716 -38.980  20.667  1.00  0.00    -0.368 OA
ATOM     53  H5  UNL     1      -8.170 -39.340  19.914  1.00  0.00     0.212 HD
ENDBRANCH  47  52
ENDBRANCH  45  47
ENDBRANCH  42  45
ENDBRANCH  41  42
BRANCH  41  54
HETATM   54  O1  UNL     1      -7.265 -34.145  20.630  1.00  0.00    -0.354 OA
ATOM     55  H1  UNL     1      -6.418 -34.324  20.239  1.00  0.00     0.214 HD
ENDBRANCH  41  54
ENDBRANCH  39  41
ENDBRANCH  24  39
ENDBRANCH  16  19
ENDBRANCH   1  15
TORSDOF 14
ENDMDL