MODEL 4
REMARK VINA RESULT: -9.119854284      4.057      8.089
REMARK  13 active torsions:
REMARK  status: ('A' for Active; 'I' for Inactive)
REMARK    1  A    between atoms: O1_2  and  C2_3
REMARK    2  A    between atoms: C2_3  and  C3_5
REMARK    3  A    between atoms: C4_6  and  O3_7
REMARK    4  A    between atoms: N1_9  and  C5_10
REMARK    5  A    between atoms: C8_19  and  C9_20
REMARK    6  A    between atoms: C9_20  and  O4_21
REMARK    7  A    between atoms: C9_20  and  N6_23
REMARK    8  A    between atoms: N6_23  and  N7_25
REMARK    9  A    between atoms: C10_27  and  O5_28
REMARK   10  A    between atoms: C10_27  and  N8_30
REMARK   11  A    between atoms: N8_30  and  N9_32
REMARK   12  A    between atoms: C12_34  and  C14_36
REMARK   13  A    between atoms: C15_45  and  O6_46
ROOT
HETATM    1  C9  UNL     1      -3.578 -37.912  20.481  1.00  0.00     0.287 C
ENDROOT
BRANCH   1   2
HETATM    2  C8  UNL     1      -4.966 -37.491  20.784  1.00  0.00     0.123 A
HETATM    3  N1  UNL     1      -5.220 -36.170  20.927  1.00  0.00    -0.121 N
HETATM    4  C4  UNL     1      -6.476 -35.775  21.175  1.00  0.00     0.184 A
HETATM    5  C3  UNL     1      -7.536 -36.623  21.295  1.00  0.00     0.144 A
HETATM    6  C16 UNL     1      -7.295 -37.965  21.154  1.00  0.00     0.227 A
HETATM    7  C15 UNL     1      -5.988 -38.408  20.894  1.00  0.00     0.145 A
HETATM    8  O7  UNL     1      -8.193 -38.812  21.246  1.00  0.00    -0.284 OA
BRANCH   3   9
HETATM    9  C5  UNL     1      -4.129 -35.253  20.806  1.00  0.00     0.694 A
HETATM   10  N2  UNL     1      -3.249 -35.109  19.827  1.00  0.00    -0.175 N
HETATM   11  C6  UNL     1      -2.399 -34.124  20.137  1.00  0.00     0.173 A
ATOM     12  H2  UNL     1      -3.223 -35.662  18.970  1.00  0.00     0.185 HD
HETATM   13  N3  UNL     1      -1.290 -33.646  19.343  1.00  0.00    -0.079 NA
HETATM   14  C7  UNL     1      -2.772 -33.637  21.368  1.00  0.00     0.173 A
HETATM   15  N4  UNL     1      -2.150 -32.585  22.082  1.00  0.00    -0.079 NA
HETATM   16  N5  UNL     1      -3.838 -34.348  21.757  1.00  0.00    -0.175 N
ATOM     17  H5  UNL     1      -4.346 -34.223  22.633  1.00  0.00     0.185 HD
ENDBRANCH   3   9
BRANCH   4  18
HETATM   18  O3  UNL     1      -6.683 -34.407  21.312  1.00  0.00    -0.344 OA
ATOM     19  H3  UNL     1      -6.508 -33.994  22.150  1.00  0.00     0.219 HD
ENDBRANCH   4  18
BRANCH   5  20
HETATM   20  C2  UNL     1      -8.899 -36.114  21.568  1.00  0.00     0.301 C
HETATM   21  O2  UNL     1      -9.528 -35.491  20.676  1.00  0.00    -0.259 OA
BRANCH  20  22
HETATM   22  O1  UNL     1      -9.510 -36.303  22.784  1.00  0.00    -0.322 OA
HETATM   23  C1  UNL     1      -8.864 -36.076  24.023  1.00  0.00     0.213 C
ENDBRANCH  20  22
ENDBRANCH   5  20
BRANCH   7  24
HETATM   24  O6  UNL     1      -5.807 -39.770  20.764  1.00  0.00    -0.355 OA
ATOM     25  H6  UNL     1      -6.003 -40.252  19.970  1.00  0.00     0.218 HD
ENDBRANCH   7  24
ENDBRANCH   1   2
BRANCH   1  26
HETATM   26  O4  UNL     1      -3.467 -38.864  19.491  1.00  0.00    -0.370 OA
ATOM     27  H4  UNL     1      -2.651 -38.840  19.006  1.00  0.00     0.212 HD
ENDBRANCH   1  26
BRANCH   1  28
HETATM   28  N6  UNL     1      -2.936 -38.444  21.689  1.00  0.00    -0.299 N
ATOM     29  H6  UNL     1      -3.250 -39.314  22.119  1.00  0.00     0.183 HD
BRANCH  28  30
HETATM   30  N7  UNL     1      -1.883 -37.710  22.223  1.00  0.00    -0.266 N
HETATM   31  C10 UNL     1      -2.069 -36.955  23.236  1.00  0.00     0.253 C
ATOM     32  H7  UNL     1      -0.956 -37.775  21.803  1.00  0.00     0.190 HD
BRANCH  31  33
HETATM   33  O5  UNL     1      -3.327 -36.876  23.796  1.00  0.00    -0.330 OA
ATOM     34  H5  UNL     1      -3.425 -36.978  24.735  1.00  0.00     0.221 HD
ENDBRANCH  31  33
BRANCH  31  35
HETATM   35  N8  UNL     1      -1.011 -36.213  23.777  1.00  0.00    -0.260 N
HETATM   36  C11 UNL     1      -0.499 -36.543  25.118  1.00  0.00     0.181 C
BRANCH  35  37
HETATM   37  N9  UNL     1      -0.395 -35.156  23.121  1.00  0.00    -0.297 N
HETATM   38  C12 UNL     1       0.760 -35.284  22.560  1.00  0.00     0.069 C
HETATM   39  C13 UNL     1       1.420 -36.611  22.639  1.00  0.00     0.074 C
ATOM     40  H9  UNL     1      -0.868 -34.254  23.081  1.00  0.00     0.187 HD
BRANCH  38  41
HETATM   41  C14 UNL     1       1.409 -34.171  21.873  1.00  0.00     0.161 A
HETATM   42  N10 UNL     1       0.973 -32.919  21.684  1.00  0.00    -0.267 N
HETATM   43  N11 UNL     1       1.914 -32.257  20.997  1.00  0.00    -0.227 N
ATOM     44  H10 UNL     1       0.083 -32.538  22.005  1.00  0.00     0.190 HD
HETATM   45  N12 UNL     1       2.920 -33.068  20.758  1.00  0.00    -0.227 N
ATOM     46  H11 UNL     1       1.858 -31.281  20.707  1.00  0.00     0.210 HD
HETATM   47  N13 UNL     1       2.616 -34.241  21.291  1.00  0.00    -0.267 N
ATOM     48  H12 UNL     1       3.777 -32.837  20.255  1.00  0.00     0.210 HD
ATOM     49  H13 UNL     1       3.209 -35.071  21.265  1.00  0.00     0.190 HD
ENDBRANCH  38  41
ENDBRANCH  35  37
ENDBRANCH  31  35
ENDBRANCH  28  30
ENDBRANCH   1  28
TORSDOF 13
ENDMDL