MODEL 4
REMARK VINA RESULT: -8.728596536      1.399      1.667
REMARK  13 active torsions:
REMARK  status: ('A' for Active; 'I' for Inactive)
REMARK    1  A    between atoms: N3_8  and  C3_9
REMARK    2  A    between atoms: C4_12  and  O1_13
REMARK    3  A    between atoms: O1_13  and  C5_14
REMARK    4  A    between atoms: C5_14  and  O2_15
REMARK    5  A    between atoms: C6_17  and  C7_18
REMARK    6  A    between atoms: C7_18  and  N5_19
REMARK       I    between atoms: N5_19  and  C8_21
REMARK    7  A    between atoms: C8_21  and  S1_23
REMARK    8  A    between atoms: S1_23  and  C9_24
REMARK    9  A    between atoms: C10_29  and  C11_30
REMARK   10  A    between atoms: C11_30  and  C12_31
REMARK   11  A    between atoms: C13_34  and  N9_35
REMARK   12  A    between atoms: C14_40  and  N11_41
REMARK   13  A    between atoms: N13_46  and  N14_47
ROOT
HETATM    1  C9  UNL     1      -5.885 -36.718  20.985  1.00  0.00     0.191 A
HETATM    2  N6  UNL     1      -6.509 -37.039  19.851  1.00  0.00    -0.277 N
ATOM      3  H6  UNL     1      -7.092 -36.404  19.304  1.00  0.00     0.189 HD
HETATM    4  N7  UNL     1      -6.262 -38.296  19.542  1.00  0.00    -0.285 N
ATOM      5  H7  UNL     1      -6.623 -38.785  18.722  1.00  0.00     0.188 HD
HETATM    6  C10 UNL     1      -5.439 -38.846  20.499  1.00  0.00     0.125 A
HETATM    7  N13 UNL     1      -5.226 -37.863  21.364  1.00  0.00    -0.225 N
ENDROOT
BRANCH   1   8
HETATM    8  S1  UNL     1      -5.848 -35.130  21.835  1.00  0.00     0.010 SA
BRANCH   8   9
HETATM    9  C8  UNL     1      -4.311 -34.307  21.462  1.00  0.00     0.287 C
HETATM   10  N5  UNL     1      -3.098 -34.547  22.147  1.00  0.00    -0.349 N
ATOM     11  H5  UNL     1      -3.069 -35.215  22.918  1.00  0.00     0.163 HD
HETATM   12  O3  UNL     1      -4.309 -33.455  20.519  1.00  0.00    -0.260 OA
BRANCH  10  13
HETATM   13  C7  UNL     1      -1.912 -33.849  21.758  1.00  0.00     0.160 C
BRANCH  13  14
HETATM   14  C6  UNL     1      -0.636 -34.584  21.926  1.00  0.00     0.198 C
HETATM   15  C4  UNL     1       0.024 -34.758  20.576  1.00  0.00     0.257 C
HETATM   16  N4  UNL     1       0.966 -33.673  20.582  1.00  0.00    -0.325 N
HETATM   17  C3  UNL     1       1.157 -33.165  21.743  1.00  0.00     0.259 C
ATOM     18  H4  UNL     1       1.437 -33.338  19.742  1.00  0.00     0.165 HD
HETATM   19  O4  UNL     1       0.358 -33.866  22.633  1.00  0.00    -0.308 OA
BRANCH  15  20
HETATM   20  O1  UNL     1      -0.890 -34.603  19.533  1.00  0.00    -0.340 OA
BRANCH  20  21
HETATM   21  C5  UNL     1      -0.769 -35.605  18.579  1.00  0.00     0.337 C
BRANCH  21  22
HETATM   22  O2  UNL     1       0.459 -35.494  17.914  1.00  0.00    -0.377 OA
ATOM     23  H2  UNL     1       0.628 -36.278  17.405  1.00  0.00     0.212 HD
ENDBRANCH  21  22
ENDBRANCH  20  21
ENDBRANCH  15  20
BRANCH  17  24
HETATM   24  N3  UNL     1       2.041 -32.066  22.070  1.00  0.00    -0.154 N
HETATM   25  N2  UNL     1       2.508 -31.122  21.285  1.00  0.00    -0.284 N
HETATM   26  C2  UNL     1       3.304 -30.281  21.967  1.00  0.00     0.158 A
ATOM     27  H2  UNL     1       2.295 -31.039  20.290  1.00  0.00     0.188 HD
HETATM   28  C1  UNL     1       3.329 -30.736  23.257  1.00  0.00     0.132 A
HETATM   29  N1  UNL     1       3.976 -30.222  24.252  1.00  0.00    -0.383 N
HETATM   30  N15 UNL     1       2.540 -31.832  23.274  1.00  0.00    -0.260 N
ATOM     31  H12 UNL     1       4.572 -29.394  24.238  1.00  0.00     0.157 HD
ATOM     32  H11 UNL     1       3.994 -30.561  25.213  1.00  0.00     0.157 HD
ATOM     33  H15 UNL     1       2.354 -32.401  24.101  1.00  0.00     0.191 HD
ENDBRANCH  17  24
ENDBRANCH  13  14
ENDBRANCH  10  13
ENDBRANCH   8   9
ENDBRANCH   1   8
BRANCH   7  34
HETATM   34  N14 UNL     1      -4.433 -37.875  22.522  1.00  0.00    -0.335 N
ATOM     35 2H14 UNL     1      -4.734 -37.890  23.497  1.00  0.00     0.177 HD
ATOM     36 1H14 UNL     1      -3.416 -37.891  22.450  1.00  0.00     0.177 HD
ENDBRANCH   7  34
BRANCH   6  37
HETATM   37  C11 UNL     1      -4.897 -40.206  20.485  1.00  0.00     0.139 C
BRANCH  37  38
HETATM   38  C12 UNL     1      -5.619 -41.205  19.692  1.00  0.00     0.061 A
HETATM   39  N8  UNL     1      -5.101 -41.606  18.484  1.00  0.00    -0.193 N
HETATM   40  C13 UNL     1      -5.718 -42.515  17.713  1.00  0.00     0.677 A
ATOM     41  H8  UNL     1      -4.221 -41.201  18.163  1.00  0.00     0.184 HD
HETATM   42  N10 UNL     1      -6.874 -43.073  18.096  1.00  0.00    -0.175 N
HETATM   43  C14 UNL     1      -7.437 -42.736  19.252  1.00  0.00     0.141 A
ATOM     44  H10 UNL     1      -7.327 -43.761  17.494  1.00  0.00     0.186 HD
HETATM   45  C15 UNL     1      -6.790 -41.793  20.044  1.00  0.00     0.114 A
HETATM   46  N12 UNL     1      -7.412 -41.462  21.292  1.00  0.00    -0.096 NA
BRANCH  40  47
HETATM   47  N9  UNL     1      -5.248 -42.903  16.577  1.00  0.00    -0.234 N
ATOM     48  H92 UNL     1      -4.244 -42.787  16.443  1.00  0.00     0.174 HD
ATOM     49  H91 UNL     1      -5.834 -43.304  15.844  1.00  0.00     0.174 HD
ENDBRANCH  40  47
BRANCH  43  50
HETATM   50  N11 UNL     1      -8.536 -43.237  19.678  1.00  0.00    -0.383 N
ATOM     51 2H11 UNL     1      -9.398 -43.007  19.182  1.00  0.00     0.157 HD
ATOM     52 1H11 UNL     1      -8.598 -43.851  20.490  1.00  0.00     0.157 HD
ENDBRANCH  43  50
ENDBRANCH  37  38
ENDBRANCH   6  37
TORSDOF 13
ENDMDL