MODEL 5
REMARK VINA RESULT: -8.443324715      4.115      6.071
REMARK  13 active torsions:
REMARK  status: ('A' for Active; 'I' for Inactive)
REMARK    1  A    between atoms: N1_1  and  C1_5
REMARK    2  A    between atoms: C1_5  and  C2_6
REMARK    3  A    between atoms: C5_10  and  C6_11
REMARK    4  A    between atoms: C8_18  and  N5_19
REMARK    5  A    between atoms: N5_19  and  C9_21
REMARK    6  A    between atoms: C9_21  and  C10_22
REMARK    7  A    between atoms: N6_24  and  C12_25
REMARK    8  A    between atoms: C12_25  and  C13_26
REMARK    9  A    between atoms: C13_26  and  O1_27
REMARK   10  A    between atoms: C13_26  and  N7_29
REMARK   11  A    between atoms: C15_32  and  N8_33
REMARK   12  A    between atoms: N8_33  and  N9_34
REMARK   13  A    between atoms: C16_37  and  C17_38
ROOT
HETATM    1  C10 UNL     1      -6.393 -36.333  21.117  1.00  0.00     0.019 A
HETATM    2  C11 UNL     1      -5.044 -36.292  21.368  1.00  0.00     0.122 A
HETATM    3  N6  UNL     1      -4.662 -35.030  21.664  1.00  0.00    -0.298 N
HETATM    4  N10 UNL     1      -5.730 -34.282  21.606  1.00  0.00    -0.285 N
ATOM      5  H10 UNL     1      -5.738 -33.278  21.784  1.00  0.00     0.188 HD
HETATM    6  C18 UNL     1      -6.814 -34.998  21.282  1.00  0.00     0.140 A
HETATM    7  N11 UNL     1      -8.153 -34.590  21.115  1.00  0.00    -0.081 NA
ENDROOT
BRANCH   1   8
HETATM    8  C9  UNL     1      -7.289 -37.460  20.752  1.00  0.00     0.181 C
BRANCH   8   9
HETATM    9  N5  UNL     1      -6.760 -38.133  19.597  1.00  0.00    -0.222 N
ATOM     10  H5  UNL     1      -6.829 -37.693  18.679  1.00  0.00     0.178 HD
BRANCH   9  11
HETATM   11  C8  UNL     1      -6.137 -39.417  19.724  1.00  0.00     0.678 A
HETATM   12  N4  UNL     1      -5.500 -39.730  20.778  1.00  0.00    -0.164 N
HETATM   13  C7  UNL     1      -4.864 -41.011  20.934  1.00  0.00     0.204 A
ATOM     14  H4  UNL     1      -5.438 -39.052  21.537  1.00  0.00     0.187 HD
HETATM   15  N2  UNL     1      -4.956 -41.840  19.976  1.00  0.00    -0.338 N
HETATM   16  N3  UNL     1      -4.172 -41.288  22.141  1.00  0.00    -0.063 NA
HETATM   17  C6  UNL     1      -5.629 -41.639  18.736  1.00  0.00     0.236 A
ATOM     18  H2  UNL     1      -4.500 -42.743  20.108  1.00  0.00     0.164 HD
HETATM   19  N12 UNL     1      -6.252 -40.327  18.646  1.00  0.00    -0.201 N
ATOM     20  H12 UNL     1      -6.771 -40.063  17.808  1.00  0.00     0.180 HD
BRANCH  17  21
HETATM   21  C5  UNL     1      -6.651 -42.748  18.554  1.00  0.00    -0.000 A
HETATM   22  C2  UNL     1      -6.632 -43.535  17.435  1.00  0.00     0.018 A
HETATM   23  S1  UNL     1      -7.968 -44.598  17.706  1.00  0.00    -0.104 SA
HETATM   24  C3  UNL     1      -8.487 -44.005  19.210  1.00  0.00     0.051 A
HETATM   25  C4  UNL     1      -7.605 -42.991  19.465  1.00  0.00     0.019 A
BRANCH  22  26
HETATM   26  C1  UNL     1      -5.700 -43.523  16.249  1.00  0.00     0.276 C
BRANCH  26  27
HETATM   27  N1  UNL     1      -6.549 -43.209  15.088  1.00  0.00    -0.075 N
ATOM     28  H13 UNL     1      -6.024 -43.030  14.232  1.00  0.00     0.274 HD
ATOM     29  H12 UNL     1      -7.079 -44.007  14.739  1.00  0.00     0.274 HD
ATOM     30  H11 UNL     1      -7.132 -42.425  15.384  1.00  0.00     0.274 HD
ENDBRANCH  26  27
ENDBRANCH  22  26
ENDBRANCH  17  21
ENDBRANCH   9  11
ENDBRANCH   8   9
ENDBRANCH   1   8
BRANCH   3  31
HETATM   31  C12 UNL     1      -3.282 -34.629  21.984  1.00  0.00     0.198 C
BRANCH  31  32
HETATM   32  C13 UNL     1      -2.498 -34.351  20.745  1.00  0.00     0.239 C
BRANCH  32  33
HETATM   33  O1  UNL     1      -3.352 -34.390  19.654  1.00  0.00    -0.377 OA
ATOM     34  H1  UNL     1      -2.859 -34.181  18.868  1.00  0.00     0.211 HD
ENDBRANCH  32  33
BRANCH  32  35
HETATM   35  N7  UNL     1      -1.427 -35.278  20.611  1.00  0.00    -0.150 NA
HETATM   36  O2  UNL     1      -1.503 -36.299  21.443  1.00  0.00    -0.298 OA
HETATM   37  C14 UNL     1      -1.476 -37.481  20.756  1.00  0.00     0.219 C
HETATM   38  C15 UNL     1      -0.586 -37.135  19.569  1.00  0.00     0.154 C
HETATM   39  C16 UNL     1      -1.096 -35.710  19.309  1.00  0.00     0.213 C
BRANCH  38  40
HETATM   40  N8  UNL     1       0.775 -37.087  20.075  1.00  0.00    -0.139 NA
BRANCH  40  41
HETATM   41  N9  UNL     1       0.888 -37.758  21.297  1.00  0.00    -0.348 N
ATOM     42  H92 UNL     1       0.193 -38.420  21.642  1.00  0.00     0.172 HD
ATOM     43  H91 UNL     1       1.745 -37.497  21.785  1.00  0.00     0.172 HD
ENDBRANCH  40  41
ENDBRANCH  38  40
BRANCH  39  44
HETATM   44  C17 UNL     1      -0.043 -34.895  18.653  1.00  0.00     0.195 C
HETATM   45  O3  UNL     1       0.291 -35.126  17.458  1.00  0.00    -0.647 OA
HETATM   46  O4  UNL     1       0.622 -33.861  19.289  1.00  0.00    -0.647 OA
ENDBRANCH  39  44
ENDBRANCH  32  35
ENDBRANCH  31  32
ENDBRANCH   3  31
TORSDOF 13
ENDMDL