MODEL 2
REMARK VINA RESULT: -9.174385345      1.546      1.694
REMARK  16 active torsions:
REMARK  status: ('A' for Active; 'I' for Inactive)
REMARK    1  A    between atoms: O1_2  and  C2_3
REMARK    2  A    between atoms: N2_6  and  C3_7
REMARK    3  A    between atoms: C3_7  and  O2_8
REMARK    4  A    between atoms: C3_7  and  C4_10
REMARK    5  A    between atoms: C4_10  and  C5_11
REMARK    6  A    between atoms: C5_11  and  C6_12
REMARK    7  A    between atoms: C6_12  and  C10_28
REMARK    8  A    between atoms: N3_13  and  N4_15
REMARK       I    between atoms: N4_15  and  C7_17
REMARK       I    between atoms: C7_17  and  N5_19
REMARK    9  A    between atoms: N5_19  and  N6_21
REMARK       I    between atoms: N6_21  and  C8_23
REMARK   10  A    between atoms: C8_23  and  C9_25
REMARK   11  A    between atoms: C9_25  and  O5_26
REMARK   12  A    between atoms: C10_28  and  O6_29
REMARK   13  A    between atoms: C10_28  and  O7_31
REMARK   14  A    between atoms: C12_35  and  O8_36
REMARK   15  A    between atoms: C14_39  and  O9_40
REMARK   16  A    between atoms: C17_46  and  O10_47
ROOT
HETATM    1  C3  UNL     1      -2.289 -37.105  21.505  1.00  0.00     0.156 C
ENDROOT
BRANCH   1   2
HETATM    2  N2  UNL     1      -3.358 -37.863  21.110  1.00  0.00    -0.168 N
HETATM    3  N1  UNL     1      -3.052 -39.189  20.796  1.00  0.00    -0.254 N
HETATM    4  C2  UNL     1      -4.115 -39.868  20.443  1.00  0.00     0.191 A
ATOM      5  H1  UNL     1      -2.112 -39.583  20.838  1.00  0.00     0.191 HD
HETATM    6  C11 UNL     1      -5.137 -38.936  20.538  1.00  0.00     0.145 A
HETATM    7  N7  UNL     1      -4.654 -37.741  20.942  1.00  0.00    -0.223 N
HETATM    8  C12 UNL     1      -6.487 -38.807  20.390  1.00  0.00     0.114 A
HETATM    9  C18 UNL     1      -5.675 -36.867  21.057  1.00  0.00     0.110 A
HETATM   10  C13 UNL     1      -6.865 -37.523  20.707  1.00  0.00     0.066 A
HETATM   11  C17 UNL     1      -5.787 -35.571  21.459  1.00  0.00     0.122 A
HETATM   12  C14 UNL     1      -8.095 -36.904  20.758  1.00  0.00     0.107 A
HETATM   13  C15 UNL     1      -8.206 -35.599  21.163  1.00  0.00     0.107 A
HETATM   14  N8  UNL     1      -9.454 -34.930  21.231  1.00  0.00    -0.097 NA
HETATM   15  C16 UNL     1      -7.040 -34.971  21.503  1.00  0.00     0.108 A
HETATM   16  N9  UNL     1      -7.124 -33.624  21.924  1.00  0.00    -0.097 NA
BRANCH   4  17
HETATM   17  O1  UNL     1      -4.229 -41.196  20.060  1.00  0.00    -0.338 OA
HETATM   18  C1  UNL     1      -4.700 -41.639  18.811  1.00  0.00     0.211 C
ENDBRANCH   4  17
BRANCH  12  19
HETATM   19  O9  UNL     1      -9.208 -37.598  20.396  1.00  0.00    -0.358 OA
ATOM     20  H9  UNL     1      -9.988 -37.543  20.935  1.00  0.00     0.217 HD
ENDBRANCH  12  19
BRANCH  11  21
HETATM   21  O10 UNL     1      -4.755 -34.805  21.829  1.00  0.00    -0.357 OA
ATOM     22  H10 UNL     1      -4.434 -34.935  22.714  1.00  0.00     0.218 HD
ENDBRANCH  11  21
BRANCH   8  23
HETATM   23  O8  UNL     1      -7.352 -39.806  19.982  1.00  0.00    -0.357 OA
ATOM     24  H8  UNL     1      -7.971 -40.263  20.540  1.00  0.00     0.217 HD
ENDBRANCH   8  23
ENDBRANCH   1   2
BRANCH   1  25
HETATM   25  O2  UNL     1      -1.228 -37.920  21.748  1.00  0.00    -0.347 OA
ATOM     26  H2  UNL     1      -0.458 -37.570  21.314  1.00  0.00     0.219 HD
ENDBRANCH   1  25
BRANCH   1  27
HETATM   27  C4  UNL     1      -1.808 -35.786  21.761  1.00  0.00     0.093 C
BRANCH  27  28
HETATM   28  C5  UNL     1      -1.709 -34.821  20.606  1.00  0.00     0.067 C
BRANCH  28  29
HETATM   29  C6  UNL     1      -0.440 -34.942  19.879  1.00  0.00     0.058 C
HETATM   30  N3  UNL     1       0.618 -34.222  20.169  1.00  0.00    -0.300 N
ATOM     31  H3  UNL     1       1.469 -34.360  19.623  1.00  0.00     0.186 HD
BRANCH  30  32
HETATM   32  N4  UNL     1       0.626 -33.277  21.195  1.00  0.00    -0.250 N
HETATM   33  C7  UNL     1       1.766 -32.453  21.350  1.00  0.00     0.353 C
HETATM   34  O3  UNL     1       2.764 -32.561  20.583  1.00  0.00    -0.244 OA
HETATM   35  N5  UNL     1       1.844 -31.464  22.374  1.00  0.00    -0.248 N
ATOM     36  H5  UNL     1       1.049 -31.364  23.005  1.00  0.00     0.192 HD
ATOM     37  H4  UNL     1      -0.174 -33.182  21.821  1.00  0.00     0.192 HD
BRANCH  35  38
HETATM   38  N6  UNL     1       2.943 -30.625  22.565  1.00  0.00    -0.264 N
HETATM   39  C8  UNL     1       3.252 -30.169  23.875  1.00  0.00     0.259 C
HETATM   40  O4  UNL     1       2.519 -30.537  24.827  1.00  0.00    -0.269 OA
ATOM     41  H6  UNL     1       3.519 -30.342  21.772  1.00  0.00     0.190 HD
BRANCH  39  42
HETATM   42  C9  UNL     1       4.395 -29.284  24.166  1.00  0.00     0.268 C
BRANCH  42  43
HETATM   43  O5  UNL     1       3.989 -28.145  24.880  1.00  0.00    -0.392 OA
ATOM     44  H5  UNL     1       4.077 -28.276  25.817  1.00  0.00     0.210 HD
ENDBRANCH  42  43
ENDBRANCH  39  42
ENDBRANCH  35  38
ENDBRANCH  30  32
BRANCH  29  45
HETATM   45  C10 UNL     1      -0.223 -35.859  18.738  1.00  0.00     0.302 C
BRANCH  45  46
HETATM   46  O6  UNL     1       0.303 -37.067  19.113  1.00  0.00    -0.366 OA
ATOM     47  H6  UNL     1      -0.167 -37.470  19.835  1.00  0.00     0.213 HD
ENDBRANCH  45  46
BRANCH  45  48
HETATM   48  O7  UNL     1       0.515 -35.260  17.703  1.00  0.00    -0.366 OA
ATOM     49  H7  UNL     1       0.648 -35.847  16.969  1.00  0.00     0.213 HD
ENDBRANCH  45  48
ENDBRANCH  29  45
ENDBRANCH  28  29
ENDBRANCH  27  28
ENDBRANCH   1  27
TORSDOF 16
ENDMDL