MODEL 1
REMARK VINA RESULT: -8.649613731      0.000      0.000
REMARK  14 active torsions:
REMARK  status: ('A' for Active; 'I' for Inactive)
REMARK    1  A    between atoms: N1_1  and  C1_4
REMARK    2  A    between atoms: C2_7  and  O1_8
REMARK    3  A    between atoms: C3_10  and  O2_11
REMARK    4  A    between atoms: C5_14  and  C6_15
REMARK    5  A    between atoms: N6_22  and  C7_23
REMARK    6  A    between atoms: C9_27  and  S1_28
REMARK    7  A    between atoms: S1_28  and  N8_31
REMARK    8  A    between atoms: N8_31  and  N9_33
REMARK       I    between atoms: N9_33  and  C10_35
REMARK    9  A    between atoms: C10_35  and  C11_37
REMARK   10  A    between atoms: C11_37  and  S2_38
REMARK   11  A    between atoms: S2_38  and  C12_39
REMARK   12  A    between atoms: C12_39  and  C13_40
REMARK   13  A    between atoms: C13_40  and  O6_41
REMARK   14  A    between atoms: C13_40  and  O7_43
ROOT
HETATM    1  C7  UNL     1      -3.946 -37.734  20.503  1.00  0.00     0.707 A
HETATM    2  N7  UNL     1      -3.390 -37.939  21.737  1.00  0.00    -0.198 N
ATOM      3  H7  UNL     1      -3.978 -38.290  22.493  1.00  0.00     0.183 HD
HETATM    4  C8  UNL     1      -2.084 -37.688  21.982  1.00  0.00     0.135 A
HETATM    5  C9  UNL     1      -1.292 -37.215  20.965  1.00  0.00     0.138 A
HETATM    6  C14 UNL     1      -1.817 -36.998  19.719  1.00  0.00     0.156 A
HETATM    7  N10 UNL     1      -1.061 -36.497  18.629  1.00  0.00    -0.080 NA
HETATM    8  N11 UNL     1      -3.132 -37.273  19.552  1.00  0.00    -0.175 N
ATOM      9  H11 UNL     1      -3.532 -37.116  18.627  1.00  0.00     0.185 HD
ENDROOT
BRANCH   1  10
HETATM   10  N6  UNL     1      -5.316 -38.066  20.371  1.00  0.00    -0.052 N
HETATM   11  C6  UNL     1      -5.912 -39.205  20.119  1.00  0.00     0.176 A
HETATM   12  N3  UNL     1      -7.281 -38.890  20.025  1.00  0.00    -0.267 N
HETATM   13  N4  UNL     1      -7.453 -37.611  20.223  1.00  0.00    -0.226 N
ATOM     14  H3  UNL     1      -8.025 -39.559  19.832  1.00  0.00     0.190 HD
HETATM   15  N5  UNL     1      -6.281 -37.091  20.436  1.00  0.00    -0.205 N
ATOM     16  H4  UNL     1      -8.343 -37.113  20.212  1.00  0.00     0.210 HD
ATOM     17  H5  UNL     1      -6.104 -36.105  20.623  1.00  0.00     0.211 HD
BRANCH  11  18
HETATM   18  C5  UNL     1      -5.441 -40.542  19.872  1.00  0.00     0.058 A
HETATM   19  C1  UNL     1      -5.101 -41.481  20.786  1.00  0.00     0.115 A
HETATM   20  N2  UNL     1      -4.748 -42.759  20.420  1.00  0.00    -0.321 N
HETATM   21  C2  UNL     1      -4.710 -43.180  19.160  1.00  0.00     0.175 A
ATOM     22  H2  UNL     1      -4.501 -43.420  21.156  1.00  0.00     0.169 HD
HETATM   23  C3  UNL     1      -5.049 -42.265  18.179  1.00  0.00     0.117 A
HETATM   24  C4  UNL     1      -5.401 -40.993  18.531  1.00  0.00     0.060 A
BRANCH  19  25
HETATM   25  N1  UNL     1      -5.134 -41.299  22.041  1.00  0.00    -0.385 N
ATOM     26  H12 UNL     1      -5.687 -41.862  22.687  1.00  0.00     0.157 HD
ATOM     27  H11 UNL     1      -4.512 -40.560  22.365  1.00  0.00     0.157 HD
ENDBRANCH  19  25
BRANCH  21  28
HETATM   28  O1  UNL     1      -4.349 -44.482  18.834  1.00  0.00    -0.344 OA
ATOM     29  H1  UNL     1      -4.143 -44.736  17.942  1.00  0.00     0.219 HD
ENDBRANCH  21  28
BRANCH  23  30
HETATM   30  O2  UNL     1      -5.007 -42.714  16.869  1.00  0.00    -0.357 OA
ATOM     31  H2  UNL     1      -4.176 -42.632  16.417  1.00  0.00     0.218 HD
ENDBRANCH  23  30
ENDBRANCH  11  18
ENDBRANCH   1  10
BRANCH   5  32
HETATM   32  S1  UNL     1       0.374 -36.830  21.284  1.00  0.00     0.281 S
HETATM   33  O3  UNL     1       1.298 -37.679  20.434  1.00  0.00    -0.199 OA
HETATM   34  O4  UNL     1       0.616 -37.201  22.745  1.00  0.00    -0.199 OA
BRANCH  32  35
HETATM   35  N8  UNL     1       0.713 -35.190  21.073  1.00  0.00    -0.220 N
ATOM     36  H8  UNL     1       1.668 -34.836  21.129  1.00  0.00     0.200 HD
BRANCH  35  37
HETATM   37  N9  UNL     1      -0.348 -34.346  20.820  1.00  0.00    -0.260 N
HETATM   38  C10 UNL     1      -1.109 -33.891  21.919  1.00  0.00     0.245 C
HETATM   39  O5  UNL     1      -0.860 -34.250  23.096  1.00  0.00    -0.271 OA
ATOM     40  H9  UNL     1      -0.576 -34.058  19.868  1.00  0.00     0.190 HD
BRANCH  38  41
HETATM   41  C11 UNL     1      -2.263 -32.943  21.750  1.00  0.00     0.178 C
BRANCH  41  42
HETATM   42  S2  UNL     1      -3.505 -33.782  20.692  1.00  0.00    -0.155 SA
BRANCH  42  43
HETATM   43  C12 UNL     1      -4.957 -34.138  21.665  1.00  0.00     0.134 C
BRANCH  43  44
HETATM   44  C13 UNL     1      -6.187 -33.474  21.138  1.00  0.00     0.263 C
BRANCH  44  45
HETATM   45  O6  UNL     1      -6.740 -32.732  22.212  1.00  0.00    -0.371 OA
ATOM     46  H6  UNL     1      -7.128 -31.952  21.833  1.00  0.00     0.212 HD
ENDBRANCH  44  45
BRANCH  44  47
HETATM   47  O7  UNL     1      -7.174 -34.295  20.666  1.00  0.00    -0.371 OA
ATOM     48  H7  UNL     1      -7.723 -34.719  21.315  1.00  0.00     0.212 HD
ENDBRANCH  44  47
ENDBRANCH  43  44
ENDBRANCH  42  43
ENDBRANCH  41  42
ENDBRANCH  38  41
ENDBRANCH  35  37
ENDBRANCH  32  35
ENDBRANCH   5  32
TORSDOF 14
ENDMDL