MODEL 4
REMARK VINA RESULT: -7.985219194      3.224      4.739
REMARK  14 active torsions:
REMARK  status: ('A' for Active; 'I' for Inactive)
REMARK    1  A    between atoms: N1_1  and  C1_4
REMARK    2  A    between atoms: C5_13  and  C6_14
REMARK    3  A    between atoms: N4_16  and  C8_17
REMARK    4  A    between atoms: C8_17  and  C9_18
REMARK    5  A    between atoms: C11_20  and  C12_21
REMARK    6  A    between atoms: C12_21  and  O2_22
REMARK    7  A    between atoms: C12_21  and  N5_24
REMARK    8  A    between atoms: N5_24  and  C13_27
REMARK    9  A    between atoms: C13_27  and  C14_28
REMARK   10  A    between atoms: C14_28  and  O3_29
REMARK   11  A    between atoms: C15_31  and  O4_32
REMARK   12  A    between atoms: N6_34  and  N7_35
REMARK   13  A    between atoms: N10_42  and  C16_43
REMARK   14  A    between atoms: C17_49  and  N13_50
ROOT
HETATM    1  C6  UNL     1      -2.314 -37.758  20.544  1.00  0.00     0.111 A
HETATM    2  C7  UNL     1      -3.001 -38.673  21.315  1.00  0.00     0.146 A
HETATM    3  N4  UNL     1      -3.756 -39.468  20.497  1.00  0.00    -0.281 N
HETATM    4  N8  UNL     1      -3.529 -39.043  19.270  1.00  0.00    -0.240 N
ATOM      5  H8  UNL     1      -3.951 -39.440  18.430  1.00  0.00     0.208 HD
HETATM    6  N9  UNL     1      -2.674 -38.026  19.278  1.00  0.00    -0.281 N
ATOM      7  H9  UNL     1      -2.342 -37.527  18.452  1.00  0.00     0.188 HD
ENDROOT
BRANCH   1   8
HETATM    8  C5  UNL     1      -1.392 -36.696  20.947  1.00  0.00     0.146 A
HETATM    9  N3  UNL     1      -0.039 -36.822  21.087  1.00  0.00    -0.324 N
HETATM   10  C4  UNL     1       0.495 -35.647  21.482  1.00  0.00     0.155 A
ATOM     11  H3  UNL     1       0.489 -37.678  20.917  1.00  0.00     0.169 HD
HETATM   12  C3  UNL     1      -0.597 -34.800  21.574  1.00  0.00     0.156 A
HETATM   13  N14 UNL     1       1.743 -35.230  21.759  1.00  0.00    -0.174 N
HETATM   14  C2  UNL     1      -0.400 -33.495  21.962  1.00  0.00     0.290 A
HETATM   15  N10 UNL     1      -1.738 -35.438  21.250  1.00  0.00    -0.268 N
HETATM   16  N2  UNL     1       0.858 -33.107  22.233  1.00  0.00    -0.154 N
HETATM   17  O1  UNL     1      -1.389 -32.726  22.047  1.00  0.00    -0.265 OA
HETATM   18  C1  UNL     1       1.924 -33.954  22.136  1.00  0.00     0.680 A
ATOM     19  H2  UNL     1       1.023 -32.142  22.521  1.00  0.00     0.187 HD
ATOM     20  H14 UNL     1       2.535 -35.868  21.685  1.00  0.00     0.186 HD
BRANCH  18  21
HETATM   21  N1  UNL     1       3.103 -33.470  22.423  1.00  0.00    -0.234 N
ATOM     22  H12 UNL     1       3.469 -33.451  23.374  1.00  0.00     0.174 HD
ATOM     23  H11 UNL     1       3.659 -33.104  21.651  1.00  0.00     0.174 HD
ENDBRANCH  18  21
BRANCH  15  24
HETATM   24  C16 UNL     1      -3.061 -34.868  21.230  1.00  0.00     0.182 A
HETATM   25  N11 UNL     1      -3.522 -33.956  20.332  1.00  0.00    -0.221 N
HETATM   26  O5  UNL     1      -4.755 -33.673  20.630  1.00  0.00    -0.153 OA
ATOM     27  H11 UNL     1      -2.990 -33.562  19.556  1.00  0.00     0.198 HD
HETATM   28  N12 UNL     1      -5.149 -34.329  21.661  1.00  0.00    -0.222 N
HETATM   29  C17 UNL     1      -4.123 -35.092  22.074  1.00  0.00     0.168 A
ATOM     30  H12 UNL     1      -6.074 -34.280  22.090  1.00  0.00     0.198 HD
BRANCH  29  31
HETATM   31  N13 UNL     1      -4.103 -35.914  23.090  1.00  0.00    -0.381 N
ATOM     32 2H13 UNL     1      -3.996 -36.927  23.065  1.00  0.00     0.157 HD
ATOM     33 1H13 UNL     1      -4.195 -35.631  24.065  1.00  0.00     0.157 HD
ENDBRANCH  29  31
ENDBRANCH  15  24
ENDBRANCH   1   8
BRANCH   3  34
HETATM   34  C8  UNL     1      -4.614 -40.533  20.974  1.00  0.00     0.209 C
BRANCH  34  35
HETATM   35  C9  UNL     1      -5.085 -41.424  19.921  1.00  0.00     0.056 A
HETATM   36  C10 UNL     1      -6.098 -41.227  19.006  1.00  0.00     0.045 A
HETATM   37  C11 UNL     1      -6.204 -42.322  18.199  1.00  0.00     0.052 A
HETATM   38  C15 UNL     1      -5.253 -43.214  18.609  1.00  0.00     0.172 A
HETATM   39  N6  UNL     1      -4.589 -42.648  19.652  1.00  0.00    -0.243 N
BRANCH  37  40
HETATM   40  C12 UNL     1      -7.150 -42.528  17.086  1.00  0.00     0.357 C
BRANCH  40  41
HETATM   41  O2  UNL     1      -6.486 -42.907  15.915  1.00  0.00    -0.366 OA
ATOM     42  H2  UNL     1      -6.829 -42.448  15.157  1.00  0.00     0.212 HD
ENDBRANCH  40  41
BRANCH  40  43
HETATM   43  N5  UNL     1      -8.044 -43.602  17.417  1.00  0.00    -0.043 N
ATOM     44  H52 UNL     1      -7.820 -43.978  18.338  1.00  0.00     0.280 HD
ATOM     45  H51 UNL     1      -8.981 -43.241  17.597  1.00  0.00     0.280 HD
BRANCH  43  46
HETATM   46  C13 UNL     1      -8.095 -44.657  16.445  1.00  0.00     0.261 C
BRANCH  46  47
HETATM   47  C14 UNL     1      -8.176 -45.984  17.159  1.00  0.00     0.191 C
BRANCH  47  48
HETATM   48  O3  UNL     1      -7.562 -45.929  18.411  1.00  0.00    -0.399 OA
ATOM     49  H3  UNL     1      -6.905 -46.608  18.506  1.00  0.00     0.209 HD
ENDBRANCH  47  48
ENDBRANCH  46  47
ENDBRANCH  43  46
ENDBRANCH  40  43
ENDBRANCH  37  40
BRANCH  38  50
HETATM   50  O4  UNL     1      -5.006 -44.478  18.058  1.00  0.00    -0.344 OA
ATOM     51  H4  UNL     1      -4.695 -45.246  18.525  1.00  0.00     0.219 HD
ENDBRANCH  38  50
BRANCH  39  52
HETATM   52  N7  UNL     1      -3.536 -43.273  20.340  1.00  0.00    -0.336 N
ATOM     53  H72 UNL     1      -2.740 -42.772  20.734  1.00  0.00     0.177 HD
ATOM     54  H71 UNL     1      -3.454 -44.274  20.516  1.00  0.00     0.177 HD
ENDBRANCH  39  52
ENDBRANCH  34  35
ENDBRANCH   3  34
TORSDOF 14
ENDMDL