MODEL 2
REMARK VINA RESULT: -9.390351611      2.558      7.326
REMARK  12 active torsions:
REMARK  status: ('A' for Active; 'I' for Inactive)
REMARK    1  A    between atoms: N1_1  and  C1_4
REMARK    2  A    between atoms: C3_9  and  C4_10
REMARK    3  A    between atoms: C5_15  and  C6_16
REMARK    4  A    between atoms: C6_16  and  O1_17
REMARK    5  A    between atoms: C6_16  and  C7_19
REMARK    6  A    between atoms: C8_22  and  N6_23
REMARK    7  A    between atoms: N6_23  and  N7_25
REMARK    8  A    between atoms: N8_28  and  N9_29
REMARK    9  A    between atoms: N9_29  and  N10_31
REMARK   10  A    between atoms: N10_31  and  C9_33
REMARK   11  A    between atoms: C11_40  and  N13_41
REMARK   12  A    between atoms: C13_45  and  N14_46
ROOT
HETATM    1  C4  UNL     1      -2.780 -37.991  20.881  1.00  0.00     0.164 A
HETATM    2  N4  UNL     1      -2.964 -39.302  20.652  1.00  0.00    -0.283 N
ATOM      3  H4  UNL     1      -2.189 -39.938  20.840  1.00  0.00     0.188 HD
HETATM    4  N5  UNL     1      -4.078 -39.803  20.203  1.00  0.00    -0.296 N
ATOM      5  H5  UNL     1      -4.162 -40.808  20.047  1.00  0.00     0.187 HD
HETATM    6  C5  UNL     1      -5.139 -38.975  19.941  1.00  0.00     0.112 A
HETATM    7  C8  UNL     1      -4.973 -37.640  20.165  1.00  0.00     0.172 A
HETATM    8  N8  UNL     1      -3.760 -37.155  20.646  1.00  0.00    -0.203 N
ENDROOT
BRANCH   8   9
HETATM    9  N9  UNL     1      -3.654 -35.759  20.862  1.00  0.00    -0.231 N
ATOM     10  H9  UNL     1      -3.982 -35.341  21.733  1.00  0.00     0.209 HD
BRANCH   9  11
HETATM   11  N10 UNL     1      -3.145 -35.048  19.959  1.00  0.00    -0.268 N
ATOM     12  H10 UNL     1      -3.707 -34.888  19.122  1.00  0.00     0.190 HD
BRANCH  11  13
HETATM   13  C9  UNL     1      -1.872 -34.451  19.997  1.00  0.00     0.156 A
HETATM   14  N11 UNL     1      -0.993 -34.535  18.985  1.00  0.00    -0.324 N
HETATM   15  C10 UNL     1       0.242 -33.962  19.011  1.00  0.00     0.134 A
ATOM     16  H11 UNL     1      -1.264 -35.057  18.151  1.00  0.00     0.169 HD
HETATM   17  N12 UNL     1       0.981 -34.095  17.998  1.00  0.00    -0.383 N
HETATM   18  C11 UNL     1       0.609 -33.268  20.115  1.00  0.00     0.148 A
ATOM     19 2H12 UNL     1       0.704 -34.618  17.167  1.00  0.00     0.157 HD
ATOM     20 1H12 UNL     1       1.906 -33.665  18.018  1.00  0.00     0.157 HD
HETATM   21  C12 UNL     1      -0.265 -33.149  21.193  1.00  0.00     0.080 A
HETATM   22  C13 UNL     1      -1.493 -33.740  21.120  1.00  0.00     0.150 A
BRANCH  18  23
HETATM   23  N13 UNL     1       1.851 -32.609  20.304  1.00  0.00    -0.112 N
HETATM   24  O4  UNL     1       2.877 -33.036  19.787  1.00  0.00    -0.532 OA
HETATM   25  O5  UNL     1       1.972 -31.478  21.098  1.00  0.00    -0.532 OA
ENDBRANCH  18  23
BRANCH  22  26
HETATM   26  N14 UNL     1      -2.410 -33.630  22.220  1.00  0.00    -0.112 N
HETATM   27  O6  UNL     1      -2.208 -34.198  23.314  1.00  0.00    -0.532 OA
HETATM   28  O7  UNL     1      -3.552 -32.886  22.096  1.00  0.00    -0.532 OA
ENDBRANCH  22  26
ENDBRANCH  11  13
ENDBRANCH   9  11
ENDBRANCH   8   9
BRANCH   1  29
HETATM   29  C3  UNL     1      -1.512 -37.467  21.387  1.00  0.00     0.121 A
HETATM   30  C2  UNL     1      -1.400 -37.149  22.721  1.00  0.00     0.151 A
HETATM   31  N2  UNL     1      -0.230 -36.663  23.198  1.00  0.00    -0.178 N
HETATM   32  N3  UNL     1      -2.458 -37.302  23.651  1.00  0.00    -0.081 NA
HETATM   33  C1  UNL     1       0.814 -36.496  22.364  1.00  0.00     0.680 A
ATOM     34  H2  UNL     1      -0.139 -36.424  24.186  1.00  0.00     0.185 HD
HETATM   35  N15 UNL     1       0.698 -36.811  21.056  1.00  0.00    -0.155 N
HETATM   36  C14 UNL     1      -0.442 -37.295  20.537  1.00  0.00     0.277 A
ATOM     37  H15 UNL     1       1.502 -36.677  20.443  1.00  0.00     0.187 HD
HETATM   38  O8  UNL     1      -0.470 -37.564  19.312  1.00  0.00    -0.267 OA
BRANCH  33  39
HETATM   39  N1  UNL     1       1.939 -36.034  22.795  1.00  0.00    -0.234 N
ATOM     40  H12 UNL     1       2.049 -35.861  23.795  1.00  0.00     0.174 HD
ATOM     41  H11 UNL     1       2.707 -35.845  22.152  1.00  0.00     0.174 HD
ENDBRANCH  33  39
ENDBRANCH   1  29
BRANCH   7  42
HETATM   42  N6  UNL     1      -5.827 -36.750  19.935  1.00  0.00    -0.289 N
ATOM     43  H6  UNL     1      -5.600 -36.163  19.133  1.00  0.00     0.188 HD
BRANCH  42  44
HETATM   44  N7  UNL     1      -6.973 -36.419  20.531  1.00  0.00    -0.344 N
ATOM     45  H72 UNL     1      -7.648 -37.183  20.524  1.00  0.00     0.176 HD
ATOM     46  H71 UNL     1      -7.297 -35.564  20.984  1.00  0.00     0.176 HD
ENDBRANCH  42  44
ENDBRANCH   7  42
BRANCH   6  47
HETATM   47  C6  UNL     1      -6.406 -39.606  19.477  1.00  0.00     0.273 C
BRANCH  47  48
HETATM   48  O1  UNL     1      -6.996 -38.836  18.495  1.00  0.00    -0.378 OA
ATOM     49  H1  UNL     1      -7.819 -39.222  18.220  1.00  0.00     0.211 HD
ENDBRANCH  47  48
BRANCH  47  50
HETATM   50  C7  UNL     1      -6.060 -40.978  18.924  1.00  0.00     0.209 C
HETATM   51  O2  UNL     1      -6.442 -41.964  19.564  1.00  0.00    -0.646 OA
HETATM   52  O3  UNL     1      -5.349 -41.037  17.757  1.00  0.00    -0.646 OA
ENDBRANCH  47  50
ENDBRANCH   6  47
TORSDOF 12
ENDMDL