MODEL 2
REMARK VINA RESULT: -5.844519587      2.009      2.009
REMARK  4 active torsions:
REMARK  status: ('A' for Active; 'I' for Inactive)
REMARK    1  A    between atoms: N1_1  and  C1_5
REMARK    2  A    between atoms: C1_5  and  C2_6
REMARK    3  A    between atoms: C2_6  and  C3_7
REMARK    4  A    between atoms: C4_8  and  C5_9
ROOT
HETATM    1  C5  UNL     1      -6.103  13.254  -6.839  1.00  0.00     0.133 A
HETATM    2  N2  UNL     1      -4.929  12.857  -6.305  1.00  0.00    -0.250 N
ATOM      3  H2  UNL     1      -4.712  11.897  -6.039  1.00  0.00     0.195 HD
HETATM    4  O1  UNL     1      -4.118  13.852  -6.176  1.00  0.00    -0.228 OA
HETATM    5  C6  UNL     1      -4.661  14.973  -6.600  1.00  0.00     0.169 A
HETATM    6 BR1  UNL     1      -3.835  16.699  -6.603  1.00  0.00    -0.019 Br
HETATM    7  C7  UNL     1      -5.928  14.626  -7.030  1.00  0.00     0.114 A
HETATM    8 CL1  UNL     1      -7.099  15.736  -7.696  1.00  0.00    -0.077 Cl
ENDROOT
BRANCH   1   9
HETATM    9  C4  UNL     1      -7.266  12.465  -7.144  1.00  0.00    -0.045 C
HETATM   10  C3  UNL     1      -8.232  11.784  -7.398  1.00  0.00    -0.098 C
BRANCH  10  11
HETATM   11  C2  UNL     1      -9.392  10.942  -7.710  1.00  0.00     0.121 C
BRANCH  11  12
HETATM   12  C1  UNL     1     -10.407  11.732  -8.492  1.00  0.00     0.241 C
BRANCH  12  13
HETATM   13  N1  UNL     1     -10.875  10.970  -9.647  1.00  0.00    -0.079 N
ATOM     14  H13 UNL     1     -10.173  10.933 -10.386  1.00  0.00     0.274 HD
ATOM     15  H12 UNL     1     -10.935   9.972  -9.444  1.00  0.00     0.274 HD
ATOM     16  H11 UNL     1     -11.763  11.339  -9.986  1.00  0.00     0.274 HD
ENDBRANCH  12  13
ENDBRANCH  11  12
ENDBRANCH  10  11
ENDBRANCH   1   9
TORSDOF 4
ENDMDL