MODEL 4
REMARK VINA RESULT: -6.318557865      4.680      6.602
REMARK  2 active torsions:
REMARK  status: ('A' for Active; 'I' for Inactive)
REMARK    1  A    between atoms: C6_8  and  N2_9
REMARK    2  A    between atoms: N2_9  and  C7_11
ROOT
HETATM    1  N1  UNL     1      -7.511  17.787  -7.176  1.00  0.00    -0.197 NA
HETATM    2  C1  UNL     1      -7.201  16.711  -7.412  1.00  0.00     0.064 C
HETATM    3  C2  UNL     1      -6.817  15.356  -7.687  1.00  0.00     0.095 C
HETATM    4  C3  UNL     1      -5.344  15.103  -7.359  1.00  0.00     0.021 C
HETATM    5  C4  UNL     1      -4.954  13.711  -7.732  1.00  0.00     0.023 C
HETATM    6  C5  UNL     1      -5.812  12.708  -6.965  1.00  0.00     0.105 C
HETATM    7 CL1  UNL     1      -5.516  12.942  -5.243  1.00  0.00    -0.123 Cl
HETATM    8  C6  UNL     1      -7.245  12.998  -7.379  1.00  0.00     0.102 C
HETATM    9  C11 UNL     1      -7.585  14.344  -6.821  1.00  0.00     0.045 C
ENDROOT
BRANCH   8  10
HETATM   10  N2  UNL     1      -8.140  11.954  -7.203  1.00  0.00    -0.369 N
ATOM     11  H2  UNL     1      -7.929  11.450  -6.341  1.00  0.00     0.161 HD
BRANCH  10  12
HETATM   12  C7  UNL     1      -9.119  11.444  -7.772  1.00  0.00     0.117 A
HETATM   13  C8  UNL     1     -10.234  12.253  -8.016  1.00  0.00     0.136 A
HETATM   14  N3  UNL     1     -11.309  11.776  -8.617  1.00  0.00    -0.371 N
HETATM   15  C9  UNL     1     -11.335  10.486  -9.004  1.00  0.00     0.104 A
ATOM     16  H3  UNL     1     -12.113  12.379  -8.787  1.00  0.00     0.164 HD
HETATM   17  C10 UNL     1     -10.264   9.666  -8.782  1.00  0.00     0.106 A
HETATM   18  N4  UNL     1      -9.186  10.176  -8.170  1.00  0.00    -0.350 N
ATOM     19  H4  UNL     1      -8.384   9.567  -8.002  1.00  0.00     0.166 HD
ENDBRANCH  10  12
ENDBRANCH   8  10
TORSDOF 2
ENDMDL