MODEL 5
REMARK VINA RESULT: -4.544067888      3.208      4.679
REMARK  1 active torsions:
REMARK  status: ('A' for Active; 'I' for Inactive)
REMARK       I    between atoms: N2_6  and  C4_8
REMARK    1  A    between atoms: C4_8  and  C5_10
ROOT
HETATM    1  C1  UNL     1      -1.689  19.644  -5.831  1.00  0.00     0.044 C
HETATM    2  C2  UNL     1      -0.848  18.464  -5.504  1.00  0.00     0.141 C
HETATM    3  N1  UNL     1      -1.610  17.256  -5.305  1.00  0.00    -0.366 N
ATOM      4  H1  UNL     1      -2.321  17.182  -4.577  1.00  0.00     0.162 HD
HETATM    5  C3  UNL     1      -1.325  16.201  -6.159  1.00  0.00     0.094 C
HETATM    6  N2  UNL     1      -2.054  15.303  -6.623  1.00  0.00    -0.313 N
ATOM      7  H2  UNL     1      -1.564  14.651  -7.235  1.00  0.00     0.170 HD
HETATM    8  C4  UNL     1      -3.387  15.024  -6.470  1.00  0.00     0.261 C
HETATM    9  O1  UNL     1      -3.705  13.819  -6.141  1.00  0.00    -0.270 OA
HETATM   10  C7  UNL     1       0.144  16.207  -6.550  1.00  0.00     0.112 C
HETATM   11  C8  UNL     1       0.418  15.422  -7.781  1.00  0.00     0.029 C
HETATM   12  S1  UNL     1       0.313  18.001  -6.812  1.00  0.00    -0.132 SA
ENDROOT
BRANCH   8  13
HETATM   13  C5  UNL     1      -4.553  15.921  -6.630  1.00  0.00     0.190 C
HETATM   14  C6  UNL     1      -4.783  16.783  -5.431  1.00  0.00     0.061 C
HETATM   15 CL1  UNL     1      -4.022  17.101  -7.931  1.00  0.00    -0.091 Cl
HETATM   16 CL2  UNL     1      -6.026  15.160  -7.168  1.00  0.00    -0.091 Cl
ENDBRANCH   8  13
TORSDOF 1
ENDMDL