MODEL 3
REMARK VINA RESULT: -6.689334785      3.785      5.639
REMARK  2 active torsions:
REMARK  status: ('A' for Active; 'I' for Inactive)
REMARK    1  A    between atoms: O1_2  and  C2_3
REMARK    2  A    between atoms: C2_3  and  C3_5
ROOT
HETATM    1  C3  UNL     1      -1.577  17.303  -5.050  1.00  0.00     0.119 C
HETATM    2  C4  UNL     1      -1.451  16.090  -5.956  1.00  0.00     0.018 C
HETATM    3  C5  UNL     1      -2.589  16.114  -6.953  1.00  0.00     0.010 C
HETATM    4  C6  UNL     1      -3.919  15.752  -6.278  1.00  0.00    -0.035 C
HETATM    5  C7  UNL     1      -5.003  16.463  -6.979  1.00  0.00     0.037 C
HETATM    6  C8  UNL     1      -6.179  15.643  -7.395  1.00  0.00     0.233 C
HETATM    7  N1  UNL     1      -5.897  14.272  -7.659  1.00  0.00    -0.075 N
ATOM      8  H11 UNL     1      -5.284  14.137  -8.463  1.00  0.00     0.277 HD
ATOM      9  H12 UNL     1      -6.702  13.760  -8.020  1.00  0.00     0.277 HD
HETATM   10  C9  UNL     1      -5.360  13.698  -6.427  1.00  0.00     0.233 C
HETATM   11  C10 UNL     1      -3.995  14.268  -6.252  1.00  0.00     0.037 C
HETATM   12  C11 UNL     1      -3.837  16.291  -4.842  1.00  0.00     0.047 C
HETATM   13  C12 UNL     1      -3.047  17.588  -4.895  1.00  0.00     0.184 C
HETATM   14  F1  UNL     1      -3.307  18.312  -3.756  1.00  0.00    -0.248 F
ENDROOT
BRANCH   1  15
HETATM   15  C2  UNL     1      -0.890  18.448  -5.699  1.00  0.00     0.265 C
HETATM   16  O2  UNL     1       0.365  18.490  -5.685  1.00  0.00    -0.265 OA
BRANCH  15  17
HETATM   17  O1  UNL     1      -1.605  19.458  -6.315  1.00  0.00    -0.326 OA
HETATM   18  C1  UNL     1      -1.508  19.637  -7.715  1.00  0.00     0.213 C
ENDBRANCH  15  17
ENDBRANCH   1  15
TORSDOF 2
ENDMDL