MODEL 4
REMARK VINA RESULT: -5.442799334      1.736      2.627
REMARK  3 active torsions:
REMARK  status: ('A' for Active; 'I' for Inactive)
REMARK    1  A    between atoms: C2_2  and  N1_3
REMARK    2  A    between atoms: N2_6  and  C5_7
REMARK    3  A    between atoms: C10_14  and  O1_15
ROOT
HETATM    1  N1  UNL     1      -1.931  17.667  -5.678  1.00  0.00    -0.380 N
HETATM    2  C3  UNL     1      -3.166  17.857  -5.023  1.00  0.00     0.139 C
HETATM    3  C4  UNL     1      -3.975  16.552  -5.137  1.00  0.00     0.142 C
HETATM    4  N2  UNL     1      -4.306  16.442  -6.527  1.00  0.00    -0.377 N
HETATM    5  C7  UNL     1      -3.360  16.845  -7.531  1.00  0.00     0.139 C
HETATM    6  C8  UNL     1      -2.739  15.655  -8.208  1.00  0.00     0.035 C
HETATM    7  C9  UNL     1      -1.612  15.744  -7.216  1.00  0.00     0.065 C
HETATM    8  C10 UNL     1      -1.998  17.193  -7.005  1.00  0.00     0.150 C
ENDROOT
BRANCH   4   9
HETATM    9  C5  UNL     1      -5.565  15.961  -6.933  1.00  0.00     0.122 C
HETATM   10  C6  UNL     1      -5.879  14.690  -6.892  1.00  0.00     0.118 C
HETATM   11 CL1  UNL     1      -7.462  14.177  -7.413  1.00  0.00    -0.069 Cl
HETATM   12 CL2  UNL     1      -4.717  13.524  -6.324  1.00  0.00    -0.069 Cl
ENDBRANCH   4   9
BRANCH   8  13
HETATM   13  O1  UNL     1      -1.360  18.008  -7.963  1.00  0.00    -0.369 OA
ATOM     14  H1  UNL     1      -0.510  17.698  -8.253  1.00  0.00     0.212 HD
ENDBRANCH   8  13
BRANCH   1  15
HETATM   15  C2  UNL     1      -0.880  18.570  -5.350  1.00  0.00     0.115 C
HETATM   16  C1  UNL     1       0.457  17.896  -5.072  1.00  0.00     0.026 C
ENDBRANCH   1  15
TORSDOF 3
ENDMDL