MODEL 5
REMARK VINA RESULT: -4.995317841      2.571      3.925
REMARK  1 active torsions:
REMARK  status: ('A' for Active; 'I' for Inactive)
REMARK    1  A    between atoms: C2_2  and  C3_3
ROOT
HETATM    1  C3  UNL     1      -1.769  17.819  -6.969  1.00  0.00     0.109 C
HETATM    2  C4  UNL     1      -3.076  17.825  -7.682  1.00  0.00     0.154 C
HETATM    3  N1  UNL     1      -3.525  16.532  -8.061  1.00  0.00    -0.418 N
ATOM      4  H1  UNL     1      -3.320  16.140  -8.980  1.00  0.00     0.153 HD
HETATM    5  C5  UNL     1      -4.273  15.813  -7.092  1.00  0.00     0.115 C
HETATM    6  C6  UNL     1      -3.446  15.048  -6.092  1.00  0.00     0.041 C
HETATM    7  C7  UNL     1      -2.493  15.984  -5.323  1.00  0.00     0.111 C
HETATM    8 CL1  UNL     1      -3.509  16.903  -4.280  1.00  0.00    -0.123 Cl
HETATM    9  C8  UNL     1      -1.560  16.580  -6.229  1.00  0.00     0.096 C
HETATM   10 CL2  UNL     1      -1.240  15.278  -7.479  1.00  0.00    -0.114 Cl
HETATM   11  C9  UNL     1      -0.127  16.774  -5.753  1.00  0.00     0.141 C
HETATM   12  C10 UNL     1       0.398  17.334  -7.054  1.00  0.00     0.261 C
HETATM   13  O1  UNL     1       1.597  17.534  -7.364  1.00  0.00    -0.265 OA
HETATM   14  O2  UNL     1      -0.667  17.614  -7.909  1.00  0.00    -0.306 OA
ENDROOT
BRANCH   1  15
HETATM   15  C2  UNL     1      -1.387  19.139  -6.418  1.00  0.00     0.038 C
HETATM   16  C1  UNL     1      -2.188  19.778  -5.367  1.00  0.00     0.008 C
ENDBRANCH   1  15
TORSDOF 1
ENDMDL