MODEL 4
REMARK VINA RESULT: -5.504482558      2.662      4.672
REMARK  2 active torsions:
REMARK  status: ('A' for Active; 'I' for Inactive)
REMARK    1  A    between atoms: O1_2  and  C2_3
REMARK    2  A    between atoms: C2_3  and  C3_5
ROOT
HETATM    1  C3  UNL     1       0.531  18.050  -6.360  1.00  0.00     0.220 C
HETATM    2  N1  UNL     1      -0.554  18.530  -5.576  1.00  0.00    -0.406 N
ATOM      3  H1  UNL     1      -0.472  18.656  -4.567  1.00  0.00     0.154 HD
HETATM    4  C4  UNL     1      -1.749  18.823  -6.266  1.00  0.00     0.118 C
HETATM    5  C5  UNL     1      -2.930  18.350  -5.477  1.00  0.00     0.046 C
HETATM    6  C6  UNL     1      -2.883  16.946  -5.078  1.00  0.00    -0.025 C
HETATM    7  C7  UNL     1      -2.436  15.914  -5.749  1.00  0.00    -0.004 C
HETATM    8  C8  UNL     1      -1.860  15.832  -7.058  1.00  0.00    -0.001 C
HETATM    9  C9  UNL     1      -0.625  16.109  -7.448  1.00  0.00     0.018 C
HETATM   10  C10 UNL     1       0.480  16.574  -6.619  1.00  0.00     0.160 C
HETATM   11 CL1  UNL     1       0.492  15.778  -5.014  1.00  0.00    -0.094 Cl
HETATM   12 CL2  UNL     1       2.033  16.122  -7.385  1.00  0.00    -0.094 Cl
ENDROOT
BRANCH   1  13
HETATM   13  C2  UNL     1       0.791  18.842  -7.598  1.00  0.00     0.284 C
HETATM   14  O2  UNL     1       0.221  18.585  -8.689  1.00  0.00    -0.263 OA
BRANCH  13  15
HETATM   15  O1  UNL     1       1.678  19.907  -7.614  1.00  0.00    -0.325 OA
HETATM   16  C1  UNL     1       1.568  20.898  -8.617  1.00  0.00     0.213 C
ENDBRANCH  13  15
ENDBRANCH   1  13
TORSDOF 2
ENDMDL