MODEL 2
REMARK VINA RESULT: -6.745526001      0.815      1.705
REMARK  2 active torsions:
REMARK  status: ('A' for Active; 'I' for Inactive)
REMARK    1  A    between atoms: C2_7  and  N3_8
REMARK    2  A    between atoms: N3_8  and  C3_10
ROOT
HETATM    1 CL1  UNL     1      -5.069  16.733  -7.025  1.00  0.00    -0.060 Cl
HETATM    2  C1  UNL     1      -5.987  15.220  -6.997  1.00  0.00     0.158 A
HETATM    3  N1  UNL     1      -7.273  15.186  -7.393  1.00  0.00    -0.273 N
ATOM      4  H1  UNL     1      -7.705  16.054  -7.710  1.00  0.00     0.188 HD
HETATM    5  N2  UNL     1      -7.998  14.096  -7.393  1.00  0.00    -0.131 N
ATOM      6  H2  UNL     1      -8.969  14.131  -7.705  1.00  0.00     0.205 HD
HETATM    7  C2  UNL     1      -7.461  12.918  -6.981  1.00  0.00     0.694 A
HETATM    8  N4  UNL     1      -6.176  12.926  -6.581  1.00  0.00    -0.177 N
ATOM      9  H4  UNL     1      -5.756  12.051  -6.268  1.00  0.00     0.185 HD
HETATM   10  C10 UNL     1      -5.425  14.040  -6.577  1.00  0.00     0.159 A
HETATM   11 CL2  UNL     1      -3.760  14.049  -6.058  1.00  0.00    -0.060 Cl
ENDROOT
BRANCH   7  12
HETATM   12  N3  UNL     1      -8.186  11.859  -6.988  1.00  0.00    -0.220 N
ATOM     13  H3  UNL     1      -8.217  11.275  -6.152  1.00  0.00     0.178 HD
BRANCH  12  14
HETATM   14  C3  UNL     1      -8.961  11.469  -8.146  1.00  0.00     0.103 C
HETATM   15  C4  UNL     1      -9.105   9.973  -8.182  1.00  0.00     0.026 C
HETATM   16  C5  UNL     1     -10.282   9.518  -9.005  1.00  0.00     0.007 C
HETATM   17  C6  UNL     1     -11.398  10.536  -8.952  1.00  0.00    -0.014 C
HETATM   18  C7  UNL     1     -11.343  11.183  -7.585  1.00  0.00     0.011 C
HETATM   19  C9  UNL     1     -10.923  11.862  -9.527  1.00  0.00     0.011 C
HETATM   20  C8  UNL     1     -10.318  12.137  -8.167  1.00  0.00     0.009 C
ENDBRANCH  12  14
ENDBRANCH   7  12
TORSDOF 2
ENDMDL