MODEL 5
REMARK VINA RESULT: -4.908823119      3.328      4.819
REMARK  2 active torsions:
REMARK  status: ('A' for Active; 'I' for Inactive)
REMARK    1  A    between atoms: C3_3  and  S1_4
REMARK    2  A    between atoms: C5_6  and  O1_7
ROOT
HETATM    1  C1  UNL     1      -3.459  13.762  -5.499  1.00  0.00     0.017 C
HETATM    2  C2  UNL     1      -3.598  14.891  -6.111  1.00  0.00    -0.045 C
HETATM    3  C3  UNL     1      -4.706  15.200  -7.024  1.00  0.00     0.111 C
HETATM    4  C5  UNL     1      -4.897  16.706  -6.938  1.00  0.00     0.077 C
HETATM    5  C6  UNL     1      -4.702  17.212  -5.508  1.00  0.00     0.046 C
HETATM    6  C7  UNL     1      -3.259  17.130  -5.100  1.00  0.00     0.023 C
HETATM    7  C8  UNL     1      -2.354  18.033  -5.909  1.00  0.00     0.053 C
HETATM    8  C9  UNL     1      -2.484  16.960  -7.012  1.00  0.00     0.132 C
HETATM    9  F1  UNL     1      -1.373  16.870  -7.805  1.00  0.00    -0.240 F
HETATM   10  C10 UNL     1      -3.750  17.309  -7.729  1.00  0.00     0.085 C
HETATM   11  C11 UNL     1      -2.617  15.984  -5.902  1.00  0.00     0.101 C
HETATM   12 CL1  UNL     1      -1.096  15.515  -5.178  1.00  0.00    -0.110 Cl
ENDROOT
BRANCH   3  13
HETATM   13  S1  UNL     1      -6.211  14.288  -6.838  1.00  0.00    -0.161 SA
HETATM   14  C4  UNL     1      -6.068  12.662  -7.617  1.00  0.00     0.090 C
ENDBRANCH   3  13
BRANCH   4  15
HETATM   15  O1  UNL     1      -6.127  17.015  -7.443  1.00  0.00    -0.388 OA
ATOM     16  H1  UNL     1      -6.025  17.251  -8.358  1.00  0.00     0.210 HD
ENDBRANCH   4  15
TORSDOF 2
ENDMDL