MODEL 4
REMARK VINA RESULT: -5.305299863      1.703      2.903
REMARK  2 active torsions:
REMARK  status: ('A' for Active; 'I' for Inactive)
REMARK    1  A    between atoms: O1_2  and  C2_3
REMARK    2  A    between atoms: C10_14  and  O3_15
ROOT
HETATM    1  C2  UNL     1      -3.661  15.724  -6.737  1.00  0.00     0.121 C
HETATM    2  C3  UNL     1      -2.393  15.970  -7.025  1.00  0.00     0.081 C
HETATM    3 CL1  UNL     1      -1.354  14.935  -7.960  1.00  0.00    -0.083 Cl
HETATM    4  C4  UNL     1      -2.098  17.257  -6.399  1.00  0.00     0.110 C
HETATM    5  C5  UNL     1      -1.403  17.153  -5.036  1.00  0.00     0.050 C
HETATM    6  C6  UNL     1      -0.216  18.054  -5.304  1.00  0.00     0.008 C
HETATM    7  C7  UNL     1       0.222  17.449  -6.651  1.00  0.00     0.015 C
HETATM    8  C8  UNL     1      -1.079  18.047  -7.127  1.00  0.00     0.045 C
HETATM    9  C9  UNL     1      -0.713  19.188  -6.151  1.00  0.00     0.093 C
HETATM   10 CL2  UNL     1      -2.097  20.073  -5.547  1.00  0.00    -0.124 Cl
HETATM   11  O2  UNL     1      -3.323  17.913  -6.255  1.00  0.00    -0.338 OA
HETATM   12  C10 UNL     1      -4.184  16.878  -5.911  1.00  0.00     0.318 C
ENDROOT
BRANCH   1  13
HETATM   13  O1  UNL     1      -4.440  14.643  -7.086  1.00  0.00    -0.354 OA
HETATM   14  C1  UNL     1      -5.841  14.705  -7.065  1.00  0.00     0.209 C
ENDBRANCH   1  13
BRANCH  12  15
HETATM   15  O3  UNL     1      -4.186  16.532  -4.587  1.00  0.00    -0.365 OA
ATOM     16  H3  UNL     1      -4.526  17.252  -4.070  1.00  0.00     0.213 HD
ENDBRANCH  12  15
TORSDOF 2
ENDMDL