MODEL 2
REMARK VINA RESULT: -2.483971317      1.925      2.632
REMARK  1 active torsions:
REMARK  status: ('A' for Active; 'I' for Inactive)
REMARK    1  A    between atoms: N1_1  and  C1_5
ROOT
HETATM    1  C1  UNL     1     -34.217   4.835  -8.916  1.00  0.00     0.183 C
HETATM    2  C2  UNL     1     -33.760   5.783  -7.809  1.00  0.00     0.033 C
HETATM    3  C3  UNL     1     -33.048   6.586  -8.903  1.00  0.00     0.004 C
HETATM    4  C4  UNL     1     -33.002   5.296  -9.700  1.00  0.00     0.033 C
ENDROOT
BRANCH   1   5
HETATM    5  N1  UNL     1     -34.135   3.451  -8.549  1.00  0.00    -0.075 N
ATOM      6  H13 UNL     1     -33.171   3.186  -8.350  1.00  0.00     0.274 HD
ATOM      7  H12 UNL     1     -34.546   3.297  -7.628  1.00  0.00     0.274 HD
ATOM      8  H11 UNL     1     -34.548   2.825  -9.239  1.00  0.00     0.274 HD
ENDBRANCH   1   5
TORSDOF 1
ENDMDL