MODEL 1
REMARK VINA RESULT: -3.004828225      0.000      0.000
REMARK  2 active torsions:
REMARK  status: ('A' for Active; 'I' for Inactive)
REMARK    1  A    between atoms: C2_2  and  C3_3
REMARK    2  A    between atoms: C4_4  and  C5_5
ROOT
HETATM    1  C3  UNL     1     -33.046   6.564  -8.818  1.00  0.00    -0.073 C
HETATM    2  C4  UNL     1     -33.378   5.420  -9.036  1.00  0.00    -0.057 C
ENDROOT
BRANCH   2   3
HETATM    3  C5  UNL     1     -33.759   4.059  -9.300  1.00  0.00     0.146 C
HETATM    4  N1  UNL     1     -34.436   3.431  -8.402  1.00  0.00    -0.401 N
ATOM      5  H12 UNL     1     -34.688   3.900  -7.533  1.00  0.00     0.156 HD
ATOM      6  H11 UNL     1     -34.707   2.465  -8.589  1.00  0.00     0.156 HD
ENDBRANCH   2   3
BRANCH   1   7
HETATM    7  C2  UNL     1     -32.649   7.918  -8.556  1.00  0.00     0.054 C
HETATM    8  C1  UNL     1     -33.410   8.689  -7.809  1.00  0.00     0.020 C
ENDBRANCH   1   7
TORSDOF 2
ENDMDL