MODEL 1
REMARK VINA RESULT: -2.728034039      0.000      0.000
REMARK  0 active torsions:
REMARK  status: ('A' for Active; 'I' for Inactive)
ROOT
HETATM    1  C1  UNL     1     -33.931   4.139  -8.676  1.00  0.00     0.009 C
HETATM    2  C2  UNL     1     -33.182   5.013  -9.642  1.00  0.00    -0.013 C
HETATM    3  C3  UNL     1     -34.531   5.463 -10.121  1.00  0.00     0.009 C
HETATM    4  C4  UNL     1     -34.663   5.441  -8.612  1.00  0.00    -0.013 C
HETATM    5  C5  UNL     1     -33.314   6.099  -8.599  1.00  0.00     0.009 C
ENDROOT
TORSDOF 0
ENDMDL