MODEL 4
REMARK VINA RESULT: -3.026383621      9.110      9.872
REMARK  1 active torsions:
REMARK  status: ('A' for Active; 'I' for Inactive)
REMARK    1  A    between atoms: C3_3  and  O1_4
ROOT
HETATM    1  C1  UNL     1     -29.686  11.256 -18.137  1.00  0.00     0.015 C
HETATM    2  C2  UNL     1     -29.205  10.758 -17.147  1.00  0.00    -0.079 C
HETATM    3  C3  UNL     1     -28.603  10.170 -15.948  1.00  0.00     0.120 A
HETATM    4  C4  UNL     1     -28.884  10.802 -14.603  1.00  0.00     0.055 A
HETATM    5  C5  UNL     1     -29.493   9.440 -14.965  1.00  0.00     0.055 A
ENDROOT
BRANCH   3   6
HETATM    6  O1  UNL     1     -27.301   9.729 -16.146  1.00  0.00    -0.378 OA
ATOM      7  H1  UNL     1     -26.815  10.258 -16.767  1.00  0.00     0.211 HD
ENDBRANCH   3   6
TORSDOF 1
ENDMDL