MODEL 2
REMARK VINA RESULT: -3.053261985      0.653      1.495
REMARK  0 active torsions:
REMARK  status: ('A' for Active; 'I' for Inactive)
ROOT
HETATM    1  C1  UNL     1     -34.123   4.564  -7.852  1.00  0.00     0.005 C
HETATM    2  C2  UNL     1     -33.774   4.240  -9.275  1.00  0.00     0.005 C
HETATM    3  C3  UNL     1     -33.097   5.609  -9.343  1.00  0.00    -0.010 A
HETATM    4  C4  UNL     1     -33.961   6.801  -9.169  1.00  0.00     0.010 A
HETATM    5  C5  UNL     1     -33.657   5.969  -8.005  1.00  0.00    -0.010 A
ENDROOT
TORSDOF 0
ENDMDL