MODEL 2
REMARK VINA RESULT: -3.227217192      9.303      9.982
REMARK  1 active torsions:
REMARK  status: ('A' for Active; 'I' for Inactive)
REMARK    1  A    between atoms: O1_1  and  C1_3
ROOT
HETATM    1  C1  UNL     1     -28.244  10.020 -16.845  1.00  0.00     0.127 A
HETATM    2  C2  UNL     1     -28.402  11.198 -15.977  1.00  0.00     0.021 A
HETATM    3  C3  UNL     1     -29.665  11.428 -15.192  1.00  0.00     0.008 C
HETATM    4  C4  UNL     1     -29.783   9.968 -14.825  1.00  0.00     0.008 C
HETATM    5  C5  UNL     1     -28.398   9.761 -15.380  1.00  0.00     0.021 A
ENDROOT
BRANCH   1   6
HETATM    6  O1  UNL     1     -27.017   9.816 -17.424  1.00  0.00    -0.395 OA
ATOM      7  H1  UNL     1     -26.982   9.753 -18.372  1.00  0.00     0.210 HD
ENDBRANCH   1   6
TORSDOF 1
ENDMDL