MODEL 2
REMARK VINA RESULT: -2.881848550      2.136      2.864
REMARK  1 active torsions:
REMARK  status: ('A' for Active; 'I' for Inactive)
REMARK    1  A    between atoms: N1_1  and  C1_5
ROOT
HETATM    1  C1  UNL     1     -33.827   6.382  -8.898  1.00  0.00     0.188 C
HETATM    2  C2  UNL     1     -33.046   5.290  -9.659  1.00  0.00     0.038 C
HETATM    3  C3  UNL     1     -34.234   4.471  -9.139  1.00  0.00    -0.006 A
HETATM    4  C4  UNL     1     -34.499   4.061  -7.810  1.00  0.00     0.012 A
HETATM    5  C5  UNL     1     -33.765   5.272  -7.847  1.00  0.00     0.020 A
ENDROOT
BRANCH   1   6
HETATM    6  N1  UNL     1     -33.050   7.514  -8.519  1.00  0.00    -0.075 N
ATOM      7  H13 UNL     1     -32.882   7.508  -7.513  1.00  0.00     0.274 HD
ATOM      8  H12 UNL     1     -32.092   7.415  -8.857  1.00  0.00     0.274 HD
ATOM      9  H11 UNL     1     -33.437   8.412  -8.808  1.00  0.00     0.274 HD
ENDBRANCH   1   6
TORSDOF 1
ENDMDL