MODEL 3
REMARK VINA RESULT: -2.752117865      9.972     10.610
REMARK  1 active torsions:
REMARK  status: ('A' for Active; 'I' for Inactive)
REMARK    1  A    between atoms: O1_1  and  C1_3
ROOT
HETATM    1  C1  UNL     1     -33.805   4.829  -9.488  1.00  0.00     0.118 C
HETATM    2  C2  UNL     1     -34.121   3.433  -8.948  1.00  0.00     0.032 C
HETATM    3  C3  UNL     1     -34.847   4.154  -7.809  1.00  0.00     0.005 C
HETATM    4  C4  UNL     1     -33.857   5.296  -8.028  1.00  0.00     0.032 C
ENDROOT
BRANCH   1   5
HETATM    5  O1  UNL     1     -32.562   4.963 -10.059  1.00  0.00    -0.396 OA
ATOM      6  H1  UNL     1     -31.848   5.089  -9.445  1.00  0.00     0.210 HD
ENDBRANCH   1   5
TORSDOF 1
ENDMDL