MODEL 1
REMARK VINA RESULT: -3.330916948      0.000      0.000
REMARK  1 active torsions:
REMARK  status: ('A' for Active; 'I' for Inactive)
REMARK    1  A    between atoms: O1_1  and  N1_3
ROOT
HETATM    1  N1  UNL     1     -27.442  10.592 -16.747  1.00  0.00    -0.200 NA
HETATM    2  C1  UNL     1     -28.169  11.596 -17.538  1.00  0.00     0.120 C
HETATM    3  C2  UNL     1     -29.528  10.980 -17.755  1.00  0.00     0.018 C
HETATM    4  C3  UNL     1     -29.582   9.798 -16.780  1.00  0.00     0.018 C
HETATM    5  C4  UNL     1     -28.480  10.215 -15.800  1.00  0.00     0.120 C
ENDROOT
BRANCH   1   6
HETATM    6  O1  UNL     1     -27.044   9.560 -17.516  1.00  0.00    -0.313 OA
ATOM      7  H1  UNL     1     -26.104   9.578 -17.655  1.00  0.00     0.237 HD
ENDBRANCH   1   6
TORSDOF 1
ENDMDL