MODEL 4
REMARK VINA RESULT: -3.101931879      1.136      1.925
REMARK  1 active torsions:
REMARK  status: ('A' for Active; 'I' for Inactive)
REMARK    1  A    between atoms: O1_1  and  N1_3
ROOT
HETATM    1  N1  UNL     1     -28.160  10.047 -17.002  1.00  0.00    -0.200 NA
HETATM    2  C1  UNL     1     -28.432  11.421 -17.309  1.00  0.00     0.120 C
HETATM    3  C2  UNL     1     -28.498  12.159 -15.967  1.00  0.00     0.018 C
HETATM    4  C3  UNL     1     -29.054  11.041 -15.085  1.00  0.00     0.018 C
HETATM    5  C4  UNL     1     -28.199   9.871 -15.588  1.00  0.00     0.120 C
ENDROOT
BRANCH   1   6
HETATM    6  O1  UNL     1     -26.934   9.735 -17.475  1.00  0.00    -0.313 OA
ATOM      7  H1  UNL     1     -26.942   8.831 -17.763  1.00  0.00     0.237 HD
ENDBRANCH   1   6
TORSDOF 1
ENDMDL