MODEL 2
REMARK VINA RESULT: -5.137660191      0.091      1.135
REMARK  3 active torsions:
REMARK  status: ('A' for Active; 'I' for Inactive)
REMARK    1  A    between atoms: C2_2  and  N1_5
REMARK       I    between atoms: C5_7  and  N3_9
REMARK    2  A    between atoms: N3_9  and  N4_11
REMARK    3  A    between atoms: N4_11  and  C6_13
ROOT
HETATM    1  N4  UNL     1     -23.561  62.746  41.749  1.00  0.00    -0.127 N
ATOM      2  H4  UNL     1     -23.504  61.758  41.503  1.00  0.00     0.206 HD
ENDROOT
BRANCH   1   3
HETATM    3  N3  UNL     1     -23.557  63.171  43.103  1.00  0.00    -0.259 N
HETATM    4  C5  UNL     1     -24.614  62.877  43.989  1.00  0.00     0.204 C
HETATM    5  N1  UNL     1     -24.460  62.126  44.986  1.00  0.00    -0.355 N
HETATM    6  N2  UNL     1     -25.877  63.453  43.734  1.00  0.00    -0.062 NA
ATOM      7  H1  UNL     1     -25.291  61.983  45.560  1.00  0.00     0.163 HD
ATOM      8  H3  UNL     1     -22.760  63.707  43.448  1.00  0.00     0.190 HD
BRANCH   5   9
HETATM    9  C2  UNL     1     -23.293  61.452  45.423  1.00  0.00     0.021 C
HETATM   10  C1  UNL     1     -22.846  60.371  44.468  1.00  0.00     0.037 C
HETATM   11  C3  UNL     1     -23.413  60.823  46.791  1.00  0.00     0.037 C
HETATM   12  C4  UNL     1     -22.170  62.490  45.527  1.00  0.00     0.037 C
ENDBRANCH   5   9
ENDBRANCH   1   3
BRANCH   1  13
HETATM   13  C6  UNL     1     -23.640  63.652  40.849  1.00  0.00     0.728 A
HETATM   14  N5  UNL     1     -22.796  63.911  39.812  1.00  0.00    -0.114 N
HETATM   15  N6  UNL     1     -23.221  64.924  39.108  1.00  0.00    -0.213 N
ATOM     16  H5  UNL     1     -21.946  63.384  39.614  1.00  0.00     0.207 HD
HETATM   17  N7  UNL     1     -24.333  65.343  39.658  1.00  0.00    -0.213 N
ATOM     18  H6  UNL     1     -22.770  65.317  38.281  1.00  0.00     0.210 HD
HETATM   19  N8  UNL     1     -24.610  64.586  40.720  1.00  0.00    -0.114 N
ATOM     20  H7  UNL     1     -24.898  66.126  39.327  1.00  0.00     0.210 HD
ATOM     21  H8  UNL     1     -25.418  64.693  41.333  1.00  0.00     0.207 HD
ENDBRANCH   1  13
TORSDOF 3
ENDMDL