MODEL 1
REMARK VINA RESULT: -4.803878486      0.000      0.000
REMARK  6 active torsions:
REMARK  status: ('A' for Active; 'I' for Inactive)
REMARK    1  A    between atoms: C2_2  and  C3_3
REMARK    2  A    between atoms: C5_5  and  N1_6
REMARK    3  A    between atoms: N1_6  and  C6_8
REMARK    4  A    between atoms: C6_8  and  O1_9
REMARK    5  A    between atoms: N2_11  and  N3_13
REMARK    6  A    between atoms: C7_18  and  N5_19
ROOT
HETATM    1  C3  UNL     1     -22.571  61.501  46.118  1.00  0.00     0.052 A
HETATM    2  C4  UNL     1     -22.661  62.468  45.106  1.00  0.00     0.079 A
HETATM    3  C5  UNL     1     -23.855  62.703  44.465  1.00  0.00     0.126 A
HETATM    4  N4  UNL     1     -24.969  62.025  44.778  1.00  0.00    -0.177 N
ATOM      5  H4  UNL     1     -25.849  62.208  44.297  1.00  0.00     0.185 HD
HETATM    6  C7  UNL     1     -24.888  61.099  45.745  1.00  0.00     0.677 A
HETATM    7  N6  UNL     1     -23.714  60.860  46.383  1.00  0.00    -0.192 N
ATOM      8  H6  UNL     1     -23.704  60.147  47.112  1.00  0.00     0.184 HD
ENDROOT
BRANCH   3   9
HETATM    9  N1  UNL     1     -23.935  63.589  43.539  1.00  0.00    -0.307 N
ATOM     10  H1  UNL     1     -23.638  64.544  43.741  1.00  0.00     0.171 HD
BRANCH   9  11
HETATM   11  C6  UNL     1     -24.421  63.280  42.246  1.00  0.00     0.237 C
HETATM   12  N2  UNL     1     -23.571  62.996  41.329  1.00  0.00    -0.272 N
ATOM     13  H2  UNL     1     -22.584  63.009  41.585  1.00  0.00     0.190 HD
BRANCH  11  14
HETATM   14  O1  UNL     1     -25.769  63.268  41.921  1.00  0.00    -0.331 OA
ATOM     15  H1  UNL     1     -26.313  64.047  41.917  1.00  0.00     0.221 HD
ENDBRANCH  11  14
BRANCH  12  16
HETATM   16  N3  UNL     1     -23.880  62.676  40.032  1.00  0.00    -0.342 N
ATOM     17  H32 UNL     1     -24.451  61.842  39.897  1.00  0.00     0.176 HD
ATOM     18  H31 UNL     1     -23.587  63.202  39.209  1.00  0.00     0.176 HD
ENDBRANCH  12  16
ENDBRANCH   9  11
ENDBRANCH   3   9
BRANCH   1  19
HETATM   19  C2  UNL     1     -21.308  61.255  46.792  1.00  0.00     0.020 C
HETATM   20  C1  UNL     1     -20.655  60.135  46.716  1.00  0.00     0.013 C
ENDBRANCH   1  19
BRANCH   6  21
HETATM   21  N5  UNL     1     -25.948  60.440  46.058  1.00  0.00    -0.234 N
ATOM     22  H52 UNL     1     -26.790  60.513  45.488  1.00  0.00     0.174 HD
ATOM     23  H51 UNL     1     -25.926  59.843  46.886  1.00  0.00     0.174 HD
ENDBRANCH   6  21
TORSDOF 6
ENDMDL