MODEL 4
REMARK VINA RESULT: -5.573838114      2.238      5.429
REMARK  5 active torsions:
REMARK  status: ('A' for Active; 'I' for Inactive)
REMARK    1  A    between atoms: N1_1  and  N2_4
REMARK    2  A    between atoms: N2_4  and  C1_6
REMARK    3  A    between atoms: C1_6  and  N3_8
REMARK    4  A    between atoms: N3_8  and  N4_10
REMARK    5  A    between atoms: N4_10  and  C2_12
ROOT
HETATM    1  N3  UNL     1     -24.044  63.107  43.776  1.00  0.00    -0.274 N
ATOM      2  H3  UNL     1     -24.954  63.503  44.010  1.00  0.00     0.189 HD
ENDROOT
BRANCH   1   3
HETATM    3  C1  UNL     1     -23.337  62.379  44.760  1.00  0.00     0.204 C
HETATM    4  S1  UNL     1     -22.073  63.098  45.562  1.00  0.00    -0.038 SA
BRANCH   3   5
HETATM    5  N2  UNL     1     -23.708  61.056  45.053  1.00  0.00    -0.282 N
ATOM      6  H2  UNL     1     -23.080  60.292  44.805  1.00  0.00     0.189 HD
BRANCH   5   7
HETATM    7  N1  UNL     1     -24.911  60.775  45.673  1.00  0.00    -0.343 N
ATOM      8  H12 UNL     1     -24.909  60.583  46.675  1.00  0.00     0.176 HD
ATOM      9  H11 UNL     1     -25.783  60.758  45.144  1.00  0.00     0.176 HD
ENDBRANCH   5   7
ENDBRANCH   3   5
ENDBRANCH   1   3
BRANCH   1  10
HETATM   10  N4  UNL     1     -23.540  63.294  42.517  1.00  0.00    -0.283 N
ATOM     11  H4  UNL     1     -22.570  63.601  42.441  1.00  0.00     0.188 HD
BRANCH  10  12
HETATM   12  C2  UNL     1     -24.192  63.113  41.420  1.00  0.00     0.119 A
HETATM   13  C3  UNL     1     -23.473  62.677  40.330  1.00  0.00     0.050 A
HETATM   14  C4  UNL     1     -24.140  62.474  39.146  1.00  0.00     0.005 A
HETATM   15  C5  UNL     1     -25.493  62.714  39.098  1.00  0.00     0.017 A
HETATM   16  C6  UNL     1     -26.181  63.147  40.198  1.00  0.00     0.089 A
HETATM   17  N5  UNL     1     -25.513  63.338  41.340  1.00  0.00    -0.351 N
ATOM     18  H5  UNL     1     -26.017  63.660  42.167  1.00  0.00     0.166 HD
ENDBRANCH  10  12
ENDBRANCH   1  10
TORSDOF 5
ENDMDL