MODEL 3
REMARK VINA RESULT: -3.688898046      1.205      3.398
REMARK  1 active torsions:
REMARK  status: ('A' for Active; 'I' for Inactive)
REMARK    1  A    between atoms: N1_2  and  C2_4
REMARK       I    between atoms: N5_13  and  C6_15
ROOT
HETATM    1  C2  UNL     1     -25.760  63.243  40.831  1.00  0.00     0.694 A
HETATM    2  N2  UNL     1     -24.907  63.233  39.797  1.00  0.00    -0.166 N
ATOM      3  H2  UNL     1     -25.276  63.326  38.850  1.00  0.00     0.186 HD
HETATM    4  C3  UNL     1     -23.571  63.102  39.971  1.00  0.00     0.217 A
HETATM    5  C4  UNL     1     -22.685  63.094  38.843  1.00  0.00     0.138 C
HETATM    6  N3  UNL     1     -21.969  63.069  37.932  1.00  0.00    -0.188 NA
HETATM    7  N4  UNL     1     -23.087  62.979  41.233  1.00  0.00    -0.165 N
ATOM      8  H4  UNL     1     -22.083  62.880  41.385  1.00  0.00     0.186 HD
HETATM    9  C5  UNL     1     -23.916  62.988  42.270  1.00  0.00     0.701 A
HETATM   10  N5  UNL     1     -23.468  62.872  43.472  1.00  0.00    -0.163 N
ATOM     11  H5  UNL     1     -22.467  62.773  43.636  1.00  0.00     0.187 HD
HETATM   12  C6  UNL     1     -24.366  62.883  44.565  1.00  0.00     0.200 C
HETATM   13  N6  UNL     1     -24.775  64.000  45.060  1.00  0.00    -0.373 N
ATOM     14  H61 UNL     1     -25.423  64.008  45.848  1.00  0.00     0.158 HD
ATOM     15  H62 UNL     1     -24.449  64.881  44.662  1.00  0.00     0.158 HD
HETATM   16  N7  UNL     1     -24.821  61.655  45.120  1.00  0.00    -0.063 NA
HETATM   17  N8  UNL     1     -25.261  63.120  42.069  1.00  0.00    -0.022 N
ATOM     18  H8  UNL     1     -25.892  63.126  42.871  1.00  0.00     0.203 HD
ENDROOT
BRANCH   1  19
HETATM   19  N1  UNL     1     -27.012  63.367  40.646  1.00  0.00    -0.230 N
HETATM   20  C1  UNL     1     -27.643  63.823  39.449  1.00  0.00     0.165 C
ATOM     21  H1  UNL     1     -27.622  63.117  41.425  1.00  0.00     0.177 HD
ENDBRANCH   1  19
TORSDOF 1
ENDMDL