MODEL 3
REMARK VINA RESULT: -1.875640693      3.328      4.539
REMARK  2 active torsions:
REMARK  status: ('A' for Active; 'I' for Inactive)
REMARK    1  A    between atoms: C2_2  and  N1_3
REMARK    2  A    between atoms: N1_3  and  C3_5
ROOT
HETATM    1  C3  UNL     1     -23.158  62.838  44.478  1.00  0.00     0.119 A
HETATM    2  N2  UNL     1     -24.169  63.510  43.915  1.00  0.00    -0.338 N
ATOM      3  H2  UNL     1     -23.954  64.280  43.282  1.00  0.00     0.168 HD
HETATM    4  C4  UNL     1     -25.450  63.208  44.149  1.00  0.00     0.183 A
HETATM    5  N3  UNL     1     -25.720  62.183  44.990  1.00  0.00    -0.337 N
ATOM      6  H3  UNL     1     -26.691  61.939  45.182  1.00  0.00     0.168 HD
HETATM    7  C5  UNL     1     -24.737  61.479  45.580  1.00  0.00     0.138 A
HETATM    8  N4  UNL     1     -24.714  60.425  46.449  1.00  0.00    -0.283 N
ATOM      9  H4  UNL     1     -25.538  59.958  46.825  1.00  0.00     0.188 HD
HETATM   10  N5  UNL     1     -23.466  60.100  46.728  1.00  0.00    -0.283 N
ATOM     11  H5  UNL     1     -23.190  59.344  47.353  1.00  0.00     0.188 HD
HETATM   12  C6  UNL     1     -22.611  60.905  46.074  1.00  0.00     0.133 A
HETATM   13  N6  UNL     1     -21.335  60.943  46.057  1.00  0.00    -0.379 N
ATOM     14  H6  UNL     1     -20.900  61.658  45.474  1.00  0.00     0.160 HD
HETATM   15  C7  UNL     1     -20.462  60.076  46.778  1.00  0.00     0.147 C
HETATM   16  C8  UNL     1     -23.408  61.771  45.354  1.00  0.00     0.098 A
ENDROOT
BRANCH   1  17
HETATM   17  N1  UNL     1     -21.923  63.099  44.276  1.00  0.00    -0.376 N
ATOM     18  H1  UNL     1     -21.536  62.884  43.357  1.00  0.00     0.161 HD
BRANCH  17  19
HETATM   19  C2  UNL     1     -21.039  63.678  45.261  1.00  0.00     0.116 C
HETATM   20  C1  UNL     1     -21.787  64.208  46.468  1.00  0.00     0.026 C
ENDBRANCH  17  19
ENDBRANCH   1  17
TORSDOF 2
ENDMDL