MODEL 1
REMARK VINA RESULT: -3.467874300      0.000      0.000
REMARK  2 active torsions:
REMARK  status: ('A' for Active; 'I' for Inactive)
REMARK    1  A    between atoms: C3_7  and  N3_8
REMARK    2  A    between atoms: C5_12  and  N4_13
REMARK       I    between atoms: N4_13  and  C6_15
ROOT
HETATM    1  C1  UNL     1     -22.423  61.216  39.317  1.00  0.00     0.165 C
HETATM    2  N1  UNL     1     -22.637  62.607  38.986  1.00  0.00    -0.230 N
ATOM      3  H1  UNL     1     -22.231  62.970  38.123  1.00  0.00     0.177 HD
HETATM    4  C2  UNL     1     -23.314  63.404  39.726  1.00  0.00     0.683 A
HETATM    5  N2  UNL     1     -23.443  64.679  39.313  1.00  0.00    -0.155 N
ATOM      6  H2  UNL     1     -23.020  65.002  38.443  1.00  0.00     0.188 HD
HETATM    7  C3  UNL     1     -24.157  65.507  40.098  1.00  0.00     0.241 A
HETATM    8  O1  UNL     1     -24.707  65.097  41.224  1.00  0.00    -0.245 OA
HETATM    9  C5  UNL     1     -24.598  63.862  41.654  1.00  0.00     0.248 A
HETATM   10  N7  UNL     1     -23.890  63.014  40.886  1.00  0.00    -0.154 N
ATOM     11  H7  UNL     1     -23.784  62.045  41.188  1.00  0.00     0.188 HD
ENDROOT
BRANCH   9  12
HETATM   12  N4  UNL     1     -25.124  63.432  42.749  1.00  0.00    -0.296 N
HETATM   13  C6  UNL     1     -24.417  63.111  43.907  1.00  0.00     0.189 C
HETATM   14  N5  UNL     1     -25.050  62.790  44.973  1.00  0.00    -0.373 N
HETATM   15  N6  UNL     1     -23.005  63.132  43.933  1.00  0.00    -0.064 NA
ATOM     16  H52 UNL     1     -26.070  62.776  44.955  1.00  0.00     0.158 HD
ATOM     17  H51 UNL     1     -24.533  62.556  45.821  1.00  0.00     0.158 HD
ATOM     18  H4  UNL     1     -26.137  63.317  42.771  1.00  0.00     0.172 HD
ENDBRANCH   9  12
BRANCH   7  19
HETATM   19  N3  UNL     1     -24.312  66.726  39.754  1.00  0.00    -0.360 N
HETATM   20  C4  UNL     1     -24.711  67.788  40.621  1.00  0.00     0.150 C
ATOM     21  H3  UNL     1     -24.137  66.962  38.778  1.00  0.00     0.162 HD
ENDBRANCH   7  19
TORSDOF 2
ENDMDL