MODEL 2
REMARK VINA RESULT: -4.401184007      0.840      2.828
REMARK  5 active torsions:
REMARK  status: ('A' for Active; 'I' for Inactive)
REMARK    1  A    between atoms: N1_2  and  C2_4
REMARK    2  A    between atoms: C3_7  and  N3_8
REMARK    3  A    between atoms: N3_8  and  N4_10
REMARK    4  A    between atoms: C4_15  and  N6_16
REMARK    5  A    between atoms: N6_16  and  C5_18
ROOT
HETATM    1  C2  UNL     1     -25.674  63.287  40.737  1.00  0.00     0.706 A
HETATM    2  N2  UNL     1     -24.610  63.110  39.937  1.00  0.00    -0.020 N
ATOM      3  H2  UNL     1     -24.716  63.072  38.923  1.00  0.00     0.203 HD
HETATM    4  C3  UNL     1     -23.388  62.982  40.514  1.00  0.00     0.725 A
HETATM    5  N5  UNL     1     -23.241  63.030  41.832  1.00  0.00    -0.020 N
ATOM      6  H5  UNL     1     -22.308  62.930  42.231  1.00  0.00     0.203 HD
HETATM    7  C4  UNL     1     -24.308  63.209  42.670  1.00  0.00     0.707 A
HETATM    8  N7  UNL     1     -25.500  63.331  42.061  1.00  0.00    -0.022 N
ATOM      9  H7  UNL     1     -26.324  63.465  42.647  1.00  0.00     0.203 HD
ENDROOT
BRANCH   4  10
HETATM   10  N3  UNL     1     -22.351  62.810  39.747  1.00  0.00    -0.138 N
ATOM     11  H3  UNL     1     -21.421  62.741  40.161  1.00  0.00     0.205 HD
BRANCH  10  12
HETATM   12  N4  UNL     1     -22.501  62.720  38.367  1.00  0.00    -0.331 N
ATOM     13  H42 UNL     1     -23.355  62.308  37.992  1.00  0.00     0.177 HD
ATOM     14  H41 UNL     1     -21.769  63.060  37.743  1.00  0.00     0.177 HD
ENDBRANCH  10  12
ENDBRANCH   4  10
BRANCH   1  15
HETATM   15  N1  UNL     1     -26.834  63.408  40.205  1.00  0.00    -0.229 N
HETATM   16  C1  UNL     1     -27.136  64.227  39.074  1.00  0.00     0.165 C
ATOM     17  H1  UNL     1     -27.601  62.879  40.620  1.00  0.00     0.177 HD
ENDBRANCH   1  15
BRANCH   7  18
HETATM   18  N6  UNL     1     -24.109  63.246  43.920  1.00  0.00    -0.221 N
ATOM     19  H6  UNL     1     -24.612  63.967  44.437  1.00  0.00     0.178 HD
BRANCH  18  20
HETATM   20  C5  UNL     1     -23.265  62.398  44.684  1.00  0.00     0.091 C
HETATM   21  C6  UNL     1     -24.101  61.588  45.670  1.00  0.00     0.032 C
HETATM   22  C7  UNL     1     -22.143  63.109  45.362  1.00  0.00     0.032 C
ENDBRANCH  18  20
ENDBRANCH   7  18
TORSDOF 5
ENDMDL