MODEL 5
REMARK VINA RESULT: -6.939827072      2.301      2.859
REMARK  2 active torsions:
REMARK  status: ('A' for Active; 'I' for Inactive)
REMARK    1  A    between atoms: N4_10  and  N5_12
REMARK    2  A    between atoms: N5_12  and  C4_14
ROOT
HETATM    1  C1  UNL     1      17.390  -5.192 -24.587  1.00  0.00     0.197 C
HETATM    2  N1  UNL     1      18.524  -5.556 -25.404  1.00  0.00    -0.123 N
HETATM    3  N2  UNL     1      19.093  -4.724 -26.274  1.00  0.00    -0.235 N
ATOM      4  H2  UNL     1      18.799  -3.764 -26.454  1.00  0.00     0.192 HD
HETATM    5  C2  UNL     1      20.113  -5.349 -26.874  1.00  0.00     0.353 A
HETATM    6  O1  UNL     1      20.914  -4.928 -27.757  1.00  0.00    -0.245 OA
HETATM    7  N3  UNL     1      20.145  -6.587 -26.341  1.00  0.00    -0.137 N
ATOM      8  H3  UNL     1      20.816  -7.312 -26.594  1.00  0.00     0.189 HD
HETATM    9  C3  UNL     1      19.172  -6.730 -25.434  1.00  0.00     0.717 A
HETATM   10  N4  UNL     1      18.856  -7.742 -24.702  1.00  0.00    -0.116 N
ATOM     11  H4  UNL     1      18.072  -7.674 -24.054  1.00  0.00     0.206 HD
ENDROOT
BRANCH  10  12
HETATM   12  N5  UNL     1      19.580  -8.931 -24.792  1.00  0.00    -0.116 N
ATOM     13  H5  UNL     1      20.502  -8.975 -24.356  1.00  0.00     0.206 HD
BRANCH  12  14
HETATM   14  C4  UNL     1      19.136  -9.976 -25.400  1.00  0.00     0.722 A
HETATM   15  N6  UNL     1      19.186 -10.153 -26.727  1.00  0.00    -0.115 N
HETATM   16  N7  UNL     1      18.634 -11.348 -26.987  1.00  0.00     0.006 NA
ATOM     17  H6  UNL     1      19.572  -9.502 -27.411  1.00  0.00     0.202 HD
HETATM   18  N8  UNL     1      18.241 -11.919 -25.862  1.00  0.00     0.006 NA
HETATM   19  N9  UNL     1      18.554 -11.065 -24.872  1.00  0.00    -0.115 N
ATOM     20  H9  UNL     1      18.377 -11.220 -23.879  1.00  0.00     0.202 HD
ENDBRANCH  12  14
ENDBRANCH  10  12
TORSDOF 2
ENDMDL