MODEL 4
REMARK VINA RESULT: -7.042099088      1.082      3.409
REMARK  2 active torsions:
REMARK  status: ('A' for Active; 'I' for Inactive)
REMARK    1  A    between atoms: N1_1  and  N2_4
REMARK    2  A    between atoms: N2_4  and  C1_6
ROOT
HETATM    1  C1  UNL     1      18.812  -7.242 -25.305  1.00  0.00     0.153 C
HETATM    2  N3  UNL     1      19.555  -7.618 -26.354  1.00  0.00    -0.291 N
ATOM      3  H3  UNL     1      20.096  -6.879 -26.804  1.00  0.00     0.172 HD
HETATM    4  C2  UNL     1      19.682  -8.860 -26.897  1.00  0.00     0.328 C
HETATM    5  O1  UNL     1      20.311  -8.887 -27.977  1.00  0.00    -0.247 OA
HETATM    6  N4  UNL     1      19.219 -10.044 -26.425  1.00  0.00    -0.273 N
ATOM      7  H4  UNL     1      19.535 -10.860 -26.948  1.00  0.00     0.173 HD
HETATM    8  C3  UNL     1      18.422 -10.326 -25.393  1.00  0.00     0.278 C
HETATM    9  O2  UNL     1      18.122 -11.542 -25.187  1.00  0.00    -0.265 OA
HETATM   10  C4  UNL     1      17.867  -9.438 -24.501  1.00  0.00     0.133 A
HETATM   11  N5  UNL     1      17.042  -9.801 -23.499  1.00  0.00    -0.346 N
ATOM     12  H5  UNL     1      16.724 -10.742 -23.269  1.00  0.00     0.167 HD
HETATM   13  C5  UNL     1      16.728  -8.654 -22.868  1.00  0.00     0.181 A
HETATM   14  N6  UNL     1      17.328  -7.606 -23.446  1.00  0.00    -0.347 N
ATOM     15  H6  UNL     1      17.244  -6.634 -23.149  1.00  0.00     0.167 HD
HETATM   16  C6  UNL     1      18.061  -8.051 -24.483  1.00  0.00     0.112 A
ENDROOT
BRANCH   1  17
HETATM   17  N2  UNL     1      18.767  -6.000 -24.995  1.00  0.00    -0.290 N
ATOM     18  H2  UNL     1      19.211  -5.734 -24.116  1.00  0.00     0.188 HD
BRANCH  17  19
HETATM   19  N1  UNL     1      18.189  -4.994 -25.713  1.00  0.00    -0.344 N
ATOM     20  H12 UNL     1      18.257  -5.087 -26.726  1.00  0.00     0.176 HD
ATOM     21  H11 UNL     1      17.705  -4.175 -25.344  1.00  0.00     0.176 HD
ENDBRANCH  17  19
ENDBRANCH   1  17
TORSDOF 2
ENDMDL