MODEL 4
REMARK VINA RESULT: -5.748498748      0.859      1.212
REMARK  4 active torsions:
REMARK  status: ('A' for Active; 'I' for Inactive)
REMARK    1  A    between atoms: N1_2  and  N2_3
REMARK    2  A    between atoms: N1_2  and  N3_6
REMARK    3  A    between atoms: N3_6  and  C2_8
REMARK    4  A    between atoms: C3_11  and  N5_12
ROOT
HETATM    1  C2  UNL     1      18.174  -7.666 -24.684  1.00  0.00     0.718 A
HETATM    2  N4  UNL     1      18.648  -6.542 -25.261  1.00  0.00    -0.021 N
ATOM      3  H4  UNL     1      19.414  -6.611 -25.932  1.00  0.00     0.203 HD
HETATM    4  C3  UNL     1      18.135  -5.335 -24.974  1.00  0.00     0.694 A
HETATM    5  N6  UNL     1      17.128  -5.282 -24.085  1.00  0.00    -0.140 N
ATOM      6  H6  UNL     1      16.719  -4.379 -23.848  1.00  0.00     0.189 HD
HETATM    7  C4  UNL     1      16.640  -6.413 -23.494  1.00  0.00     0.354 A
HETATM    8  O1  UNL     1      15.692  -6.355 -22.657  1.00  0.00    -0.245 OA
HETATM    9  N7  UNL     1      17.168  -7.613 -23.795  1.00  0.00    -0.135 N
HETATM   10  C5  UNL     1      16.663  -8.813 -23.178  1.00  0.00     0.180 C
ENDROOT
BRANCH   1  11
HETATM   11  N3  UNL     1      18.658  -8.835 -24.950  1.00  0.00    -0.115 N
ATOM     12  H3  UNL     1      18.052  -9.647 -24.839  1.00  0.00     0.207 HD
BRANCH  11  13
HETATM   13  N1  UNL     1      19.959  -9.041 -25.379  1.00  0.00    -0.231 N
HETATM   14  C1  UNL     1      21.072  -9.040 -24.449  1.00  0.00     0.200 C
BRANCH  13  15
HETATM   15  N2  UNL     1      20.209  -9.254 -26.722  1.00  0.00    -0.329 N
ATOM     16  H22 UNL     1      20.775  -8.583 -27.242  1.00  0.00     0.178 HD
ATOM     17  H21 UNL     1      19.818 -10.082 -27.172  1.00  0.00     0.178 HD
ENDBRANCH  13  15
ENDBRANCH  11  13
ENDBRANCH   1  11
BRANCH   4  18
HETATM   18  N5  UNL     1      18.576  -4.243 -25.519  1.00  0.00    -0.234 N
ATOM     19  H52 UNL     1      18.301  -3.337 -25.141  1.00  0.00     0.174 HD
ATOM     20  H51 UNL     1      19.200  -4.249 -26.327  1.00  0.00     0.174 HD
ENDBRANCH   4  18
TORSDOF 4
ENDMDL