MODEL 2
REMARK VINA RESULT: -6.670759836      2.521      3.231
REMARK  1 active torsions:
REMARK  status: ('A' for Active; 'I' for Inactive)
REMARK    1  A    between atoms: C3_11  and  N5_12
ROOT
HETATM    1  N1  UNL     1      16.200  -8.366 -23.784  1.00  0.00    -0.235 N
ATOM      2  H11 UNL     1      16.297  -7.558 -23.168  1.00  0.00     0.174 HD
ATOM      3  H12 UNL     1      15.296  -8.653 -24.159  1.00  0.00     0.174 HD
HETATM    4  C1  UNL     1      17.292  -9.002 -24.057  1.00  0.00     0.677 A
HETATM    5  N2  UNL     1      17.156 -10.134 -24.921  1.00  0.00    -0.164 N
ATOM      6  H2  UNL     1      16.237 -10.394 -25.278  1.00  0.00     0.187 HD
HETATM    7  C2  UNL     1      18.195 -10.830 -25.250  1.00  0.00     0.205 A
HETATM    8  N3  UNL     1      18.107 -11.958 -26.102  1.00  0.00    -0.063 NA
HETATM    9  N4  UNL     1      19.447 -10.451 -24.745  1.00  0.00    -0.318 N
ATOM     10  H4  UNL     1      20.256 -10.979 -25.073  1.00  0.00     0.166 HD
HETATM   11  C3  UNL     1      19.703  -9.383 -23.803  1.00  0.00     0.444 A
HETATM   12  N6  UNL     1      18.548  -8.603 -23.536  1.00  0.00    -0.177 N
ATOM     13  H6  UNL     1      18.621  -7.758 -22.970  1.00  0.00     0.181 HD
ENDROOT
BRANCH  11  14
HETATM   14  N5  UNL     1      20.844  -8.646 -24.262  1.00  0.00     0.135 N
HETATM   15  C4  UNL     1      22.085  -9.337 -24.173  1.00  0.00     0.303 C
HETATM   16  C5  UNL     1      23.169  -8.254 -24.105  1.00  0.00     0.198 C
HETATM   17  O1  UNL     1      22.856  -7.167 -24.879  1.00  0.00    -0.388 OA
HETATM   18  C6  UNL     1      22.019  -7.435 -25.944  1.00  0.00     0.198 C
HETATM   19  C7  UNL     1      20.692  -8.023 -25.529  1.00  0.00     0.303 C
ENDBRANCH  11  14
TORSDOF 1
ENDMDL