MODEL 2
REMARK VINA RESULT: -5.681237482      1.112      2.121
REMARK  3 active torsions:
REMARK  status: ('A' for Active; 'I' for Inactive)
REMARK    1  A    between atoms: N1_1  and  C1_4
REMARK    2  A    between atoms: C3_9  and  S1_10
REMARK    3  A    between atoms: S1_10  and  N4_11
ROOT
HETATM    1  C1  UNL     1      18.409  -4.727 -25.642  1.00  0.00     0.677 A
HETATM    2  N2  UNL     1      17.479  -4.751 -24.672  1.00  0.00    -0.178 N
ATOM      3  H2  UNL     1      17.039  -3.876 -24.389  1.00  0.00     0.185 HD
HETATM    4  C2  UNL     1      17.108  -5.900 -24.059  1.00  0.00     0.156 A
HETATM    5  N3  UNL     1      16.123  -5.926 -23.032  1.00  0.00    -0.080 NA
HETATM    6  C3  UNL     1      17.684  -7.105 -24.417  1.00  0.00     0.136 A
HETATM    7  C4  UNL     1      18.639  -7.061 -25.414  1.00  0.00     0.135 A
HETATM    8  N5  UNL     1      18.984  -5.887 -26.007  1.00  0.00    -0.201 N
ATOM      9  H5  UNL     1      19.692  -5.886 -26.741  1.00  0.00     0.183 HD
ENDROOT
BRANCH   6  10
HETATM   10  S1  UNL     1      17.240  -8.619 -23.654  1.00  0.00     0.261 S
HETATM   11  O1  UNL     1      15.782  -8.833 -23.831  1.00  0.00    -0.201 OA
HETATM   12  O2  UNL     1      18.070  -9.754 -24.164  1.00  0.00    -0.201 OA
BRANCH  10  13
HETATM   13  N4  UNL     1      17.556  -8.497 -21.941  1.00  0.00    -0.324 N
ATOM     14  H42 UNL     1      18.315  -7.958 -21.524  1.00  0.00     0.169 HD
ATOM     15  H41 UNL     1      16.860  -9.050 -21.440  1.00  0.00     0.169 HD
ENDBRANCH  10  13
ENDBRANCH   6  10
BRANCH   1  16
HETATM   16  N1  UNL     1      18.774  -3.635 -26.238  1.00  0.00    -0.234 N
ATOM     17  H12 UNL     1      18.629  -2.744 -25.763  1.00  0.00     0.174 HD
ATOM     18  H11 UNL     1      19.200  -3.628 -27.164  1.00  0.00     0.174 HD
ENDBRANCH   1  16
TORSDOF 3
ENDMDL