MODEL 4
REMARK VINA RESULT: -5.646117741      1.492      1.962
REMARK  4 active torsions:
REMARK  status: ('A' for Active; 'I' for Inactive)
REMARK    1  A    between atoms: C2_5  and  N3_6
REMARK    2  A    between atoms: C3_9  and  C4_10
REMARK    3  A    between atoms: C4_10  and  N4_11
REMARK    4  A    between atoms: N6_19  and  N7_20
ROOT
HETATM    1  C1  UNL     1      19.650  -5.445 -27.936  1.00  0.00     0.179 C
HETATM    2  N1  UNL     1      19.333  -6.483 -26.956  1.00  0.00    -0.276 N
HETATM    3  N2  UNL     1      19.762  -7.723 -27.123  1.00  0.00    -0.282 N
ATOM      4  H2  UNL     1      20.320  -7.970 -27.940  1.00  0.00     0.189 HD
HETATM    5  C2  UNL     1      19.457  -8.644 -26.213  1.00  0.00     0.124 A
HETATM    6  C3  UNL     1      18.696  -8.341 -25.086  1.00  0.00     0.043 A
HETATM    7  C5  UNL     1      18.256  -7.037 -24.930  1.00  0.00     0.092 A
HETATM    8  N5  UNL     1      17.517  -6.422 -23.977  1.00  0.00    -0.347 N
ATOM      9  H5  UNL     1      17.124  -6.852 -23.138  1.00  0.00     0.167 HD
HETATM   10  C6  UNL     1      17.401  -5.135 -24.349  1.00  0.00     0.208 A
HETATM   11  N6  UNL     1      18.058  -4.941 -25.522  1.00  0.00    -0.238 N
HETATM   12  C7  UNL     1      18.591  -6.117 -25.888  1.00  0.00     0.172 A
ENDROOT
BRANCH   6  13
HETATM   13  C4  UNL     1      18.368  -9.371 -24.091  1.00  0.00     0.274 C
BRANCH  13  14
HETATM   14  N4  UNL     1      19.241  -9.246 -22.966  1.00  0.00    -0.075 N
ATOM     15  H43 UNL     1      18.970  -8.478 -22.351  1.00  0.00     0.274 HD
ATOM     16  H42 UNL     1      19.125 -10.012 -22.302  1.00  0.00     0.274 HD
ATOM     17  H41 UNL     1      20.204  -9.159 -23.289  1.00  0.00     0.274 HD
ENDBRANCH  13  14
ENDBRANCH   6  13
BRANCH   5  18
HETATM   18  N3  UNL     1      19.842  -9.874 -26.311  1.00  0.00    -0.384 N
ATOM     19  H32 UNL     1      19.536 -10.364 -27.151  1.00  0.00     0.157 HD
ATOM     20  H31 UNL     1      20.413 -10.329 -25.599  1.00  0.00     0.157 HD
ENDBRANCH   5  18
BRANCH  11  21
HETATM   21  N7  UNL     1      18.175  -3.748 -26.240  1.00  0.00    -0.336 N
ATOM     22  H72 UNL     1      18.418  -2.842 -25.838  1.00  0.00     0.177 HD
ATOM     23  H71 UNL     1      18.039  -3.613 -27.242  1.00  0.00     0.177 HD
ENDBRANCH  11  21
TORSDOF 4
ENDMDL