MODEL 4
REMARK VINA RESULT: -6.277099929      1.838      3.819
REMARK  4 active torsions:
REMARK  status: ('A' for Active; 'I' for Inactive)
REMARK    1  A    between atoms: C5_7  and  N2_8
REMARK    2  A    between atoms: N2_8  and  N3_10
REMARK    3  A    between atoms: N7_18  and  C6_19
REMARK    4  A    between atoms: C6_19  and  O1_20
ROOT
HETATM    1  C1  UNL     1      19.925  -6.711 -28.624  1.00  0.00     0.063 C
HETATM    2  C2  UNL     1      19.472  -7.032 -27.429  1.00  0.00     0.098 A
HETATM    3  N1  UNL     1      19.303  -8.340 -27.092  1.00  0.00    -0.326 N
ATOM      4  H1  UNL     1      19.526  -9.077 -27.761  1.00  0.00     0.169 HD
HETATM    5  C3  UNL     1      18.845  -8.648 -25.880  1.00  0.00     0.156 A
HETATM    6  C4  UNL     1      18.552  -7.635 -24.996  1.00  0.00     0.137 A
HETATM    7  C5  UNL     1      18.727  -6.307 -25.348  1.00  0.00     0.153 A
HETATM    8  N4  UNL     1      19.191  -6.040 -26.577  1.00  0.00    -0.326 N
ATOM      9  H4  UNL     1      19.330  -5.071 -26.865  1.00  0.00     0.169 HD
HETATM   10  N5  UNL     1      18.120  -8.117 -23.871  1.00  0.00    -0.277 N
ATOM     11  H5  UNL     1      17.842  -7.553 -23.067  1.00  0.00     0.184 HD
HETATM   12  N6  UNL     1      18.087  -9.515 -23.909  1.00  0.00    -0.016 NA
HETATM   13  N7  UNL     1      18.546  -9.853 -25.182  1.00  0.00    -0.235 N
ENDROOT
BRANCH   7  14
HETATM   14  N2  UNL     1      18.452  -5.341 -24.517  1.00  0.00    -0.290 N
ATOM     15  H2  UNL     1      18.989  -5.207 -23.660  1.00  0.00     0.188 HD
BRANCH  14  16
HETATM   16  N3  UNL     1      17.393  -4.500 -24.850  1.00  0.00    -0.344 N
ATOM     17  H32 UNL     1      17.570  -3.562 -25.208  1.00  0.00     0.176 HD
ATOM     18  H31 UNL     1      16.451  -4.866 -24.718  1.00  0.00     0.176 HD
ENDBRANCH  14  16
ENDBRANCH   7  14
BRANCH  13  19
HETATM   19  C6  UNL     1      18.716 -11.162 -25.759  1.00  0.00     0.313 C
BRANCH  19  20
HETATM   20  O1  UNL     1      18.485 -11.197 -27.110  1.00  0.00    -0.381 OA
ATOM     21  H1  UNL     1      17.958 -11.938 -27.384  1.00  0.00     0.211 HD
ENDBRANCH  19  20
ENDBRANCH  13  19
TORSDOF 4
ENDMDL