MODEL 4
REMARK VINA RESULT: -6.742488049      3.574      4.793
REMARK  4 active torsions:
REMARK  status: ('A' for Active; 'I' for Inactive)
REMARK    1  A    between atoms: N1_1  and  N2_4
REMARK    2  A    between atoms: C3_9  and  N4_10
REMARK    3  A    between atoms: N4_10  and  N5_12
REMARK    4  A    between atoms: N5_12  and  C4_14
ROOT
HETATM    1  N4  UNL     1      20.913  -7.833 -24.229  1.00  0.00    -0.128 N
ATOM      2  H4  UNL     1      20.399  -6.954 -24.153  1.00  0.00     0.205 HD
ENDROOT
BRANCH   1   3
HETATM    3  C3  UNL     1      22.172  -7.899 -24.914  1.00  0.00     0.709 C
HETATM    4  N2  UNL     1      23.404  -7.545 -24.299  1.00  0.00    -0.128 N
HETATM    5  C1  UNL     1      24.282  -7.227 -25.410  1.00  0.00     0.187 C
HETATM    6  C2  UNL     1      23.776  -8.200 -26.449  1.00  0.00     0.160 C
HETATM    7  N3  UNL     1      22.370  -8.271 -26.132  1.00  0.00    -0.222 N
ATOM      8  H3  UNL     1      21.640  -8.572 -26.777  1.00  0.00     0.177 HD
BRANCH   4   9
HETATM    9  N1  UNL     1      23.709  -7.509 -22.950  1.00  0.00    -0.329 N
ATOM     10  H12 UNL     1      23.586  -8.246 -22.255  1.00  0.00     0.177 HD
ATOM     11  H11 UNL     1      24.111  -6.733 -22.426  1.00  0.00     0.177 HD
ENDBRANCH   4   9
ENDBRANCH   1   3
BRANCH   1  12
HETATM   12  N5  UNL     1      20.418  -9.002 -23.676  1.00  0.00    -0.249 N
ATOM     13  H5  UNL     1      20.668  -9.240 -22.717  1.00  0.00     0.191 HD
BRANCH  12  14
HETATM   14  C4  UNL     1      19.638  -9.812 -24.349  1.00  0.00     0.263 A
HETATM   15  N6  UNL     1      18.587 -10.496 -23.867  1.00  0.00    -0.259 N
HETATM   16  N7  UNL     1      18.088 -11.180 -24.866  1.00  0.00    -0.242 N
ATOM     17  H6  UNL     1      18.243 -10.485 -22.907  1.00  0.00     0.190 HD
HETATM   18  C5  UNL     1      18.811 -10.936 -25.973  1.00  0.00     0.387 A
ATOM     19  H7  UNL     1      17.279 -11.800 -24.813  1.00  0.00     0.192 HD
HETATM   20  O1  UNL     1      18.673 -11.384 -27.133  1.00  0.00    -0.236 OA
HETATM   21  O2  UNL     1      19.741 -10.100 -25.615  1.00  0.00    -0.224 OA
ENDBRANCH  12  14
ENDBRANCH   1  12
TORSDOF 4
ENDMDL