MODEL 1
REMARK VINA RESULT: -5.915810635      0.000      0.000
REMARK  4 active torsions:
REMARK  status: ('A' for Active; 'I' for Inactive)
REMARK    1  A    between atoms: C2_3  and  S1_4
REMARK    2  A    between atoms: S1_4  and  N2_5
REMARK    3  A    between atoms: C3_12  and  N4_13
REMARK    4  A    between atoms: C4_18  and  N6_19
ROOT
HETATM    1  C1  UNL     1      18.489  -9.533 -25.086  1.00  0.00     0.178 C
HETATM    2  N1  UNL     1      18.520  -8.090 -25.279  1.00  0.00    -0.159 N
HETATM    3  C2  UNL     1      17.811  -7.240 -24.519  1.00  0.00     0.254 A
HETATM    4  N3  UNL     1      17.865  -5.910 -24.727  1.00  0.00    -0.163 N
ATOM      5  H3  UNL     1      17.314  -5.294 -24.129  1.00  0.00     0.186 HD
HETATM    6  C3  UNL     1      18.622  -5.368 -25.696  1.00  0.00     0.692 A
HETATM    7  N5  UNL     1      19.334  -6.209 -26.459  1.00  0.00    -0.023 N
ATOM      8  H5  UNL     1      19.923  -5.840 -27.206  1.00  0.00     0.203 HD
HETATM    9  C4  UNL     1      19.278  -7.546 -26.248  1.00  0.00     0.694 A
ENDROOT
BRANCH   3  10
HETATM   10  S1  UNL     1      16.809  -7.847 -23.250  1.00  0.00     0.290 S
HETATM   11  O1  UNL     1      16.084  -6.688 -22.625  1.00  0.00    -0.198 OA
HETATM   12  O2  UNL     1      15.743  -8.786 -23.767  1.00  0.00    -0.198 OA
BRANCH  10  13
HETATM   13  N2  UNL     1      17.742  -8.604 -21.998  1.00  0.00    -0.322 N
ATOM     14  H22 UNL     1      17.828  -9.616 -21.899  1.00  0.00     0.169 HD
ATOM     15  H21 UNL     1      18.183  -7.917 -21.386  1.00  0.00     0.169 HD
ENDBRANCH  10  13
ENDBRANCH   3  10
BRANCH   9  16
HETATM   16  N6  UNL     1      19.984  -8.317 -27.014  1.00  0.00    -0.234 N
ATOM     17  H62 UNL     1      19.494  -8.959 -27.636  1.00  0.00     0.174 HD
ATOM     18  H61 UNL     1      21.003  -8.265 -26.976  1.00  0.00     0.174 HD
ENDBRANCH   9  16
BRANCH   6  19
HETATM   19  N4  UNL     1      18.626  -4.105 -25.837  1.00  0.00    -0.234 N
ATOM     20  H42 UNL     1      19.450  -3.565 -26.100  1.00  0.00     0.174 HD
ATOM     21  H41 UNL     1      17.761  -3.588 -25.680  1.00  0.00     0.174 HD
ENDBRANCH   6  19
TORSDOF 4
ENDMDL