MODEL 1
REMARK VINA RESULT: -6.271908098      0.000      0.000
REMARK  2 active torsions:
REMARK  status: ('A' for Active; 'I' for Inactive)
REMARK    1  A    between atoms: N3_4  and  C2_5
REMARK    2  A    between atoms: C5_14  and  N8_15
ROOT
HETATM    1  C1  UNL     1      16.168  -6.529 -23.447  1.00  0.00     0.195 C
HETATM    2  N1  UNL     1      17.302  -7.069 -24.154  1.00  0.00    -0.110 N
HETATM    3  N2  UNL     1      17.570  -8.360 -24.323  1.00  0.00     0.017 NA
HETATM    4  N3  UNL     1      18.703  -8.454 -25.030  1.00  0.00    -0.151 N
HETATM    5  N7  UNL     1      19.109  -7.227 -25.280  1.00  0.00    -0.109 N
HETATM    6  C4  UNL     1      20.313  -6.882 -26.030  1.00  0.00     0.199 C
HETATM    7  C5  UNL     1      18.255  -6.334 -24.746  1.00  0.00     0.708 A
ENDROOT
BRANCH   4   8
HETATM    8  C2  UNL     1      19.369  -9.687 -25.447  1.00  0.00     0.433 C
HETATM    9  N4  UNL     1      18.841 -10.839 -24.784  1.00  0.00    -0.022 N
HETATM   10  C3  UNL     1      18.625 -11.828 -25.818  1.00  0.00     0.366 C
ATOM     11  H42 UNL     1      19.425 -11.172 -24.017  1.00  0.00     0.282 HD
ATOM     12  H41 UNL     1      18.009 -10.643 -24.227  1.00  0.00     0.282 HD
HETATM   13  N5  UNL     1      18.762 -11.166 -27.081  1.00  0.00    -0.117 NA
HETATM   14  N6  UNL     1      19.178  -9.874 -26.865  1.00  0.00    -0.090 NA
ENDBRANCH   4   8
BRANCH   7  15
HETATM   15  N8  UNL     1      18.378  -5.044 -24.821  1.00  0.00    -0.232 N
ATOM     16  H82 UNL     1      17.651  -4.369 -24.582  1.00  0.00     0.174 HD
ATOM     17  H81 UNL     1      19.177  -4.483 -25.116  1.00  0.00     0.174 HD
ENDBRANCH   7  15
TORSDOF 2
ENDMDL