MODEL 5
REMARK VINA RESULT: -6.332538273      3.932      6.093
REMARK  4 active torsions:
REMARK  status: ('A' for Active; 'I' for Inactive)
REMARK    1  A    between atoms: C1_2  and  C2_4
REMARK       I    between atoms: N1_7  and  C5_9
REMARK    2  A    between atoms: C5_9  and  C6_11
REMARK    3  A    between atoms: C9_17  and  C10_18
REMARK       I    between atoms: C10_18  and  N2_20
REMARK    4  A    between atoms: N2_20  and  C11_22
ROOT
HETATM    1  C6  UNL     1      36.247  29.030  25.309  1.00  0.00     0.229 C
HETATM    2  O4  UNL     1      37.433  29.722  25.485  1.00  0.00    -0.358 OA
HETATM    3  C7  UNL     1      37.112  31.037  25.743  1.00  0.00     0.209 C
HETATM    4 BR1  UNL     1      38.545  32.167  25.045  1.00  0.00    -0.060 Br
HETATM    5  C8  UNL     1      35.855  31.349  24.971  1.00  0.00     0.113 C
HETATM    6 BR2  UNL     1      36.265  32.487  23.454  1.00  0.00    -0.087 Br
HETATM    7  C9  UNL     1      35.408  29.999  24.533  1.00  0.00     0.134 C
ENDROOT
BRANCH   7   8
HETATM    8  C10 UNL     1      33.971  29.763  24.564  1.00  0.00     0.231 C
HETATM    9  O5  UNL     1      33.167  30.391  25.304  1.00  0.00    -0.273 OA
HETATM   10  N2  UNL     1      33.420  28.768  23.712  1.00  0.00    -0.313 N
ATOM     11  H2  UNL     1      33.286  27.826  24.078  1.00  0.00     0.170 HD
BRANCH  10  12
HETATM   12  C11 UNL     1      33.085  29.013  22.490  1.00  0.00     0.107 A
HETATM   13  C12 UNL     1      33.884  28.512  21.485  1.00  0.00     0.048 A
HETATM   14  C13 UNL     1      33.625  28.709  20.146  1.00  0.00     0.005 A
HETATM   15  C14 UNL     1      32.500  29.450  19.800  1.00  0.00     0.017 A
HETATM   16  C15 UNL     1      31.715  29.940  20.831  1.00  0.00     0.089 A
HETATM   17  N3  UNL     1      32.009  29.721  22.133  1.00  0.00    -0.352 N
ATOM     18  H3  UNL     1      31.399  30.103  22.855  1.00  0.00     0.166 HD
ENDBRANCH  10  12
ENDBRANCH   7   8
BRANCH   1  19
HETATM   19  C5  UNL     1      35.714  28.625  26.610  1.00  0.00     0.251 C
HETATM   20  N1  UNL     1      36.584  28.027  27.560  1.00  0.00    -0.331 N
HETATM   21  C4  UNL     1      36.549  26.756  27.821  1.00  0.00     0.005 A
ATOM     22  H1  UNL     1      37.258  28.614  28.053  1.00  0.00     0.168 HD
HETATM   23  C2  UNL     1      36.157  25.340  27.781  1.00  0.00     0.137 A
HETATM   24  C3  UNL     1      37.277  25.766  28.729  1.00  0.00     0.074 A
HETATM   25  O3  UNL     1      34.495  28.782  26.942  1.00  0.00    -0.270 OA
BRANCH  23  26
HETATM   26  C1  UNL     1      36.611  24.461  26.701  1.00  0.00     0.183 C
HETATM   27  O1  UNL     1      37.201  24.947  25.702  1.00  0.00    -0.647 OA
HETATM   28  O2  UNL     1      36.437  23.084  26.692  1.00  0.00    -0.647 OA
ENDBRANCH  23  26
ENDBRANCH   1  19
TORSDOF 4
ENDMDL