MODEL 3
REMARK VINA RESULT: -6.397305773      3.946      6.099
REMARK  4 active torsions:
REMARK  status: ('A' for Active; 'I' for Inactive)
REMARK       I    between atoms: C1_2  and  N1_3
REMARK    1  A    between atoms: C1_2  and  C13_23
REMARK    2  A    between atoms: N1_3  and  C2_5
REMARK    3  A    between atoms: C4_9  and  C5_10
REMARK    4  A    between atoms: C6_13  and  C7_14
ROOT
HETATM    1  C2  UNL     1      34.620  29.846  23.277  1.00  0.00     0.214 C
HETATM    2  C3  UNL     1      33.885  29.570  24.546  1.00  0.00     0.247 C
HETATM    3  O2  UNL     1      32.674  29.684  24.870  1.00  0.00    -0.271 OA
HETATM    4  N2  UNL     1      35.043  29.154  25.191  1.00  0.00    -0.313 N
HETATM    5  C4  UNL     1      35.902  28.520  26.129  1.00  0.00     0.208 C
HETATM    6  C6  UNL     1      37.168  28.105  25.518  1.00  0.00     0.148 C
HETATM    7  S1  UNL     1      37.073  28.697  23.866  1.00  0.00     0.175 S
HETATM    8  O5  UNL     1      38.343  29.358  23.416  1.00  0.00    -0.225 OA
HETATM    9  O6  UNL     1      36.590  27.686  22.873  1.00  0.00    -0.225 OA
HETATM   10  C12 UNL     1      35.795  29.888  24.184  1.00  0.00     0.243 C
ENDROOT
BRANCH   1  11
HETATM   11  N1  UNL     1      34.353  31.155  22.716  1.00  0.00    -0.343 N
HETATM   12  C1  UNL     1      33.337  31.405  21.774  1.00  0.00     0.243 C
HETATM   13  O1  UNL     1      32.627  30.435  21.403  1.00  0.00    -0.271 OA
ATOM     14  H1  UNL     1      34.932  31.938  23.020  1.00  0.00     0.163 HD
BRANCH  12  15
HETATM   15  C13 UNL     1      33.104  32.765  21.228  1.00  0.00     0.221 C
HETATM   16 BR1  UNL     1      34.789  33.722  21.363  1.00  0.00    -0.069 Br
HETATM   17 BR2  UNL     1      32.502  32.672  19.406  1.00  0.00    -0.069 Br
ENDBRANCH  12  15
ENDBRANCH   1  11
BRANCH   5  18
HETATM   18  C5  UNL     1      36.067  29.441  27.295  1.00  0.00     0.198 C
HETATM   19  O3  UNL     1      36.803  29.085  28.240  1.00  0.00    -0.646 OA
HETATM   20  O4  UNL     1      35.409  30.649  27.298  1.00  0.00    -0.646 OA
ENDBRANCH   5  18
BRANCH   6  21
HETATM   21  C7  UNL     1      37.528  26.667  25.657  1.00  0.00     0.007 C
HETATM   22  C8  UNL     1      36.584  25.804  26.403  1.00  0.00     0.006 C
HETATM   23  C9  UNL     1      37.388  24.502  26.541  1.00  0.00     0.000 C
HETATM   24  C10 UNL     1      38.824  24.907  26.492  1.00  0.00     0.000 C
HETATM   25  C11 UNL     1      38.821  26.441  26.400  1.00  0.00     0.006 C
ENDBRANCH   6  21
TORSDOF 4
ENDMDL