MODEL 2
REMARK VINA RESULT: -6.421086284      3.950      6.728
REMARK  4 active torsions:
REMARK  status: ('A' for Active; 'I' for Inactive)
REMARK    1  A    between atoms: C2_2  and  C3_3
REMARK    2  A    between atoms: C3_3  and  N1_6
REMARK       I    between atoms: N1_6  and  C6_8
REMARK       I    between atoms: C6_8  and  N2_10
REMARK       I    between atoms: N3_12  and  C8_13
REMARK    3  A    between atoms: C10_16  and  C11_17
REMARK    4  A    between atoms: C13_21  and  C14_22
ROOT
HETATM    1  N1  UNL     1      40.284  32.827  25.051  1.00  0.00    -0.334 N
ATOM      2  H1  UNL     1      39.440  33.401  25.062  1.00  0.00     0.165 HD
HETATM    3  C6  UNL     1      40.157  31.431  24.861  1.00  0.00     0.322 C
HETATM    4  O1  UNL     1      41.127  30.647  24.835  1.00  0.00    -0.247 OA
HETATM    5  N2  UNL     1      38.841  30.850  24.686  1.00  0.00    -0.287 N
HETATM    6  C7  UNL     1      37.673  31.695  24.698  1.00  0.00     0.260 C
HETATM    7  N3  UNL     1      36.535  30.974  24.217  1.00  0.00    -0.325 N
HETATM    8  C8  UNL     1      35.685  31.629  23.288  1.00  0.00     0.217 C
HETATM    9  C9  UNL     1      35.927  33.010  22.809  1.00  0.00     0.117 C
HETATM   10  O2  UNL     1      34.685  31.014  22.855  1.00  0.00    -0.274 OA
HETATM   11  C10 UNL     1      36.236  29.632  24.639  1.00  0.00     0.167 C
HETATM   12  C13 UNL     1      37.495  28.768  24.648  1.00  0.00     0.207 A
HETATM   13  O4  UNL     1      38.348  28.795  25.726  1.00  0.00    -0.336 OA
HETATM   14  C15 UNL     1      38.717  29.442  24.510  1.00  0.00     0.277 A
ENDROOT
BRANCH   1  15
HETATM   15  C3  UNL     1      41.568  33.474  25.229  1.00  0.00     0.027 C
HETATM   16  C4  UNL     1      42.368  32.873  26.368  1.00  0.00     0.038 C
HETATM   17  C5  UNL     1      41.326  34.926  25.614  1.00  0.00     0.038 C
BRANCH  15  18
HETATM   18  C2  UNL     1      42.407  33.374  23.993  1.00  0.00     0.026 C
HETATM   19  C1  UNL     1      41.722  34.159  22.874  1.00  0.00     0.007 C
ENDBRANCH  15  18
ENDBRANCH   1  15
BRANCH  12  20
HETATM   20  C14 UNL     1      37.357  27.414  24.040  1.00  0.00     0.272 C
HETATM   21  N4  UNL     1      36.892  27.307  22.701  1.00  0.00    -0.059 NA
HETATM   22  O3  UNL     1      37.629  26.347  24.646  1.00  0.00    -0.273 OA
ENDBRANCH  12  20
BRANCH  11  23
HETATM   23  C11 UNL     1      35.484  29.528  25.932  1.00  0.00     0.096 C
HETATM   24  C12 UNL     1      35.822  28.249  26.683  1.00  0.00     0.042 C
HETATM   25 BR1  UNL     1      33.568  29.557  25.710  1.00  0.00    -0.071 Br
HETATM   26 BR2  UNL     1      35.953  30.973  27.140  1.00  0.00    -0.071 Br
ENDBRANCH  11  23
TORSDOF 4
ENDMDL