MODEL 2
REMARK VINA RESULT: -6.003300260      3.199      4.981
REMARK  7 active torsions:
REMARK  status: ('A' for Active; 'I' for Inactive)
REMARK    1  A    between atoms: O1_2  and  C2_3
REMARK    2  A    between atoms: C2_3  and  C3_4
REMARK    3  A    between atoms: C5_8  and  C6_9
REMARK    4  A    between atoms: C7_11  and  N2_12
REMARK    5  A    between atoms: C9_17  and  C10_18
REMARK    6  A    between atoms: C17_27  and  O3_28
REMARK    7  A    between atoms: C17_27  and  O4_30
ROOT
HETATM    1  C3  UNL     1      35.886  29.778  26.695  1.00  0.00     0.131 C
HETATM    2  C4  UNL     1      36.678  30.840  25.995  1.00  0.00     0.238 C
HETATM    3  O2  UNL     1      36.459  32.080  26.048  1.00  0.00    -0.272 OA
HETATM    4  N1  UNL     1      37.706  30.202  25.274  1.00  0.00    -0.333 N
HETATM    5  C5  UNL     1      38.975  29.993  24.629  1.00  0.00     0.129 C
HETATM    6  C7  UNL     1      39.527  28.835  25.587  1.00  0.00     0.214 C
HETATM    7  C8  UNL     1      38.296  28.646  26.310  1.00  0.00     0.062 C
HETATM    8  C9  UNL     1      37.477  27.749  26.950  1.00  0.00     0.034 C
HETATM    9  C11 UNL     1      37.011  26.856  25.801  1.00  0.00     0.019 C
HETATM   10  C12 UNL     1      37.346  27.693  24.518  1.00  0.00     0.033 C
HETATM   11  C13 UNL     1      37.250  28.919  25.183  1.00  0.00     0.054 C
HETATM   12  C14 UNL     1      35.814  29.062  25.395  1.00  0.00     0.043 A
HETATM   13  C15 UNL     1      34.644  28.505  24.820  1.00  0.00     0.054 A
HETATM   14  C16 UNL     1      35.188  29.705  24.153  1.00  0.00     0.183 A
HETATM   15  F1  UNL     1      34.618  30.915  24.172  1.00  0.00    -0.248 F
HETATM   16  C17 UNL     1      36.411  28.700  27.519  1.00  0.00     0.188 C
ENDROOT
BRANCH   6  17
HETATM   17  N2  UNL     1      40.258  27.859  24.938  1.00  0.00    -0.073 N
ATOM     18  H23 UNL     1      39.950  26.931  25.228  1.00  0.00     0.274 HD
ATOM     19  H22 UNL     1      40.008  27.825  23.950  1.00  0.00     0.274 HD
ATOM     20  H21 UNL     1      41.269  27.949  25.047  1.00  0.00     0.274 HD
ENDBRANCH   6  17
BRANCH   5  21
HETATM   21  C6  UNL     1      39.861  31.168  24.638  1.00  0.00     0.112 C
HETATM   22 BR1  UNL     1      39.460  32.258  23.089  1.00  0.00    -0.094 Br
ENDBRANCH   5  21
BRANCH   8  23
HETATM   23  C10 UNL     1      37.963  26.943  28.120  1.00  0.00     0.100 C
HETATM   24 BR2  UNL     1      37.778  25.051  27.815  1.00  0.00    -0.096 Br
ENDBRANCH   8  23
BRANCH  16  25
HETATM   25  O3  UNL     1      37.082  29.296  28.619  1.00  0.00    -0.364 OA
ATOM     26  H3  UNL     1      37.681  28.647  28.971  1.00  0.00     0.213 HD
ENDBRANCH  16  25
BRANCH  16  27
HETATM   27  O4  UNL     1      35.451  27.900  28.046  1.00  0.00    -0.364 OA
ATOM     28  H4  UNL     1      35.787  27.088  28.408  1.00  0.00     0.213 HD
ENDBRANCH  16  27
BRANCH   1  29
HETATM   29  C2  UNL     1      34.691  30.387  27.261  1.00  0.00     0.193 C
BRANCH  29  30
HETATM   30  O1  UNL     1      33.546  29.619  27.322  1.00  0.00    -0.394 OA
HETATM   31  C1  UNL     1      32.429  30.314  27.703  1.00  0.00     0.201 C
ENDBRANCH  29  30
ENDBRANCH   1  29
TORSDOF 7
ENDMDL