MODEL 5
REMARK VINA RESULT: -7.517919039      3.702      4.415
REMARK  5 active torsions:
REMARK  status: ('A' for Active; 'I' for Inactive)
REMARK    1  A    between atoms: C3_3  and  N1_4
REMARK       I    between atoms: N1_4  and  C4_6
REMARK    2  A    between atoms: C4_6  and  C5_8
REMARK    3  A    between atoms: C9_14  and  N2_15
REMARK    4  A    between atoms: N2_15  and  S1_17
REMARK    5  A    between atoms: S1_17  and  C10_20
ROOT
HETATM    1  C1  UNL     1      36.877  28.926  27.439  1.00  0.00     0.040 C
HETATM    2  C2  UNL     1      36.584  29.620  26.358  1.00  0.00     0.023 C
HETATM    3  C3  UNL     1      37.115  30.807  25.686  1.00  0.00     0.156 C
HETATM    4  C7  UNL     1      35.727  30.902  25.111  1.00  0.00     0.115 C
HETATM    5  C8  UNL     1      35.639  30.918  23.604  1.00  0.00     0.055 C
HETATM    6  C9  UNL     1      34.686  29.763  23.264  1.00  0.00     0.113 C
HETATM    7  C16 UNL     1      34.554  28.930  24.489  1.00  0.00     0.149 C
HETATM    8  N3  UNL     1      35.573  29.471  25.371  1.00  0.00    -0.374 N
ENDROOT
BRANCH   6   9
HETATM    9  N2  UNL     1      33.520  30.302  22.715  1.00  0.00    -0.309 N
ATOM     10  H2  UNL     1      33.055  31.106  23.137  1.00  0.00     0.172 HD
BRANCH   9  11
HETATM   11  S1  UNL     1      32.907  29.558  21.311  1.00  0.00     0.259 S
HETATM   12  O2  UNL     1      31.680  28.735  21.584  1.00  0.00    -0.201 OA
HETATM   13  O3  UNL     1      33.910  28.676  20.634  1.00  0.00    -0.201 OA
BRANCH  11  14
HETATM   14  C10 UNL     1      32.405  30.824  20.209  1.00  0.00     0.079 A
HETATM   15  C11 UNL     1      32.912  32.092  20.368  1.00  0.00     0.025 A
HETATM   16  C12 UNL     1      32.565  33.138  19.542  1.00  0.00     0.002 A
HETATM   17  C13 UNL     1      31.675  32.911  18.514  1.00  0.00     0.000 A
HETATM   18  C14 UNL     1      31.162  31.639  18.349  1.00  0.00     0.002 A
HETATM   19  C15 UNL     1      31.517  30.600  19.181  1.00  0.00     0.025 A
ENDBRANCH  11  14
ENDBRANCH   9  11
ENDBRANCH   6   9
BRANCH   3  20
HETATM   20  N1  UNL     1      38.181  30.597  24.753  1.00  0.00    -0.344 N
HETATM   21  C4  UNL     1      39.021  31.654  24.296  1.00  0.00     0.260 C
HETATM   22  O1  UNL     1      38.845  32.824  24.709  1.00  0.00    -0.267 OA
ATOM     23  H1  UNL     1      38.346  29.654  24.401  1.00  0.00     0.163 HD
BRANCH  21  24
HETATM   24  C5  UNL     1      40.086  31.400  23.352  1.00  0.00     0.085 C
HETATM   25 BR1  UNL     1      41.091  32.833  22.602  1.00  0.00    -0.045 Br
HETATM   26  C6  UNL     1      40.384  30.169  22.990  1.00  0.00     0.080 C
HETATM   27 BR2  UNL     1      41.791  29.820  21.741  1.00  0.00    -0.062 Br
ENDBRANCH  21  24
ENDBRANCH   3  20
TORSDOF 5
ENDMDL