MODEL 3
REMARK VINA RESULT: -6.257988976      1.846      2.248
REMARK  4 active torsions:
REMARK  status: ('A' for Active; 'I' for Inactive)
REMARK    1  A    between atoms: C6_7  and  C7_8
REMARK       I    between atoms: C7_8  and  N1_10
REMARK    2  A    between atoms: N1_10  and  C8_12
REMARK    3  A    between atoms: C10_16  and  C11_17
REMARK    4  A    between atoms: C14_22  and  C15_23
ROOT
HETATM    1  C7  UNL     1      34.818  30.417  24.271  1.00  0.00     0.223 C
HETATM    2  O1  UNL     1      33.751  30.032  24.810  1.00  0.00    -0.273 OA
HETATM    3  N1  UNL     1      34.748  31.032  22.994  1.00  0.00    -0.345 N
ATOM      4  H1  UNL     1      35.606  31.350  22.544  1.00  0.00     0.163 HD
ENDROOT
BRANCH   1   5
HETATM    5  C6  UNL     1      36.080  30.205  24.999  1.00  0.00     0.092 C
HETATM    6  C5  UNL     1      37.248  30.242  24.048  1.00  0.00     0.031 C
HETATM    7  C4  UNL     1      37.669  28.820  23.804  1.00  0.00     0.067 C
HETATM    8  C2  UNL     1      37.389  28.181  25.162  1.00  0.00    -0.022 C
HETATM    9 BR1  UNL     1      36.608  27.921  22.492  1.00  0.00    -0.090 Br
HETATM   10  C1  UNL     1      37.192  26.691  24.975  1.00  0.00     0.017 C
HETATM   11  C3  UNL     1      38.582  28.418  26.033  1.00  0.00     0.017 C
HETATM   12  C14 UNL     1      36.151  28.859  25.665  1.00  0.00     0.097 C
BRANCH  12  13
HETATM   13  C15 UNL     1      36.223  29.079  27.132  1.00  0.00     0.236 C
HETATM   14  N3  UNL     1      36.050  27.992  28.029  1.00  0.00    -0.062 NA
HETATM   15  O3  UNL     1      36.437  30.221  27.626  1.00  0.00    -0.276 OA
ENDBRANCH  12  13
ENDBRANCH   1   5
BRANCH   3  16
HETATM   16  C8  UNL     1      33.484  31.219  22.317  1.00  0.00     0.209 C
HETATM   17  C9  UNL     1      33.027  30.047  21.511  1.00  0.00     0.247 C
HETATM   18  O2  UNL     1      32.906  28.832  21.810  1.00  0.00    -0.271 OA
HETATM   19  N2  UNL     1      32.805  30.850  20.335  1.00  0.00    -0.328 N
HETATM   20  C10 UNL     1      32.358  31.331  19.061  1.00  0.00     0.108 C
HETATM   21  C13 UNL     1      33.683  31.843  20.973  1.00  0.00     0.181 C
HETATM   22  C12 UNL     1      31.654  32.651  19.290  1.00  0.00     0.102 C
HETATM   23  S1  UNL     1      32.654  33.334  20.671  1.00  0.00    -0.139 SA
BRANCH  20  24
HETATM   24  C11 UNL     1      31.350  30.367  18.511  1.00  0.00     0.111 C
HETATM   25 BR2  UNL     1      29.646  31.269  18.202  1.00  0.00    -0.094 Br
ENDBRANCH  20  24
ENDBRANCH   3  16
TORSDOF 4
ENDMDL