MODEL 5
REMARK VINA RESULT: -5.769362032      2.264      3.201
REMARK  5 active torsions:
REMARK  status: ('A' for Active; 'I' for Inactive)
REMARK    1  A    between atoms: N1_2  and  C2_5
REMARK    2  A    between atoms: C4_9  and  C5_10
REMARK       I    between atoms: C5_10  and  N3_12
REMARK    3  A    between atoms: N3_12  and  C6_14
REMARK    4  A    between atoms: C6_14  and  C7_15
REMARK    5  A    between atoms: C6_14  and  C10_20
REMARK       I    between atoms: C7_15  and  N4_17
ROOT
HETATM    1  C2  UNL     1      38.989  26.212  28.545  1.00  0.00     0.301 C
HETATM    2  C3  UNL     1      38.207  27.413  28.922  1.00  0.00     0.254 C
HETATM    3  O1  UNL     1      38.488  28.510  29.441  1.00  0.00    -0.271 OA
HETATM    4  N2  UNL     1      37.046  26.757  28.436  1.00  0.00    -0.319 N
HETATM    5  C4  UNL     1      35.722  26.655  27.885  1.00  0.00     0.243 C
HETATM    6  S1  UNL     1      35.920  25.121  26.885  1.00  0.00    -0.123 SA
HETATM    7  C12 UNL     1      37.292  24.422  27.863  1.00  0.00     0.026 C
HETATM    8  C13 UNL     1      36.653  23.298  28.696  1.00  0.00     0.029 C
HETATM    9  C14 UNL     1      38.314  23.801  26.981  1.00  0.00     0.029 C
HETATM   10  C15 UNL     1      37.681  25.526  28.711  1.00  0.00     0.146 C
ENDROOT
BRANCH   5  11
HETATM   11  C5  UNL     1      35.289  27.772  27.053  1.00  0.00     0.251 C
HETATM   12  O2  UNL     1      34.275  28.429  27.481  1.00  0.00    -0.270 OA
HETATM   13  N3  UNL     1      35.848  28.211  25.851  1.00  0.00    -0.343 N
ATOM     14  H3  UNL     1      36.658  27.718  25.475  1.00  0.00     0.163 HD
BRANCH  13  15
HETATM   15  C6  UNL     1      35.306  29.362  25.107  1.00  0.00     0.206 C
BRANCH  15  16
HETATM   16  C7  UNL     1      35.045  29.000  23.707  1.00  0.00     0.244 C
HETATM   17  O3  UNL     1      35.946  28.280  23.150  1.00  0.00    -0.271 OA
HETATM   18  N4  UNL     1      33.917  29.364  22.941  1.00  0.00    -0.359 N
HETATM   19  C8  UNL     1      33.827  28.946  21.533  1.00  0.00     0.152 C
HETATM   20  C9  UNL     1      32.781  30.115  23.425  1.00  0.00     0.152 C
ENDBRANCH  15  16
BRANCH  15  21
HETATM   21  C10 UNL     1      36.385  30.430  25.227  1.00  0.00     0.101 C
HETATM   22  C11 UNL     1      36.254  31.236  26.499  1.00  0.00     0.043 C
HETATM   23 BR1  UNL     1      36.444  31.638  23.748  1.00  0.00    -0.070 Br
HETATM   24 BR2  UNL     1      38.113  29.521  25.367  1.00  0.00    -0.070 Br
ENDBRANCH  15  21
ENDBRANCH  13  15
ENDBRANCH   5  11
BRANCH   1  25
HETATM   25  N1  UNL     1      39.531  26.393  27.235  1.00  0.00    -0.064 N
HETATM   26  C1  UNL     1      40.867  26.916  27.341  1.00  0.00     0.268 C
ATOM     27  H12 UNL     1      38.934  26.975  26.647  1.00  0.00     0.277 HD
ATOM     28  H11 UNL     1      39.494  25.539  26.679  1.00  0.00     0.277 HD
ENDBRANCH   1  25
TORSDOF 5
ENDMDL