MODEL 5
REMARK VINA RESULT: -7.167500423      3.127      4.730
REMARK  7 active torsions:
REMARK  status: ('A' for Active; 'I' for Inactive)
REMARK    1  A    between atoms: N1_1  and  C1_5
REMARK    2  A    between atoms: C1_5  and  C2_6
REMARK    3  A    between atoms: C4_8  and  C5_9
REMARK       I    between atoms: C5_9  and  N2_11
REMARK    4  A    between atoms: N2_11  and  C6_13
REMARK    5  A    between atoms: N4_20  and  C11_21
REMARK    6  A    between atoms: C11_21  and  C12_22
REMARK    7  A    between atoms: C13_24  and  C14_25
ROOT
HETATM    1  C2  UNL     1      35.093  28.752  27.454  1.00  0.00     0.042 C
HETATM    2  C3  UNL     1      35.382  27.599  26.561  1.00  0.00     0.053 C
HETATM    3  C4  UNL     1      36.886  27.602  26.463  1.00  0.00     0.315 C
HETATM    4  N4  UNL     1      37.247  29.029  26.441  1.00  0.00     0.105 N
HETATM    5  C18 UNL     1      36.261  29.664  27.296  1.00  0.00     0.280 C
ENDROOT
BRANCH   3   6
HETATM    6  C5  UNL     1      37.574  26.889  27.541  1.00  0.00     0.257 C
HETATM    7  O1  UNL     1      38.263  27.547  28.361  1.00  0.00    -0.271 OA
HETATM    8  N2  UNL     1      37.485  25.484  27.684  1.00  0.00    -0.311 N
ATOM      9  H2  UNL     1      37.894  24.896  26.957  1.00  0.00     0.170 HD
BRANCH   8  10
HETATM   10  C6  UNL     1      36.918  24.918  28.677  1.00  0.00     0.107 A
HETATM   11  C7  UNL     1      35.592  24.580  28.596  1.00  0.00     0.048 A
HETATM   12  C8  UNL     1      34.968  23.959  29.686  1.00  0.00     0.005 A
HETATM   13  C9  UNL     1      35.753  23.722  30.805  1.00  0.00     0.017 A
HETATM   14  C10 UNL     1      37.091  24.089  30.825  1.00  0.00     0.089 A
HETATM   15  N3  UNL     1      37.674  24.679  29.780  1.00  0.00    -0.352 N
ATOM     16  H3  UNL     1      38.659  24.943  29.809  1.00  0.00     0.166 HD
ENDBRANCH   8  10
ENDBRANCH   3   6
BRANCH   4  17
HETATM   17  C11 UNL     1      37.119  29.422  25.067  1.00  0.00     0.306 C
BRANCH  17  18
HETATM   18  C12 UNL     1      36.580  30.813  24.845  1.00  0.00     0.168 C
HETATM   19  O2  UNL     1      35.297  30.638  24.331  1.00  0.00    -0.373 OA
HETATM   20  C13 UNL     1      35.204  30.896  22.964  1.00  0.00     0.154 C
HETATM   21  C15 UNL     1      35.464  32.380  22.857  1.00  0.00     0.003 C
HETATM   22  C16 UNL     1      36.627  32.741  23.379  1.00  0.00    -0.010 C
HETATM   23  C17 UNL     1      37.448  31.644  23.961  1.00  0.00     0.111 C
HETATM   24 BR2  UNL     1      38.953  32.430  24.842  1.00  0.00    -0.084 Br
BRANCH  20  25
HETATM   25  C14 UNL     1      33.808  30.596  22.534  1.00  0.00     0.121 C
HETATM   26 BR1  UNL     1      33.633  28.857  21.728  1.00  0.00    -0.093 Br
ENDBRANCH  20  25
ENDBRANCH  17  18
ENDBRANCH   4  17
BRANCH   1  27
HETATM   27  C1  UNL     1      33.776  29.433  27.130  1.00  0.00     0.236 C
BRANCH  27  28
HETATM   28  N1  UNL     1      33.370  29.048  25.810  1.00  0.00    -0.079 N
ATOM     29  H13 UNL     1      32.753  29.735  25.377  1.00  0.00     0.274 HD
ATOM     30  H12 UNL     1      34.134  29.098  25.137  1.00  0.00     0.274 HD
ATOM     31  H11 UNL     1      32.949  28.120  25.853  1.00  0.00     0.274 HD
ENDBRANCH  27  28
ENDBRANCH   1  27
TORSDOF 7
ENDMDL