MODEL 3
REMARK VINA RESULT: -6.612487090      2.438      3.566
REMARK  3 active torsions:
REMARK  status: ('A' for Active; 'I' for Inactive)
REMARK    1  A    between atoms: C5_6  and  N1_7
REMARK       I    between atoms: N1_7  and  C6_9
REMARK    2  A    between atoms: C6_9  and  C7_11
REMARK    3  A    between atoms: C13_22  and  C14_23
ROOT
HETATM    1  C1  UNL     1      39.397  21.394  27.373  1.00  0.00     0.029 C
HETATM    2  C2  UNL     1      38.541  22.424  28.029  1.00  0.00     0.033 C
HETATM    3  C3  UNL     1      38.913  22.570  29.483  1.00  0.00     0.029 C
HETATM    4  S1  UNL     1      38.645  24.048  27.236  1.00  0.00    -0.129 SA
HETATM    5  C4  UNL     1      36.875  24.440  27.264  1.00  0.00     0.183 C
HETATM    6  C5  UNL     1      36.476  25.501  28.280  1.00  0.00     0.210 C
HETATM    7  C12 UNL     1      35.581  24.403  28.812  1.00  0.00     0.247 C
HETATM    8  O3  UNL     1      34.545  24.441  29.494  1.00  0.00    -0.271 OA
HETATM    9  N2  UNL     1      36.426  23.401  28.207  1.00  0.00    -0.318 N
HETATM   10  C13 UNL     1      37.072  22.148  27.948  1.00  0.00     0.207 C
ENDROOT
BRANCH   6  11
HETATM   11  N1  UNL     1      35.723  26.570  27.709  1.00  0.00    -0.344 N
HETATM   12  C6  UNL     1      36.360  27.670  27.113  1.00  0.00     0.238 C
HETATM   13  O1  UNL     1      37.613  27.711  27.082  1.00  0.00    -0.272 OA
ATOM     14  H1  UNL     1      34.705  26.535  27.735  1.00  0.00     0.163 HD
BRANCH  12  15
HETATM   15  C7  UNL     1      35.596  28.778  26.522  1.00  0.00     0.106 C
HETATM   16 BR1  UNL     1      36.700  30.307  26.128  1.00  0.00    -0.075 Br
HETATM   17  C8  UNL     1      34.775  28.377  25.341  1.00  0.00     0.110 C
HETATM   18  C9  UNL     1      33.716  29.445  25.325  1.00  0.00     0.143 C
HETATM   19  O2  UNL     1      33.013  29.656  24.349  1.00  0.00    -0.297 OA
HETATM   20  C10 UNL     1      33.690  30.148  26.636  1.00  0.00     0.129 C
HETATM   21 BR2  UNL     1      31.882  30.337  27.292  1.00  0.00    -0.083 Br
HETATM   22  C11 UNL     1      34.524  29.248  27.506  1.00  0.00     0.055 C
ENDBRANCH  12  15
ENDBRANCH   6  11
BRANCH  10  23
HETATM   23  C14 UNL     1      36.610  21.626  26.647  1.00  0.00     0.198 C
HETATM   24  O4  UNL     1      36.397  22.363  25.643  1.00  0.00    -0.646 OA
HETATM   25  O5  UNL     1      36.399  20.275  26.501  1.00  0.00    -0.646 OA
ENDBRANCH  10  23
TORSDOF 3
ENDMDL