MODEL 3
REMARK VINA RESULT: -8.615607840      1.601      2.614
REMARK  6 active torsions:
REMARK  status: ('A' for Active; 'I' for Inactive)
REMARK    1  A    between atoms: C2_2  and  O2_4
REMARK    2  A    between atoms: O2_4  and  C3_5
REMARK    3  A    between atoms: C5_7  and  C6_8
REMARK    4  A    between atoms: C15_22  and  C16_23
REMARK    5  A    between atoms: C16_23  and  C17_25
REMARK    6  A    between atoms: C17_25  and  C18_28
ROOT
HETATM    1  C3  UNL     1      36.392  30.003  24.514  1.00  0.00     0.200 C
HETATM    2  C4  UNL     1      35.518  30.191  23.275  1.00  0.00     0.043 C
HETATM    3  C5  UNL     1      34.755  31.221  23.076  1.00  0.00     0.045 C
HETATM    4  C14 UNL     1      35.800  28.982  22.543  1.00  0.00     0.251 C
HETATM    5  O3  UNL     1      35.050  28.524  21.637  1.00  0.00    -0.268 OA
HETATM    6  N2  UNL     1      37.036  28.422  23.017  1.00  0.00    -0.343 N
ATOM      7  H2  UNL     1      37.400  27.479  22.884  1.00  0.00     0.163 HD
HETATM    8  C15 UNL     1      37.649  29.558  23.750  1.00  0.00     0.193 C
ENDROOT
BRANCH   1   9
HETATM    9  O2  UNL     1      35.786  28.941  25.201  1.00  0.00    -0.309 OA
BRANCH   9  10
HETATM   10  C2  UNL     1      35.168  29.022  26.431  1.00  0.00     0.255 C
HETATM   11  C1  UNL     1      34.113  30.072  26.671  1.00  0.00     0.126 C
HETATM   12  O1  UNL     1      35.499  28.218  27.333  1.00  0.00    -0.266 OA
ENDBRANCH   9  10
ENDBRANCH   1   9
BRANCH   3  13
HETATM   13  C6  UNL     1      33.902  31.479  21.937  1.00  0.00     0.034 A
HETATM   14  C7  UNL     1      33.696  32.671  21.311  1.00  0.00     0.043 A
HETATM   15  C8  UNL     1      32.813  32.427  20.269  1.00  0.00    -0.007 A
HETATM   16  C9  UNL     1      32.248  33.259  19.297  1.00  0.00     0.014 A
HETATM   17  C13 UNL     1      32.490  31.086  20.270  1.00  0.00     0.043 A
HETATM   18  C10 UNL     1      31.379  32.766  18.348  1.00  0.00     0.001 A
HETATM   19  C11 UNL     1      31.093  31.421  18.399  1.00  0.00     0.002 A
HETATM   20  C12 UNL     1      31.618  30.558  19.329  1.00  0.00     0.030 A
HETATM   21  N1  UNL     1      33.172  30.560  21.296  1.00  0.00    -0.356 N
ATOM     22  H1  UNL     1      33.139  29.574  21.557  1.00  0.00     0.166 HD
ENDBRANCH   3  13
BRANCH   8  23
HETATM   23  C16 UNL     1      38.754  29.111  24.573  1.00  0.00     0.207 C
HETATM   24  O4  UNL     1      38.989  27.894  24.725  1.00  0.00    -0.291 OA
BRANCH  23  25
HETATM   25  C17 UNL     1      39.664  30.036  25.265  1.00  0.00     0.249 C
HETATM   26  F1  UNL     1      39.029  30.592  26.399  1.00  0.00    -0.216 F
HETATM   27 BR1  UNL     1      41.274  29.223  25.952  1.00  0.00    -0.035 Br
BRANCH  25  28
HETATM   28  C18 UNL     1      40.038  31.222  24.420  1.00  0.00    -0.000 A
HETATM   29  C19 UNL     1      40.768  31.080  23.235  1.00  0.00     0.012 A
HETATM   30  C20 UNL     1      41.102  32.162  22.449  1.00  0.00     0.001 A
HETATM   31  C21 UNL     1      40.727  33.432  22.801  1.00  0.00     0.000 A
HETATM   32  C22 UNL     1      40.009  33.584  23.965  1.00  0.00     0.001 A
HETATM   33  C23 UNL     1      39.666  32.488  24.770  1.00  0.00     0.012 A
ENDBRANCH  25  28
ENDBRANCH  23  25
ENDBRANCH   8  23
TORSDOF 6
ENDMDL