MODEL 5
REMARK VINA RESULT: -8.263087146      3.657      5.928
REMARK  4 active torsions:
REMARK  status: ('A' for Active; 'I' for Inactive)
REMARK    1  A    between atoms: C1_2  and  C2_4
REMARK    2  A    between atoms: C7_9  and  C8_10
REMARK       I    between atoms: C8_10  and  N2_12
REMARK    3  A    between atoms: C14_18  and  C15_19
REMARK       I    between atoms: C15_19  and  N3_21
REMARK    4  A    between atoms: N3_21  and  C16_23
ROOT
HETATM    1  C2  UNL     1      36.295  28.986  26.507  1.00  0.00     0.140 C
HETATM    2  C3  UNL     1      34.938  29.642  26.651  1.00  0.00     0.052 C
HETATM    3  C4  UNL     1      34.737  30.696  25.582  1.00  0.00    -0.010 C
HETATM    4  C5  UNL     1      34.248  29.994  24.366  1.00  0.00     0.006 C
HETATM    5  C6  UNL     1      35.379  29.877  23.398  1.00  0.00     0.021 C
HETATM    6  C7  UNL     1      36.739  29.669  24.089  1.00  0.00     0.062 C
HETATM    7  C13 UNL     1      36.581  28.540  25.117  1.00  0.00     0.068 C
HETATM    8  C14 UNL     1      37.155  30.885  24.836  1.00  0.00     0.079 C
HETATM    9  C22 UNL     1      37.968  30.496  26.095  1.00  0.00     0.190 C
HETATM   10  O4  UNL     1      37.215  29.862  27.039  1.00  0.00    -0.369 OA
HETATM   11  C23 UNL     1      35.916  31.576  25.408  1.00  0.00     0.027 C
ENDROOT
BRANCH   8  12
HETATM   12  C15 UNL     1      38.002  31.894  24.163  1.00  0.00     0.234 C
HETATM   13  O3  UNL     1      37.389  32.642  23.310  1.00  0.00    -0.272 OA
HETATM   14  N3  UNL     1      39.371  32.107  24.359  1.00  0.00    -0.326 N
ATOM     15  H3  UNL     1      39.822  31.488  25.032  1.00  0.00     0.169 HD
BRANCH  14  16
HETATM   16  C16 UNL     1      40.209  33.059  23.753  1.00  0.00     0.036 A
HETATM   17  C17 UNL     1      40.637  32.827  22.437  1.00  0.00     0.031 A
HETATM   18  C18 UNL     1      41.472  33.710  21.785  1.00  0.00     0.028 A
HETATM   19  C19 UNL     1      41.917  34.849  22.394  1.00  0.00     0.055 A
HETATM   20 CL1  UNL     1      42.981  35.944  21.517  1.00  0.00    -0.083 Cl
HETATM   21  C20 UNL     1      41.522  35.104  23.666  1.00  0.00     0.058 A
HETATM   22 CL2  UNL     1      42.087  36.565  24.462  1.00  0.00    -0.082 Cl
HETATM   23  C21 UNL     1      40.680  34.209  24.321  1.00  0.00     0.055 A
ENDBRANCH  14  16
ENDBRANCH   8  12
BRANCH   6  24
HETATM   24  C8  UNL     1      37.648  29.234  23.007  1.00  0.00     0.230 C
HETATM   25  O2  UNL     1      38.822  29.771  22.987  1.00  0.00    -0.272 OA
HETATM   26  N2  UNL     1      37.432  28.316  21.986  1.00  0.00    -0.351 N
HETATM   27  C9  UNL     1      36.338  27.502  21.617  1.00  0.00     0.126 C
HETATM   28  C12 UNL     1      38.455  27.978  20.964  1.00  0.00     0.126 C
HETATM   29  C10 UNL     1      36.193  27.904  20.125  1.00  0.00     0.021 C
HETATM   30  C11 UNL     1      37.647  27.810  19.694  1.00  0.00     0.021 C
ENDBRANCH   6  24
BRANCH   1  31
HETATM   31  C1  UNL     1      36.268  27.787  27.375  1.00  0.00     0.266 C
HETATM   32  N1  UNL     1      35.181  26.880  27.382  1.00  0.00    -0.059 NA
HETATM   33  O1  UNL     1      37.238  27.563  28.133  1.00  0.00    -0.273 OA
ENDBRANCH   1  31
TORSDOF 4
ENDMDL