MODEL 2
REMARK VINA RESULT: -6.846032771      5.434      8.635
REMARK  7 active torsions:
REMARK  status: ('A' for Active; 'I' for Inactive)
REMARK    1  A    between atoms: C3_3  and  C4_4
REMARK    2  A    between atoms: C4_4  and  O1_5
REMARK    3  A    between atoms: C8_10  and  O2_11
REMARK    4  A    between atoms: C15_20  and  C16_21
REMARK    5  A    between atoms: C16_21  and  C18_23
REMARK    6  A    between atoms: C16_21  and  N1_26
REMARK    7  A    between atoms: C18_23  and  C19_24
ROOT
HETATM    1  C1  UNL     1      35.506  27.041  20.262  1.00  0.00     0.112 C
HETATM    2  C2  UNL     1      36.257  27.738  21.304  1.00  0.00    -0.108 C
HETATM    3  C3  UNL     1      36.890  28.317  22.160  1.00  0.00    -0.064 C
ENDROOT
BRANCH   3   4
HETATM    4  C4  UNL     1      37.672  28.986  23.136  1.00  0.00     0.146 C
HETATM    5  C5  UNL     1      38.364  27.982  24.054  1.00  0.00     0.062 C
HETATM    6  C6  UNL     1      37.394  27.227  24.941  1.00  0.00     0.002 C
HETATM    7  C7  UNL     1      36.265  27.956  25.519  1.00  0.00     0.038 C
HETATM    8  C12 UNL     1      38.253  26.447  25.865  1.00  0.00     0.002 C
HETATM    9  C8  UNL     1      36.116  27.952  27.005  1.00  0.00     0.158 C
HETATM   10  C22 UNL     1      35.931  29.332  24.971  1.00  0.00     0.008 A
HETATM   11  C9  UNL     1      36.978  27.059  27.816  1.00  0.00     0.208 C
HETATM   12  F1  UNL     1      37.816  27.834  28.604  1.00  0.00    -0.246 F
HETATM   13  C10 UNL     1      37.569  25.924  27.137  1.00  0.00    -0.001 C
HETATM   14  C11 UNL     1      36.473  25.013  26.590  1.00  0.00     0.019 C
HETATM   15  C15 UNL     1      38.733  25.193  27.638  1.00  0.00     0.035 C
HETATM   16  C14 UNL     1      39.819  26.248  27.593  1.00  0.00     0.008 C
HETATM   17  C13 UNL     1      39.442  27.160  26.436  1.00  0.00     0.006 C
HETATM   18  C23 UNL     1      34.715  29.100  23.985  1.00  0.00     0.025 C
HETATM   19  C24 UNL     1      35.355  30.279  25.896  1.00  0.00    -0.008 A
HETATM   20  C28 UNL     1      36.972  29.875  24.117  1.00  0.00    -0.017 A
HETATM   21  C25 UNL     1      35.703  31.529  25.964  1.00  0.00     0.052 A
HETATM   22  C26 UNL     1      36.731  32.107  25.108  1.00  0.00     0.172 A
HETATM   23  O3  UNL     1      37.081  33.297  25.145  1.00  0.00    -0.289 OA
HETATM   24  C27 UNL     1      37.319  31.139  24.190  1.00  0.00     0.062 A
BRANCH   4  25
HETATM   25  O1  UNL     1      38.762  29.697  22.555  1.00  0.00    -0.373 OA
ATOM     26  H1  UNL     1      39.584  29.231  22.648  1.00  0.00     0.212 HD
ENDBRANCH   4  25
BRANCH   9  27
HETATM   27  O2  UNL     1      34.758  27.739  27.396  1.00  0.00    -0.392 OA
ATOM     28  H2  UNL     1      34.657  27.768  28.339  1.00  0.00     0.210 HD
ENDBRANCH   9  27
BRANCH  15  29
HETATM   29  C16 UNL     1      38.759  24.398  28.883  1.00  0.00     0.162 C
HETATM   30  C17 UNL     1      40.073  24.504  29.676  1.00  0.00     0.049 C
BRANCH  29  31
HETATM   31  C18 UNL     1      38.733  22.949  28.430  1.00  0.00     0.073 C
BRANCH  31  32
HETATM   32  C19 UNL     1      39.328  22.618  27.126  1.00  0.00     0.224 C
HETATM   33  F2  UNL     1      38.261  22.172  26.307  1.00  0.00    -0.255 F
ENDBRANCH  31  32
ENDBRANCH  29  31
BRANCH  29  34
HETATM   34  N1  UNL     1      37.758  24.672  29.865  1.00  0.00     0.089 N
HETATM   35  C20 UNL     1      36.755  23.647  30.081  1.00  0.00     0.310 C
HETATM   36  C21 UNL     1      38.276  24.822  31.233  1.00  0.00     0.310 C
ENDBRANCH  29  34
ENDBRANCH  15  29
ENDBRANCH   3   4
TORSDOF 7
ENDMDL