MODEL 4
REMARK VINA RESULT: -7.874625538      3.463      5.654
REMARK  5 active torsions:
REMARK  status: ('A' for Active; 'I' for Inactive)
REMARK       I    between atoms: C2_2  and  N1_4
REMARK    1  A    between atoms: N1_4  and  C3_6
REMARK    2  A    between atoms: C6_9  and  O2_10
REMARK    3  A    between atoms: C6_9  and  C13_21
REMARK    4  A    between atoms: O2_10  and  C7_11
REMARK       I    between atoms: C7_11  and  N2_13
REMARK       I    between atoms: C13_21  and  N3_23
REMARK    5  A    between atoms: N3_23  and  C14_25
ROOT
HETATM    1  C3  UNL     1      34.047  31.012  22.762  1.00  0.00     0.087 C
HETATM    2  C4  UNL     1      33.161  30.232  23.664  1.00  0.00     0.029 C
HETATM    3  C5  UNL     1      34.133  29.366  24.435  1.00  0.00     0.051 C
HETATM    4  C6  UNL     1      35.383  29.284  23.645  1.00  0.00     0.154 C
HETATM    5  C24 UNL     1      35.132  30.041  22.392  1.00  0.00     0.074 C
ENDROOT
BRANCH   4   6
HETATM    6  O2  UNL     1      35.826  27.958  23.426  1.00  0.00    -0.282 OA
BRANCH   6   7
HETATM    7  C7  UNL     1      37.019  27.635  22.813  1.00  0.00     0.367 C
HETATM    8  O3  UNL     1      38.072  27.806  23.470  1.00  0.00    -0.238 OA
HETATM    9  N2  UNL     1      37.001  27.135  21.490  1.00  0.00    -0.279 N
HETATM   10  C8  UNL     1      35.783  26.940  20.728  1.00  0.00     0.133 C
HETATM   11  C12 UNL     1      38.229  26.767  20.767  1.00  0.00     0.260 C
HETATM   12  C9  UNL     1      35.890  27.822  19.501  1.00  0.00     0.020 C
HETATM   13  C10 UNL     1      37.183  27.679  18.771  1.00  0.00     0.008 C
HETATM   14  C11 UNL     1      38.388  27.822  19.690  1.00  0.00     0.085 C
HETATM   15  F1  UNL     1      37.996  25.567  20.080  1.00  0.00    -0.201 F
HETATM   16 CL1  UNL     1      39.615  26.623  21.830  1.00  0.00    -0.059 Cl
ENDBRANCH   6   7
ENDBRANCH   4   6
BRANCH   4  17
HETATM   17  C13 UNL     1      36.488  29.998  24.369  1.00  0.00     0.253 C
HETATM   18  O4  UNL     1      36.582  29.960  25.622  1.00  0.00    -0.270 OA
HETATM   19  N3  UNL     1      37.454  30.737  23.650  1.00  0.00    -0.353 N
ATOM     20  H3  UNL     1      37.401  30.785  22.632  1.00  0.00     0.163 HD
BRANCH  19  21
HETATM   21  C14 UNL     1      38.508  31.418  24.340  1.00  0.00     0.092 C
HETATM   22  C15 UNL     1      39.753  30.538  24.380  1.00  0.00     0.009 C
HETATM   23  C16 UNL     1      40.389  30.465  23.019  1.00  0.00     0.011 C
HETATM   24  C20 UNL     1      40.691  31.198  25.390  1.00  0.00     0.011 C
HETATM   25  C17 UNL     1      40.814  31.837  22.589  1.00  0.00    -0.013 C
HETATM   26  C18 UNL     1      41.731  32.484  23.597  1.00  0.00     0.009 C
HETATM   27  C23 UNL     1      39.561  32.697  22.462  1.00  0.00     0.011 C
HETATM   28  C19 UNL     1      41.012  32.585  24.922  1.00  0.00    -0.013 C
HETATM   29  C21 UNL     1      39.786  33.447  24.770  1.00  0.00     0.011 C
HETATM   30  C22 UNL     1      38.839  32.765  23.784  1.00  0.00     0.009 C
ENDBRANCH  19  21
ENDBRANCH   4  17
BRANCH   1  31
HETATM   31  N1  UNL     1      33.368  31.547  21.600  1.00  0.00    -0.357 N
HETATM   32  C2  UNL     1      33.633  32.822  21.085  1.00  0.00     0.213 C
HETATM   33  C1  UNL     1      32.931  33.358  19.895  1.00  0.00     0.117 C
HETATM   34  O1  UNL     1      34.492  33.551  21.634  1.00  0.00    -0.274 OA
ATOM     35  H1  UNL     1      32.665  30.970  21.138  1.00  0.00     0.162 HD
ENDBRANCH   1  31
TORSDOF 5
ENDMDL