MODEL 3
REMARK VINA RESULT: -8.870516681      1.622      2.194
REMARK  5 active torsions:
REMARK  status: ('A' for Active; 'I' for Inactive)
REMARK    1  A    between atoms: N1_9  and  C8_10
REMARK    2  A    between atoms: C11_13  and  N2_14
REMARK    3  A    between atoms: N2_14  and  S1_16
REMARK    4  A    between atoms: S1_16  and  C12_19
REMARK    5  A    between atoms: C20_28  and  O3_29
ROOT
HETATM    1  C8  UNL     1      35.731  28.670  23.727  1.00  0.00     0.033 A
HETATM    2  C9  UNL     1      36.221  28.406  22.466  1.00  0.00     0.031 A
HETATM    3  C10 UNL     1      35.420  28.538  21.325  1.00  0.00     0.032 A
HETATM    4  C11 UNL     1      34.108  28.938  21.399  1.00  0.00     0.042 A
HETATM    5  C18 UNL     1      33.602  29.208  22.665  1.00  0.00     0.032 A
HETATM    6  C19 UNL     1      34.397  29.075  23.782  1.00  0.00     0.031 A
ENDROOT
BRANCH   1   7
HETATM    7  N1  UNL     1      36.509  28.530  24.887  1.00  0.00    -0.345 N
HETATM    8  C6  UNL     1      36.812  27.244  25.497  1.00  0.00     0.125 C
HETATM    9  C5  UNL     1      38.192  27.166  26.019  1.00  0.00    -0.004 C
HETATM   10  C7  UNL     1      36.033  27.270  26.828  1.00  0.00     0.092 C
HETATM   11  C4  UNL     1      38.276  27.727  27.216  1.00  0.00    -0.022 C
HETATM   12  C3  UNL     1      36.917  28.240  27.599  1.00  0.00     0.032 C
HETATM   13  C2  UNL     1      36.650  29.605  27.014  1.00  0.00     0.039 C
HETATM   14  C1  UNL     1      37.317  30.703  27.807  1.00  0.00     0.015 C
HETATM   15  C20 UNL     1      37.086  29.671  25.562  1.00  0.00     0.225 C
HETATM   16 BR1  UNL     1      36.013  25.524  27.614  1.00  0.00    -0.088 Br
BRANCH  15  17
HETATM   17  O3  UNL     1      38.490  29.635  25.547  1.00  0.00    -0.376 OA
ATOM     18  H3  UNL     1      38.769  29.872  24.670  1.00  0.00     0.212 HD
ENDBRANCH  15  17
ENDBRANCH   1   7
BRANCH   4  19
HETATM   19  N2  UNL     1      33.335  29.044  20.229  1.00  0.00    -0.281 N
ATOM     20  H2  UNL     1      33.420  28.325  19.511  1.00  0.00     0.179 HD
BRANCH  19  21
HETATM   21  S1  UNL     1      32.265  30.335  19.980  1.00  0.00     0.264 S
HETATM   22  O1  UNL     1      31.062  30.113  20.874  1.00  0.00    -0.200 OA
HETATM   23  O2  UNL     1      31.766  30.328  18.539  1.00  0.00    -0.200 OA
BRANCH  21  24
HETATM   24  C12 UNL     1      32.903  31.906  20.328  1.00  0.00     0.101 A
HETATM   25  C13 UNL     1      33.838  32.021  21.336  1.00  0.00     0.027 A
HETATM   26  C14 UNL     1      34.429  33.223  21.693  1.00  0.00     0.002 A
HETATM   27  C15 UNL     1      34.098  34.381  21.040  1.00  0.00     0.002 A
HETATM   28  C16 UNL     1      33.166  34.282  20.033  1.00  0.00     0.025 A
HETATM   29  C17 UNL     1      32.573  33.066  19.674  1.00  0.00     0.057 A
HETATM   30 CL1  UNL     1      31.397  33.015  18.412  1.00  0.00    -0.083 Cl
ENDBRANCH  21  24
ENDBRANCH  19  21
ENDBRANCH   4  19
TORSDOF 5
ENDMDL