MODEL 5
REMARK VINA RESULT: -7.537565905      2.633      6.534
REMARK  8 active torsions:
REMARK  status: ('A' for Active; 'I' for Inactive)
REMARK    1  A    between atoms: O1_1  and  C1_3
REMARK    2  A    between atoms: C1_3  and  N1_4
REMARK    3  A    between atoms: C1_3  and  C18_28
REMARK    4  A    between atoms: N1_4  and  C2_6
REMARK       I    between atoms: N2_9  and  C5_10
REMARK    5  A    between atoms: C5_10  and  O3_12
REMARK    6  A    between atoms: O3_12  and  C6_13
REMARK    7  A    between atoms: C10_17  and  N3_18
REMARK       I    between atoms: N3_18  and  C11_20
REMARK    8  A    between atoms: C11_20  and  C12_22
ROOT
HETATM    1  C2  UNL     1      39.674  29.073  24.010  1.00  0.00     0.103 C
HETATM    2  C3  UNL     1      39.605  29.552  22.556  1.00  0.00     0.047 C
HETATM    3  C4  UNL     1      39.999  28.339  21.715  1.00  0.00     0.130 C
HETATM    4  N2  UNL     1      39.749  27.255  22.635  1.00  0.00    -0.326 N
HETATM    5  C5  UNL     1      39.122  26.036  22.305  1.00  0.00     0.363 C
HETATM    6  O2  UNL     1      38.957  25.120  23.175  1.00  0.00    -0.238 OA
HETATM    7  C17 UNL     1      40.256  27.688  23.917  1.00  0.00     0.153 C
ENDROOT
BRANCH   5   8
HETATM    8  O3  UNL     1      38.661  25.780  21.045  1.00  0.00    -0.296 OA
BRANCH   8   9
HETATM    9  C6  UNL     1      37.400  26.001  20.542  1.00  0.00     0.156 C
HETATM   10  C7  UNL     1      37.038  25.296  19.286  1.00  0.00     0.035 C
HETATM   11  C8  UNL     1      37.720  26.183  18.237  1.00  0.00     0.005 C
HETATM   12  C9  UNL     1      37.661  27.581  18.815  1.00  0.00     0.028 C
HETATM   13  C10 UNL     1      37.102  27.445  20.209  1.00  0.00     0.114 C
BRANCH  13  14
HETATM   14  N3  UNL     1      35.674  27.713  20.282  1.00  0.00    -0.354 N
HETATM   15  C11 UNL     1      35.097  28.477  21.318  1.00  0.00     0.222 C
HETATM   16  O4  UNL     1      35.819  28.952  22.217  1.00  0.00    -0.273 OA
ATOM     17  H3  UNL     1      35.067  27.334  19.556  1.00  0.00     0.163 HD
BRANCH  15  18
HETATM   18  C12 UNL     1      33.640  28.726  21.355  1.00  0.00     0.078 C
HETATM   19  C13 UNL     1      33.197  29.371  22.627  1.00  0.00     0.014 C
HETATM   20  C14 UNL     1      32.782  30.779  22.349  1.00  0.00     0.001 C
HETATM   21  C15 UNL     1      32.898  30.983  20.868  1.00  0.00     0.001 C
HETATM   22  C16 UNL     1      33.204  29.657  20.256  1.00  0.00     0.014 C
ENDBRANCH  15  18
ENDBRANCH  13  14
ENDBRANCH   8   9
ENDBRANCH   5   8
BRANCH   1  23
HETATM   23  N1  UNL     1      40.549  29.989  24.771  1.00  0.00    -0.364 N
ATOM     24  H1  UNL     1      41.544  29.800  24.891  1.00  0.00     0.162 HD
BRANCH  23  25
HETATM   25  C1  UNL     1      39.950  31.120  25.315  1.00  0.00     0.150 C
BRANCH  25  26
HETATM   26  O1  UNL     1      40.696  32.161  25.551  1.00  0.00    -0.346 OA
ATOM     27  H1  UNL     1      41.452  32.309  24.996  1.00  0.00     0.219 HD
ENDBRANCH  25  26
BRANCH  25  28
HETATM   28  C18 UNL     1      38.560  31.309  25.674  1.00  0.00     0.058 A
HETATM   29  C19 UNL     1      38.065  30.747  26.867  1.00  0.00     0.050 A
HETATM   30 CL1  UNL     1      39.145  29.800  27.859  1.00  0.00    -0.083 Cl
HETATM   31  C20 UNL     1      36.775  30.899  27.300  1.00  0.00     0.025 A
HETATM   32  C21 UNL     1      35.884  31.632  26.558  1.00  0.00     0.003 A
HETATM   33  C22 UNL     1      36.321  32.198  25.390  1.00  0.00     0.025 A
HETATM   34  C23 UNL     1      37.650  32.034  24.959  1.00  0.00     0.050 A
HETATM   35 CL2  UNL     1      38.069  32.871  23.462  1.00  0.00    -0.083 Cl
ENDBRANCH  25  28
ENDBRANCH  23  25
ENDBRANCH   1  23
TORSDOF 8
ENDMDL