MODEL 1
REMARK VINA RESULT: -7.437457849      0.000      0.000
REMARK  6 active torsions:
REMARK  status: ('A' for Active; 'I' for Inactive)
REMARK    1  A    between atoms: C4_4  and  N1_5
REMARK    2  A    between atoms: C7_10  and  N2_11
REMARK       I    between atoms: N2_11  and  C8_13
REMARK    3  A    between atoms: C8_13  and  C9_15
REMARK    4  A    between atoms: C15_23  and  C16_24
REMARK    5  A    between atoms: C16_24  and  O4_25
REMARK    6  A    between atoms: C16_24  and  N3_27
ROOT
HETATM    1  C1  UNL     1      38.146  30.447  28.481  1.00  0.00     0.018 C
HETATM    2  C2  UNL     1      37.604  30.097  27.453  1.00  0.00    -0.074 C
HETATM    3  C3  UNL     1      37.001  29.650  26.199  1.00  0.00     0.066 A
HETATM    4  C4  UNL     1      36.911  28.252  26.104  1.00  0.00     0.122 A
HETATM    5  C5  UNL     1      36.450  27.768  24.897  1.00  0.00     0.040 A
HETATM    6  C6  UNL     1      36.111  28.614  23.880  1.00  0.00     0.033 A
HETATM    7  C7  UNL     1      36.195  29.987  23.971  1.00  0.00     0.051 A
HETATM    8  C15 UNL     1      36.663  30.518  25.190  1.00  0.00     0.062 A
ENDROOT
BRANCH   4   9
HETATM    9  N1  UNL     1      37.248  27.364  27.151  1.00  0.00    -0.114 N
HETATM   10  O1  UNL     1      38.350  26.875  27.341  1.00  0.00    -0.532 OA
HETATM   11  O2  UNL     1      36.258  26.966  28.053  1.00  0.00    -0.532 OA
ENDBRANCH   4   9
BRANCH   8  12
HETATM   12  C16 UNL     1      36.900  31.939  25.252  1.00  0.00     0.149 C
BRANCH  12  13
HETATM   13  O4  UNL     1      35.902  32.610  25.809  1.00  0.00    -0.346 OA
ATOM     14  H4  UNL     1      36.196  33.321  26.365  1.00  0.00     0.219 HD
ENDBRANCH  12  13
BRANCH  12  15
HETATM   15  N3  UNL     1      37.934  32.770  24.867  1.00  0.00    -0.375 N
HETATM   16  C17 UNL     1      39.324  32.221  24.786  1.00  0.00     0.148 C
ATOM     17  H3  UNL     1      37.753  33.749  24.641  1.00  0.00     0.161 HD
ENDBRANCH  12  15
ENDBRANCH   8  12
BRANCH   7  18
HETATM   18  N2  UNL     1      35.687  30.784  22.912  1.00  0.00    -0.322 N
HETATM   19  C8  UNL     1      34.302  31.000  22.690  1.00  0.00     0.257 C
HETATM   20  O3  UNL     1      33.422  30.450  23.444  1.00  0.00    -0.267 OA
ATOM     21  H2  UNL     1      36.353  31.224  22.277  1.00  0.00     0.169 HD
BRANCH  19  22
HETATM   22  C9  UNL     1      33.789  31.826  21.615  1.00  0.00     0.051 A
HETATM   23  C10 UNL     1      32.862  31.267  20.748  1.00  0.00     0.037 A
HETATM   24  C11 UNL     1      32.338  31.963  19.688  1.00  0.00     0.012 A
HETATM   25 BR1  UNL     1      31.083  31.186  18.493  1.00  0.00    -0.051 Br
HETATM   26  C12 UNL     1      32.771  33.256  19.512  1.00  0.00     0.020 A
HETATM   27  C13 UNL     1      33.699  33.851  20.361  1.00  0.00     0.021 A
HETATM   28  C14 UNL     1      34.209  33.112  21.429  1.00  0.00     0.026 A
HETATM   29 BR2  UNL     1      35.462  33.922  22.603  1.00  0.00    -0.050 Br
ENDBRANCH  19  22
ENDBRANCH   7  18
TORSDOF 6
ENDMDL