MODEL 1
REMARK VINA RESULT: -8.096508858      0.000      0.000
REMARK  7 active torsions:
REMARK  status: ('A' for Active; 'I' for Inactive)
REMARK    1  A    between atoms: C2_2  and  O2_4
REMARK    2  A    between atoms: O2_4  and  C3_5
REMARK    3  A    between atoms: C8_10  and  C9_11
REMARK    4  A    between atoms: C9_11  and  N1_12
REMARK    5  A    between atoms: N1_12  and  C10_14
REMARK    6  A    between atoms: C10_14  and  N2_16
REMARK       I    between atoms: N2_16  and  C11_18
REMARK    7  A    between atoms: C11_18  and  C12_20
ROOT
HETATM    1  C10 UNL     1      34.978  29.048  25.546  1.00  0.00     0.174 C
HETATM    2  S1  UNL     1      35.985  27.770  25.410  1.00  0.00    -0.041 SA
ENDROOT
BRANCH   1   3
HETATM    3  N1  UNL     1      34.922  29.784  26.757  1.00  0.00    -0.363 N
ATOM      4  H1  UNL     1      34.655  29.298  27.613  1.00  0.00     0.162 HD
BRANCH   3   5
HETATM    5  C9  UNL     1      35.225  31.187  26.828  1.00  0.00     0.163 C
BRANCH   5   6
HETATM    6  C8  UNL     1      36.472  31.546  26.120  1.00  0.00    -0.006 A
HETATM    7  C3  UNL     1      37.638  30.933  26.549  1.00  0.00     0.087 A
HETATM    8  C4  UNL     1      38.801  31.243  25.884  1.00  0.00     0.038 A
HETATM    9  C5  UNL     1      38.863  32.127  24.819  1.00  0.00     0.003 A
HETATM   10  C6  UNL     1      37.699  32.722  24.410  1.00  0.00     0.001 A
HETATM   11  C7  UNL     1      36.493  32.444  25.048  1.00  0.00     0.011 A
BRANCH   7  12
HETATM   12  O2  UNL     1      37.560  30.053  27.614  1.00  0.00    -0.279 OA
BRANCH  12  13
HETATM   13  C2  UNL     1      38.447  30.006  28.665  1.00  0.00     0.260 C
HETATM   14  C1  UNL     1      39.702  29.175  28.612  1.00  0.00     0.126 C
HETATM   15  O1  UNL     1      38.179  30.682  29.683  1.00  0.00    -0.265 OA
ENDBRANCH  12  13
ENDBRANCH   7  12
ENDBRANCH   5   6
ENDBRANCH   3   5
ENDBRANCH   1   3
BRANCH   1  16
HETATM   16  N2  UNL     1      34.146  29.456  24.442  1.00  0.00    -0.300 N
HETATM   17  C11 UNL     1      34.681  29.840  23.206  1.00  0.00     0.257 C
HETATM   18  O3  UNL     1      35.936  29.826  23.054  1.00  0.00    -0.267 OA
ATOM     19  H2  UNL     1      33.134  29.466  24.566  1.00  0.00     0.171 HD
BRANCH  17  20
HETATM   20  C12 UNL     1      33.862  30.255  22.086  1.00  0.00     0.033 A
HETATM   21  C13 UNL     1      33.125  29.294  21.381  1.00  0.00     0.018 A
HETATM   22  C14 UNL     1      32.336  29.648  20.312  1.00  0.00     0.021 A
HETATM   23  C15 UNL     1      32.236  30.951  19.892  1.00  0.00     0.028 A
HETATM   24 BR1  UNL     1      31.135  31.422  18.404  1.00  0.00    -0.050 Br
HETATM   25  C16 UNL     1      32.942  31.899  20.562  1.00  0.00     0.029 A
HETATM   26 BR2  UNL     1      32.846  33.721  20.028  1.00  0.00    -0.050 Br
HETATM   27  C17 UNL     1      33.730  31.545  21.629  1.00  0.00     0.037 A
ENDBRANCH  17  20
ENDBRANCH   1  16
TORSDOF 7
ENDMDL