MODEL 4
REMARK VINA RESULT: -7.704508435      1.385      1.569
REMARK  5 active torsions:
REMARK  status: ('A' for Active; 'I' for Inactive)
REMARK    1  A    between atoms: C1_2  and  C2_3
REMARK       I    between atoms: C1_2  and  N3_11
REMARK    2  A    between atoms: C2_3  and  C3_4
REMARK    3  A    between atoms: N3_11  and  C6_13
REMARK    4  A    between atoms: C8_18  and  C9_19
REMARK    5  A    between atoms: C9_19  and  C10_21
ROOT
HETATM    1  C6  UNL     1      33.891  29.237  22.872  1.00  0.00     0.152 A
HETATM    2  N4  UNL     1      33.373  29.432  24.088  1.00  0.00    -0.329 N
ATOM      3  H4  UNL     1      32.481  29.013  24.349  1.00  0.00     0.168 HD
HETATM    4  C7  UNL     1      34.036  30.171  24.933  1.00  0.00     0.103 A
HETATM    5 BR1  UNL     1      33.388  30.542  26.726  1.00  0.00    -0.030 Br
HETATM    6  C8  UNL     1      35.225  30.705  24.527  1.00  0.00     0.093 A
HETATM    7  S1  UNL     1      35.350  30.121  22.930  1.00  0.00    -0.047 SA
ENDROOT
BRANCH   1   8
HETATM    8  N3  UNL     1      33.384  28.531  21.884  1.00  0.00    -0.307 N
HETATM    9  C1  UNL     1      33.026  29.242  20.703  1.00  0.00     0.229 C
HETATM   10  O1  UNL     1      33.719  29.217  19.663  1.00  0.00    -0.273 OA
ATOM     11  H3  UNL     1      33.254  27.522  21.961  1.00  0.00     0.171 HD
BRANCH   9  12
HETATM   12  C2  UNL     1      31.781  30.049  20.695  1.00  0.00     0.161 C
BRANCH  12  13
HETATM   13  C3  UNL     1      31.990  31.339  20.016  1.00  0.00     0.034 A
HETATM   14  C4  UNL     1      31.247  31.745  18.908  1.00  0.00     0.114 A
HETATM   15  N1  UNL     1      31.698  32.951  18.557  1.00  0.00    -0.360 N
HETATM   16  C5  UNL     1      32.680  33.295  19.401  1.00  0.00     0.180 A
ATOM     17  H1  UNL     1      31.354  33.515  17.779  1.00  0.00     0.166 HD
HETATM   18  N2  UNL     1      32.861  32.324  20.284  1.00  0.00    -0.354 N
ATOM     19  H2  UNL     1      33.546  32.324  21.039  1.00  0.00     0.166 HD
ENDBRANCH  12  13
ENDBRANCH   9  12
ENDBRANCH   1   8
BRANCH   6  20
HETATM   20  C9  UNL     1      36.192  31.554  25.231  1.00  0.00     0.203 C
HETATM   21  O2  UNL     1      36.120  32.823  25.100  1.00  0.00    -0.286 OA
BRANCH  20  22
HETATM   22  C10 UNL     1      37.226  31.024  26.071  1.00  0.00     0.033 A
HETATM   23  C11 UNL     1      36.979  30.678  27.378  1.00  0.00     0.017 A
HETATM   24  C12 UNL     1      37.932  30.157  28.223  1.00  0.00     0.001 A
HETATM   25  C13 UNL     1      39.199  29.978  27.712  1.00  0.00     0.001 A
HETATM   26  C14 UNL     1      39.483  30.320  26.384  1.00  0.00     0.020 A
HETATM   27  C15 UNL     1      38.497  30.838  25.579  1.00  0.00     0.025 A
HETATM   28 BR2  UNL     1      38.968  31.296  23.774  1.00  0.00    -0.050 Br
ENDBRANCH  20  22
ENDBRANCH   6  20
TORSDOF 5
ENDMDL