MODEL 4
REMARK VINA RESULT: -6.596809110      4.079      6.963
REMARK  5 active torsions:
REMARK  status: ('A' for Active; 'I' for Inactive)
REMARK    1  A    between atoms: C1_2  and  C2_3
REMARK    2  A    between atoms: C3_4  and  N1_5
REMARK    3  A    between atoms: C4_7  and  C5_8
REMARK    4  A    between atoms: C6_9  and  C7_10
REMARK    5  A    between atoms: C15_23  and  O4_24
ROOT
HETATM    1  N1  UNL     1      35.861  28.181  26.347  1.00  0.00    -0.364 N
ATOM      2  H1  UNL     1      34.967  27.694  26.401  1.00  0.00     0.165 HD
HETATM    3  C4  UNL     1      36.039  29.095  25.438  1.00  0.00     0.103 C
ENDROOT
BRANCH   1   4
HETATM    4  C3  UNL     1      36.892  27.851  27.267  1.00  0.00     0.048 A
HETATM    5  C2  UNL     1      36.959  26.578  27.789  1.00  0.00     0.048 A
HETATM    6  C16 UNL     1      37.956  26.259  28.677  1.00  0.00     0.060 A
HETATM    7  C15 UNL     1      38.894  27.173  29.066  1.00  0.00     0.101 A
HETATM    8 BR2  UNL     1      37.973  24.457  29.357  1.00  0.00    -0.047 Br
HETATM    9  C14 UNL     1      38.833  28.465  28.543  1.00  0.00     0.047 A
HETATM   10  C13 UNL     1      37.837  28.790  27.651  1.00  0.00     0.052 A
HETATM   11 BR1  UNL     1      40.153  29.730  29.096  1.00  0.00    -0.048 Br
BRANCH   5  12
HETATM   12  C1  UNL     1      35.961  25.583  27.385  1.00  0.00     0.273 C
HETATM   13  O1  UNL     1      34.832  25.599  27.932  1.00  0.00    -0.301 OA
ENDBRANCH   5  12
BRANCH   7  14
HETATM   14  O4  UNL     1      39.880  26.804  29.966  1.00  0.00    -0.358 OA
ATOM     15  H4  UNL     1      40.294  27.442  30.536  1.00  0.00     0.217 HD
ENDBRANCH   7  14
ENDBRANCH   1   4
BRANCH   3  16
HETATM   16  C5  UNL     1      34.952  29.383  24.534  1.00  0.00     0.031 A
HETATM   17  C6  UNL     1      33.818  30.039  24.920  1.00  0.00     0.056 A
HETATM   18  C8  UNL     1      32.862  30.242  23.927  1.00  0.00     0.037 A
HETATM   19  C9  UNL     1      33.054  29.813  22.671  1.00  0.00     0.098 A
HETATM   20  N2  UNL     1      34.177  29.154  22.253  1.00  0.00    -0.326 N
HETATM   21  C10 UNL     1      34.425  28.710  21.046  1.00  0.00     0.104 A
HETATM   22  C12 UNL     1      35.089  28.960  23.195  1.00  0.00     0.092 A
HETATM   23  C11 UNL     1      35.617  28.071  20.829  1.00  0.00     0.069 A
HETATM   24  S1  UNL     1      36.336  28.133  22.378  1.00  0.00    -0.082 SA
BRANCH  17  25
HETATM   25  C7  UNL     1      33.540  30.528  26.240  1.00  0.00     0.210 C
HETATM   26  O2  UNL     1      34.394  31.043  26.979  1.00  0.00    -0.644 OA
HETATM   27  O3  UNL     1      32.221  30.431  26.767  1.00  0.00    -0.644 OA
ENDBRANCH  17  25
ENDBRANCH   3  16
TORSDOF 5
ENDMDL