MODEL 2
REMARK VINA RESULT: -7.891344634      3.241      3.743
REMARK  6 active torsions:
REMARK  status: ('A' for Active; 'I' for Inactive)
REMARK    1  A    between atoms: C2_2  and  C3_3
REMARK    2  A    between atoms: C3_3  and  N1_4
REMARK    3  A    between atoms: C3_3  and  C10_16
REMARK    4  A    between atoms: N1_4  and  S1_6
REMARK    5  A    between atoms: S1_6  and  C4_9
REMARK       I    between atoms: C10_16  and  N2_18
REMARK    6  A    between atoms: N2_18  and  C11_20
ROOT
HETATM    1  C3  UNL     1      34.812  29.968  24.989  1.00  0.00     0.185 C
ENDROOT
BRANCH   1   2
HETATM    2  C2  UNL     1      34.679  30.052  26.495  1.00  0.00     0.031 C
HETATM    3  C1  UNL     1      35.517  31.170  27.070  1.00  0.00     0.007 C
ENDBRANCH   1   2
BRANCH   1   4
HETATM    4  N1  UNL     1      35.721  28.937  24.587  1.00  0.00    -0.302 N
ATOM      5  H1  UNL     1      35.538  27.947  24.754  1.00  0.00     0.173 HD
BRANCH   4   6
HETATM    6  S1  UNL     1      37.132  29.492  23.809  1.00  0.00     0.259 S
HETATM    7  O1  UNL     1      38.314  29.093  24.667  1.00  0.00    -0.201 OA
HETATM    8  O2  UNL     1      37.166  30.985  23.694  1.00  0.00    -0.201 OA
BRANCH   6   9
HETATM    9  C4  UNL     1      37.363  28.808  22.221  1.00  0.00     0.079 A
HETATM   10  C5  UNL     1      36.338  28.594  21.325  1.00  0.00     0.026 A
HETATM   11  C6  UNL     1      36.502  28.056  20.070  1.00  0.00     0.020 A
HETATM   12  C7  UNL     1      37.764  27.703  19.667  1.00  0.00     0.011 A
HETATM   13 BR1  UNL     1      38.040  26.950  17.932  1.00  0.00    -0.051 Br
HETATM   14  C8  UNL     1      38.814  27.899  20.531  1.00  0.00     0.020 A
HETATM   15  C9  UNL     1      38.617  28.438  21.777  1.00  0.00     0.026 A
ENDBRANCH   6   9
ENDBRANCH   4   6
ENDBRANCH   1   4
BRANCH   1  16
HETATM   16  C10 UNL     1      33.461  29.731  24.442  1.00  0.00     0.246 C
HETATM   17  O3  UNL     1      32.468  30.113  25.094  1.00  0.00    -0.271 OA
HETATM   18  N2  UNL     1      33.259  29.084  23.207  1.00  0.00    -0.310 N
ATOM     19  H2  UNL     1      33.482  28.091  23.135  1.00  0.00     0.170 HD
BRANCH  18  20
HETATM   20  C11 UNL     1      32.812  29.683  22.179  1.00  0.00     0.122 A
HETATM   21  C12 UNL     1      33.384  30.834  21.742  1.00  0.00     0.053 A
HETATM   22  C13 UNL     1      32.885  31.465  20.630  1.00  0.00     0.042 A
HETATM   23  C14 UNL     1      31.793  30.920  19.961  1.00  0.00     0.094 A
HETATM   24 BR2  UNL     1      31.073  31.778  18.406  1.00  0.00    -0.030 Br
HETATM   25  N3  UNL     1      31.270  29.781  20.441  1.00  0.00    -0.292 N
HETATM   26  N4  UNL     1      31.762  29.167  21.527  1.00  0.00    -0.285 N
ATOM     27  H3  UNL     1      30.469  29.368  19.962  1.00  0.00     0.187 HD
ATOM     28  H4  UNL     1      31.334  28.303  21.857  1.00  0.00     0.188 HD
ENDBRANCH  18  20
ENDBRANCH   1  16
TORSDOF 6
ENDMDL