MODEL 5
REMARK VINA RESULT: -6.804112570      0.948      1.279
REMARK  7 active torsions:
REMARK  status: ('A' for Active; 'I' for Inactive)
REMARK    1  A    between atoms: C2_2  and  N1_5
REMARK       I    between atoms: N1_5  and  C5_7
REMARK    2  A    between atoms: C5_7  and  C6_9
REMARK    3  A    between atoms: C6_9  and  C16_27
REMARK       I    between atoms: N2_10  and  C7_12
REMARK    4  A    between atoms: C7_12  and  C8_14
REMARK    5  A    between atoms: C10_16  and  C11_17
REMARK    6  A    between atoms: C11_17  and  N3_18
REMARK       I    between atoms: N3_18  and  C12_20
REMARK    7  A    between atoms: C12_20  and  C13_22
ROOT
HETATM    1  C6  UNL     1      35.200  29.877  23.479  1.00  0.00     0.169 C
HETATM    2  N2  UNL     1      34.755  30.618  24.428  1.00  0.00    -0.318 N
ATOM      3  H2  UNL     1      33.802  30.970  24.333  1.00  0.00     0.169 HD
HETATM    4  C7  UNL     1      35.463  30.992  25.595  1.00  0.00     0.226 C
HETATM    5  O2  UNL     1      36.228  32.003  25.497  1.00  0.00    -0.273 OA
ENDROOT
BRANCH   4   6
HETATM    6  C8  UNL     1      35.357  30.279  26.888  1.00  0.00     0.080 C
HETATM    7  C9  UNL     1      36.466  29.256  27.117  1.00  0.00     0.032 C
HETATM    8  C10 UNL     1      35.477  28.173  27.217  1.00  0.00     0.076 C
HETATM    9  C15 UNL     1      34.424  29.117  26.794  1.00  0.00     0.032 C
BRANCH   8  10
HETATM   10  C11 UNL     1      35.575  26.923  27.554  1.00  0.00    -0.063 C
BRANCH  10  11
HETATM   11  N3  UNL     1      35.497  25.748  28.081  1.00  0.00    -0.294 N
HETATM   12  C12 UNL     1      36.249  24.705  27.482  1.00  0.00     0.258 C
HETATM   13  O3  UNL     1      36.607  24.680  26.289  1.00  0.00    -0.270 OA
ATOM     14  H3  UNL     1      34.916  25.575  28.900  1.00  0.00     0.178 HD
BRANCH  12  15
HETATM   15  C13 UNL     1      36.626  23.563  28.368  1.00  0.00     0.153 C
HETATM   16  C14 UNL     1      36.664  22.330  27.472  1.00  0.00     0.051 C
HETATM   17 BR1  UNL     1      38.420  23.958  29.027  1.00  0.00    -0.063 Br
HETATM   18 BR2  UNL     1      35.371  23.371  29.793  1.00  0.00    -0.063 Br
ENDBRANCH  12  15
ENDBRANCH  10  11
ENDBRANCH   8  10
ENDBRANCH   4   6
BRANCH   1  19
HETATM   19  C5  UNL     1      34.329  29.599  22.358  1.00  0.00     0.274 C
HETATM   20  N1  UNL     1      33.635  30.617  21.679  1.00  0.00    -0.347 N
ATOM     21  H1  UNL     1      33.766  31.574  22.004  1.00  0.00     0.163 HD
HETATM   22  O1  UNL     1      34.185  28.415  21.975  1.00  0.00    -0.266 OA
BRANCH  20  23
HETATM   23  C2  UNL     1      32.762  30.413  20.568  1.00  0.00     0.022 C
HETATM   24  C1  UNL     1      31.452  29.797  21.060  1.00  0.00     0.037 C
HETATM   25  C3  UNL     1      32.490  31.731  19.881  1.00  0.00     0.037 C
HETATM   26  C4  UNL     1      33.312  29.471  19.531  1.00  0.00     0.037 C
ENDBRANCH  20  23
ENDBRANCH   1  19
BRANCH   1  27
HETATM   27  C16 UNL     1      36.539  29.318  23.503  1.00  0.00     0.287 C
HETATM   28  N4  UNL     1      36.808  27.989  23.927  1.00  0.00    -0.056 NA
HETATM   29  O4  UNL     1      37.527  30.003  23.141  1.00  0.00    -0.269 OA
ENDBRANCH   1  27
TORSDOF 7
ENDMDL