MODEL 3
REMARK VINA RESULT: -6.845515079      1.052      1.221
REMARK  6 active torsions:
REMARK  status: ('A' for Active; 'I' for Inactive)
REMARK    1  A    between atoms: C2_2  and  O1_3
REMARK    2  A    between atoms: O1_3  and  C3_4
REMARK    3  A    between atoms: C5_6  and  C6_7
REMARK       I    between atoms: N1_12  and  C9_13
REMARK    4  A    between atoms: C9_13  and  C10_15
REMARK    5  A    between atoms: C13_20  and  S1_21
REMARK    6  A    between atoms: S1_21  and  N3_22
ROOT
HETATM    1  C3  UNL     1      34.445  29.779  23.305  1.00  0.00     0.226 C
HETATM    2  C4  UNL     1      33.921  29.756  21.814  1.00  0.00     0.065 C
HETATM    3  C5  UNL     1      33.226  31.123  21.893  1.00  0.00     0.049 C
HETATM    4  C8  UNL     1      34.398  31.954  22.312  1.00  0.00     0.139 C
HETATM    5  N1  UNL     1      35.019  31.100  23.385  1.00  0.00    -0.319 N
HETATM    6  C9  UNL     1      35.979  31.693  24.215  1.00  0.00     0.274 C
HETATM    7  O2  UNL     1      36.231  32.929  23.965  1.00  0.00    -0.266 OA
ENDROOT
BRANCH   6   8
HETATM    8  C10 UNL     1      36.690  31.066  25.290  1.00  0.00     0.124 A
HETATM    9  N2  UNL     1      36.387  30.934  26.592  1.00  0.00    -0.360 N
HETATM   10  C11 UNL     1      37.343  30.272  27.276  1.00  0.00     0.090 A
ATOM     11  H2  UNL     1      35.532  31.294  27.016  1.00  0.00     0.165 HD
HETATM   12  C12 UNL     1      38.318  29.953  26.383  1.00  0.00     0.044 A
HETATM   13  C13 UNL     1      37.936  30.439  25.128  1.00  0.00     0.112 A
BRANCH  13  14
HETATM   14  S1  UNL     1      38.868  30.244  23.683  1.00  0.00     0.259 S
HETATM   15  O3  UNL     1      39.299  31.563  23.068  1.00  0.00    -0.201 OA
HETATM   16  O4  UNL     1      40.193  29.573  24.057  1.00  0.00    -0.201 OA
BRANCH  14  17
HETATM   17  N3  UNL     1      38.055  29.264  22.506  1.00  0.00    -0.324 N
ATOM     18  H32 UNL     1      37.969  28.251  22.589  1.00  0.00     0.169 HD
ATOM     19  H31 UNL     1      37.682  29.818  21.734  1.00  0.00     0.169 HD
ENDBRANCH  14  17
ENDBRANCH  13  14
ENDBRANCH   6   8
BRANCH   1  20
HETATM   20  O1  UNL     1      33.270  29.653  24.022  1.00  0.00    -0.367 OA
BRANCH  20  21
HETATM   21  C2  UNL     1      33.383  29.257  25.322  1.00  0.00     0.166 C
HETATM   22  C1  UNL     1      32.569  30.097  26.282  1.00  0.00     0.033 C
ENDBRANCH  20  21
ENDBRANCH   1  20
BRANCH   3  23
HETATM   23  C6  UNL     1      32.627  31.513  20.625  1.00  0.00     0.001 C
HETATM   24 BR1  UNL     1      32.859  33.271  19.953  1.00  0.00    -0.055 Br
HETATM   25  C7  UNL     1      31.916  30.654  19.926  1.00  0.00     0.071 C
HETATM   26 BR2  UNL     1      31.116  31.137  18.253  1.00  0.00    -0.062 Br
ENDBRANCH   3  23
TORSDOF 6
ENDMDL