MODEL 3
REMARK VINA RESULT: -6.671142976      4.408      7.664
REMARK  8 active torsions:
REMARK  status: ('A' for Active; 'I' for Inactive)
REMARK    1  A    between atoms: N1_6  and  C5_7
REMARK    2  A    between atoms: C5_7  and  C6_9
REMARK    3  A    between atoms: C10_16  and  O2_17
REMARK    4  A    between atoms: C10_16  and  C11_19
REMARK    5  A    between atoms: C11_19  and  C12_20
REMARK    6  A    between atoms: C12_20  and  N3_21
REMARK       I    between atoms: N3_21  and  C13_23
REMARK    7  A    between atoms: C13_23  and  C14_25
REMARK    8  A    between atoms: C14_25  and  C15_26
ROOT
HETATM    1  C1  UNL     1      37.786  29.012  22.305  1.00  0.00     0.104 C
HETATM    2  C2  UNL     1      37.505  28.447  23.357  1.00  0.00    -0.135 C
HETATM    3  C3  UNL     1      37.234  27.776  24.615  1.00  0.00     0.102 C
HETATM    4 CL1  UNL     1      38.141  26.288  24.849  1.00  0.00    -0.073 Cl
HETATM    5  C4  UNL     1      36.447  28.246  25.549  1.00  0.00     0.109 C
HETATM    6  N1  UNL     1      35.744  29.559  25.363  1.00  0.00    -0.238 N
HETATM    7  N2  UNL     1      35.843  30.222  26.619  1.00  0.00    -0.255 N
HETATM    8  C8  UNL     1      35.358  31.489  27.073  1.00  0.00     0.181 C
HETATM    9  C9  UNL     1      36.574  29.291  27.490  1.00  0.00     0.279 C
HETATM   10  O1  UNL     1      37.314  29.540  28.413  1.00  0.00    -0.268 OA
HETATM   11  C10 UNL     1      36.181  27.945  26.957  1.00  0.00     0.188 C
ENDROOT
BRANCH   6  12
HETATM   12  C5  UNL     1      34.973  29.895  24.236  1.00  0.00     0.140 C
HETATM   13  S1  UNL     1      33.443  29.042  24.149  1.00  0.00    -0.057 SA
BRANCH  12  14
HETATM   14  C6  UNL     1      34.945  30.943  23.289  1.00  0.00     0.041 C
HETATM   15  C7  UNL     1      34.179  31.084  22.252  1.00  0.00     0.035 C
HETATM   16 BR1  UNL     1      36.227  32.408  23.499  1.00  0.00    -0.049 Br
ENDBRANCH  12  14
ENDBRANCH   6  12
BRANCH  11  17
HETATM   17  O2  UNL     1      34.697  27.990  27.118  1.00  0.00    -0.374 OA
ATOM     18  H2  UNL     1      34.343  27.390  26.471  1.00  0.00     0.211 HD
ENDBRANCH  11  17
BRANCH  11  19
HETATM   19  C11 UNL     1      36.513  26.766  27.689  1.00  0.00     0.074 C
BRANCH  19  20
HETATM   20  C12 UNL     1      35.606  25.576  27.469  1.00  0.00     0.126 C
BRANCH  20  21
HETATM   21  N3  UNL     1      35.969  24.413  28.222  1.00  0.00    -0.361 N
HETATM   22  C13 UNL     1      35.352  23.900  29.380  1.00  0.00     0.218 C
HETATM   23  O3  UNL     1      34.359  24.464  29.876  1.00  0.00    -0.274 OA
ATOM     24  H3  UNL     1      36.774  23.891  27.876  1.00  0.00     0.162 HD
BRANCH  22  25
HETATM   25  C14 UNL     1      35.847  22.669  30.064  1.00  0.00     0.111 C
BRANCH  25  26
HETATM   26  C15 UNL     1      37.077  22.930  30.873  1.00  0.00    -0.043 C
HETATM   27  C16 UNL     1      37.614  21.565  31.318  1.00  0.00     0.015 C
HETATM   28  C17 UNL     1      38.165  23.610  30.104  1.00  0.00     0.015 C
HETATM   29  C18 UNL     1      36.702  23.695  32.127  1.00  0.00     0.015 C
ENDBRANCH  25  26
ENDBRANCH  22  25
ENDBRANCH  20  21
ENDBRANCH  19  20
ENDBRANCH  11  19
TORSDOF 8
ENDMDL