MODEL 5
REMARK VINA RESULT: -7.735496200      1.924      2.258
REMARK  7 active torsions:
REMARK  status: ('A' for Active; 'I' for Inactive)
REMARK    1  A    between atoms: C1_2  and  C2_4
REMARK    2  A    between atoms: C2_4  and  C3_5
REMARK    3  A    between atoms: C2_4  and  N3_21
REMARK    4  A    between atoms: C3_5  and  C4_6
REMARK    5  A    between atoms: C7_9  and  C8_10
REMARK    6  A    between atoms: N1_14  and  O3_15
REMARK       I    between atoms: N3_21  and  C14_23
REMARK    7  A    between atoms: C14_23  and  C15_25
ROOT
HETATM    1  C4  UNL     1      34.835  30.390  24.902  1.00  0.00     0.011 A
HETATM    2  C5  UNL     1      33.628  29.813  24.577  1.00  0.00     0.026 A
HETATM    3  C6  UNL     1      33.035  30.024  23.352  1.00  0.00     0.015 A
HETATM    4  C7  UNL     1      33.645  30.836  22.400  1.00  0.00    -0.009 A
HETATM    5  C13 UNL     1      34.839  31.393  22.752  1.00  0.00     0.100 A
HETATM    6  N2  UNL     1      35.394  31.172  23.948  1.00  0.00    -0.368 N
ATOM      7  H2  UNL     1      36.288  31.617  24.153  1.00  0.00     0.165 HD
ENDROOT
BRANCH   1   8
HETATM    8  C3  UNL     1      35.549  30.228  26.174  1.00  0.00     0.093 C
BRANCH   8   9
HETATM    9  C2  UNL     1      36.449  29.048  26.295  1.00  0.00     0.191 C
BRANCH   9  10
HETATM   10  C1  UNL     1      36.429  28.355  27.584  1.00  0.00     0.197 C
HETATM   11  O1  UNL     1      37.327  28.601  28.426  1.00  0.00    -0.646 OA
HETATM   12  O2  UNL     1      35.459  27.443  27.899  1.00  0.00    -0.646 OA
ENDBRANCH   9  10
BRANCH   9  13
HETATM   13  N3  UNL     1      37.829  29.421  25.930  1.00  0.00    -0.346 N
HETATM   14  C14 UNL     1      38.349  29.268  24.639  1.00  0.00     0.225 C
HETATM   15  O4  UNL     1      37.605  28.786  23.735  1.00  0.00    -0.273 OA
ATOM     16  H3  UNL     1      38.434  29.809  26.654  1.00  0.00     0.163 HD
BRANCH  14  17
HETATM   17  C15 UNL     1      39.732  29.638  24.261  1.00  0.00     0.110 A
HETATM   18  C16 UNL     1      40.459  30.431  25.323  1.00  0.00     0.050 A
HETATM   19  C17 UNL     1      40.112  31.030  23.994  1.00  0.00     0.088 A
HETATM   20 BR1  UNL     1      41.648  31.393  22.868  1.00  0.00    -0.072 Br
HETATM   21 BR2  UNL     1      38.771  32.432  23.938  1.00  0.00    -0.072 Br
ENDBRANCH  14  17
ENDBRANCH   9  13
ENDBRANCH   8   9
ENDBRANCH   1   8
BRANCH   4  22
HETATM   22  C8  UNL     1      33.022  31.056  21.123  1.00  0.00    -0.007 A
HETATM   23  C9  UNL     1      32.753  32.323  20.660  1.00  0.00     0.015 A
HETATM   24  C10 UNL     1      32.152  32.436  19.421  1.00  0.00     0.021 A
HETATM   25  C11 UNL     1      31.834  31.324  18.675  1.00  0.00     0.122 A
HETATM   26  N1  UNL     1      32.098  30.097  19.133  1.00  0.00    -0.246 N
HETATM   27  C12 UNL     1      32.691  29.956  20.352  1.00  0.00     0.134 A
BRANCH  26  28
HETATM   28  O3  UNL     1      31.756  29.030  18.342  1.00  0.00    -0.284 OA
ATOM     29  H3  UNL     1      31.392  28.262  18.765  1.00  0.00     0.245 HD
ENDBRANCH  26  28
ENDBRANCH   4  22
TORSDOF 7
ENDMDL