MODEL 3
REMARK VINA RESULT: -7.956203759      2.889      6.641
REMARK  5 active torsions:
REMARK  status: ('A' for Active; 'I' for Inactive)
REMARK    1  A    between atoms: C7_9  and  N2_10
REMARK       I    between atoms: N2_10  and  C8_11
REMARK    2  A    between atoms: C8_11  and  C9_13
REMARK    3  A    between atoms: C9_13  and  N3_14
REMARK    4  A    between atoms: N3_14  and  S1_16
REMARK    5  A    between atoms: S1_16  and  C10_19
ROOT
HETATM    1  N1  UNL     1      37.346  26.446  24.821  1.00  0.00    -0.191 NA
HETATM    2  C1  UNL     1      37.000  27.510  25.090  1.00  0.00     0.104 C
HETATM    3  C2  UNL     1      36.585  28.813  25.466  1.00  0.00     0.102 A
HETATM    4  C3  UNL     1      36.858  29.213  26.735  1.00  0.00     0.035 A
HETATM    5 BR1  UNL     1      37.767  28.081  27.952  1.00  0.00    -0.049 Br
HETATM    6  C4  UNL     1      36.465  30.461  27.153  1.00  0.00     0.021 A
HETATM    7  C5  UNL     1      35.805  31.323  26.329  1.00  0.00     0.005 A
HETATM    8  C6  UNL     1      35.541  30.889  25.041  1.00  0.00     0.046 A
HETATM    9  C7  UNL     1      35.918  29.628  24.562  1.00  0.00     0.133 A
ENDROOT
BRANCH   9  10
HETATM   10  N2  UNL     1      35.767  29.165  23.261  1.00  0.00    -0.368 NA
HETATM   11  C8  UNL     1      35.625  28.725  22.024  1.00  0.00     0.310 C
HETATM   12  O1  UNL     1      36.529  28.694  21.121  1.00  0.00    -0.255 OA
BRANCH  11  13
HETATM   13  C9  UNL     1      34.306  28.167  21.456  1.00  0.00     0.251 C
BRANCH  13  14
HETATM   14  N3  UNL     1      33.270  29.038  21.878  1.00  0.00    -0.305 N
ATOM     15  H3  UNL     1      33.006  29.124  22.860  1.00  0.00     0.172 HD
BRANCH  14  16
HETATM   16  S1  UNL     1      32.487  29.936  20.653  1.00  0.00     0.260 S
HETATM   17  O2  UNL     1      32.786  29.446  19.269  1.00  0.00    -0.200 OA
HETATM   18  O3  UNL     1      31.016  29.844  20.858  1.00  0.00    -0.200 OA
BRANCH  16  19
HETATM   19  C10 UNL     1      33.035  31.588  20.801  1.00  0.00     0.096 A
HETATM   20  C11 UNL     1      33.943  31.918  21.762  1.00  0.00     0.027 A
HETATM   21  C12 UNL     1      34.336  33.255  21.867  1.00  0.00     0.002 A
HETATM   22  C13 UNL     1      33.845  34.214  21.048  1.00  0.00     0.001 A
HETATM   23  C14 UNL     1      32.935  33.852  20.090  1.00  0.00     0.020 A
HETATM   24  C15 UNL     1      32.514  32.525  19.951  1.00  0.00     0.034 A
HETATM   25 BR2  UNL     1      31.259  32.126  18.569  1.00  0.00    -0.049 Br
ENDBRANCH  16  19
ENDBRANCH  14  16
ENDBRANCH  13  14
ENDBRANCH  11  13
ENDBRANCH   9  10
TORSDOF 5
ENDMDL