MODEL 1
REMARK VINA RESULT: -8.157038005      0.000      0.000
REMARK  6 active torsions:
REMARK  status: ('A' for Active; 'I' for Inactive)
REMARK    1  A    between atoms: C1_2  and  C2_3
REMARK       I    between atoms: C1_2  and  N2_16
REMARK    2  A    between atoms: C2_3  and  N1_4
REMARK    3  A    between atoms: N1_4  and  S1_6
REMARK    4  A    between atoms: S1_6  and  C3_9
REMARK    5  A    between atoms: N2_16  and  C9_18
REMARK    6  A    between atoms: N3_23  and  O4_24
ROOT
HETATM    1  O1  UNL     1      33.313  29.014  24.262  1.00  0.00    -0.271 OA
HETATM    2  C1  UNL     1      34.503  29.120  23.886  1.00  0.00     0.240 C
HETATM    3  N2  UNL     1      34.796  29.597  22.599  1.00  0.00    -0.324 N
ATOM      4  H2  UNL     1      35.788  29.653  22.368  1.00  0.00     0.169 HD
ENDROOT
BRANCH   2   5
HETATM    5  C2  UNL     1      35.602  28.734  24.820  1.00  0.00     0.235 C
BRANCH   5   6
HETATM    6  N1  UNL     1      35.239  28.900  26.211  1.00  0.00    -0.307 N
ATOM      7  H1  UNL     1      34.593  28.292  26.714  1.00  0.00     0.172 HD
BRANCH   6   8
HETATM    8  S1  UNL     1      36.042  30.261  26.911  1.00  0.00     0.259 S
HETATM    9  O2  UNL     1      34.957  31.272  27.245  1.00  0.00    -0.201 OA
HETATM   10  O3  UNL     1      36.819  29.875  28.119  1.00  0.00    -0.201 OA
BRANCH   8  11
HETATM   11  C3  UNL     1      37.133  31.024  25.780  1.00  0.00     0.079 A
HETATM   12  C4  UNL     1      38.446  30.599  25.767  1.00  0.00     0.026 A
HETATM   13  C5  UNL     1      39.369  31.159  24.896  1.00  0.00     0.020 A
HETATM   14  C6  UNL     1      38.943  32.143  24.050  1.00  0.00     0.011 A
HETATM   15 BR1  UNL     1      40.228  32.913  22.848  1.00  0.00    -0.051 Br
HETATM   16  C7  UNL     1      37.635  32.586  24.044  1.00  0.00     0.020 A
HETATM   17  C8  UNL     1      36.726  32.019  24.917  1.00  0.00     0.026 A
ENDBRANCH   8  11
ENDBRANCH   6   8
ENDBRANCH   5   6
ENDBRANCH   2   5
BRANCH   3  18
HETATM   18  C9  UNL     1      33.921  30.005  21.585  1.00  0.00     0.052 A
HETATM   19  C10 UNL     1      33.492  31.339  21.618  1.00  0.00     0.034 A
HETATM   20  C11 UNL     1      32.636  31.810  20.659  1.00  0.00     0.042 A
HETATM   21  C12 UNL     1      32.164  31.032  19.645  1.00  0.00     0.108 A
HETATM   22 BR2  UNL     1      30.972  31.740  18.335  1.00  0.00    -0.029 Br
HETATM   23  N3  UNL     1      32.573  29.756  19.613  1.00  0.00    -0.227 N
HETATM   24  C13 UNL     1      33.428  29.256  20.556  1.00  0.00     0.153 A
BRANCH  23  25
HETATM   25  O4  UNL     1      32.125  28.923  18.608  1.00  0.00    -0.282 OA
ATOM     26  H4  UNL     1      31.431  28.300  18.789  1.00  0.00     0.245 HD
ENDBRANCH  23  25
ENDBRANCH   3  18
TORSDOF 6
ENDMDL