MODEL 2
REMARK VINA RESULT: -7.230037193      0.995      1.280
REMARK  8 active torsions:
REMARK  status: ('A' for Active; 'I' for Inactive)
REMARK    1  A    between atoms: C2_2  and  C3_4
REMARK    2  A    between atoms: C3_4  and  O2_5
REMARK    3  A    between atoms: C3_4  and  C4_7
REMARK    4  A    between atoms: C4_7  and  N1_8
REMARK    5  A    between atoms: C4_7  and  C16_29
REMARK       I    between atoms: N1_8  and  C5_10
REMARK    6  A    between atoms: C5_10  and  C6_12
REMARK    7  A    between atoms: C7_13  and  C8_14
REMARK       I    between atoms: C8_14  and  N2_16
REMARK    8  A    between atoms: N2_16  and  C9_18
ROOT
HETATM    1  C6  UNL     1      36.556  27.417  22.207  1.00  0.00     0.116 A
HETATM    2  C7  UNL     1      36.603  28.094  20.857  1.00  0.00     0.117 A
HETATM    3  C14 UNL     1      37.458  26.934  21.138  1.00  0.00     0.059 A
HETATM    4  C15 UNL     1      37.061  25.622  20.464  1.00  0.00     0.034 C
HETATM    5 CL1  UNL     1      39.204  27.167  21.185  1.00  0.00    -0.118 Cl
ENDROOT
BRANCH   1   6
HETATM    6  C5  UNL     1      36.946  28.221  23.353  1.00  0.00     0.225 C
HETATM    7  N1  UNL     1      36.899  29.638  23.457  1.00  0.00    -0.349 N
ATOM      8  H1  UNL     1      36.560  30.184  22.664  1.00  0.00     0.163 HD
HETATM    9  O3  UNL     1      37.381  27.625  24.393  1.00  0.00    -0.273 OA
BRANCH   7  10
HETATM   10  C4  UNL     1      37.330  30.348  24.693  1.00  0.00     0.152 C
BRANCH  10  11
HETATM   11  C3  UNL     1      38.681  30.792  24.501  1.00  0.00     0.112 C
BRANCH  11  12
HETATM   12  C2  UNL     1      39.426  31.212  23.355  1.00  0.00     0.176 C
HETATM   13  C1  UNL     1      39.723  32.614  22.963  1.00  0.00     0.099 C
HETATM   14  O1  UNL     1      39.894  30.358  22.576  1.00  0.00    -0.291 OA
ENDBRANCH  11  12
BRANCH  11  15
HETATM   15  O2  UNL     1      39.417  30.840  25.575  1.00  0.00    -0.359 OA
ATOM     16  H2  UNL     1      38.876  30.935  26.351  1.00  0.00     0.217 HD
ENDBRANCH  11  15
ENDBRANCH  10  11
BRANCH  10  17
HETATM   17  C16 UNL     1      36.264  31.306  25.096  1.00  0.00    -0.025 C
HETATM   18  C17 UNL     1      36.431  32.740  24.814  1.00  0.00     0.017 C
HETATM   19  C18 UNL     1      36.048  31.171  26.618  1.00  0.00     0.017 C
HETATM   20  C19 UNL     1      34.898  30.906  24.511  1.00  0.00     0.017 C
ENDBRANCH  10  17
ENDBRANCH   7  10
ENDBRANCH   1   6
BRANCH   2  21
HETATM   21  C8  UNL     1      35.419  28.008  19.981  1.00  0.00     0.230 C
HETATM   22  O4  UNL     1      35.607  27.715  18.759  1.00  0.00    -0.273 OA
HETATM   23  N2  UNL     1      34.123  28.243  20.491  1.00  0.00    -0.313 N
ATOM     24  H2  UNL     1      33.748  27.603  21.191  1.00  0.00     0.170 HD
BRANCH  23  25
HETATM   25  C9  UNL     1      33.403  29.223  20.111  1.00  0.00     0.107 A
HETATM   26  C10 UNL     1      33.440  30.420  20.760  1.00  0.00     0.050 A
HETATM   27  C11 UNL     1      32.654  31.488  20.334  1.00  0.00     0.024 A
HETATM   28  C12 UNL     1      31.838  31.304  19.243  1.00  0.00     0.026 A
HETATM   29 BR1  UNL     1      30.725  32.716  18.588  1.00  0.00    -0.050 Br
HETATM   30  C13 UNL     1      31.812  30.086  18.599  1.00  0.00     0.108 A
HETATM   31  N3  UNL     1      32.600  29.071  19.052  1.00  0.00    -0.351 N
ATOM     32  H3  UNL     1      32.576  28.172  18.571  1.00  0.00     0.166 HD
ENDBRANCH  23  25
ENDBRANCH   2  21
TORSDOF 8
ENDMDL