MODEL 2
REMARK VINA RESULT: -7.379298767      1.526      1.925
REMARK  7 active torsions:
REMARK  status: ('A' for Active; 'I' for Inactive)
REMARK    1  A    between atoms: C1_2  and  C2_4
REMARK    2  A    between atoms: C2_4  and  C3_5
REMARK    3  A    between atoms: C2_4  and  N2_14
REMARK    4  A    between atoms: C3_5  and  C4_6
REMARK    5  A    between atoms: N1_11  and  O3_12
REMARK    6  A    between atoms: N2_14  and  S1_16
REMARK    7  A    between atoms: S1_16  and  C9_19
ROOT
HETATM    1  C2  UNL     1      35.645  29.798  25.820  1.00  0.00     0.199 C
ENDROOT
BRANCH   1   2
HETATM    2  C1  UNL     1      34.677  29.253  26.794  1.00  0.00     0.197 C
HETATM    3  O1  UNL     1      33.550  29.759  27.027  1.00  0.00    -0.646 OA
HETATM    4  O2  UNL     1      35.006  28.113  27.503  1.00  0.00    -0.646 OA
ENDBRANCH   1   2
BRANCH   1   5
HETATM    5  C3  UNL     1      36.514  30.861  26.387  1.00  0.00     0.096 C
BRANCH   5   6
HETATM    6  C4  UNL     1      37.680  31.282  25.633  1.00  0.00     0.042 A
HETATM    7  C5  UNL     1      38.842  30.542  25.590  1.00  0.00     0.027 A
HETATM    8  C6  UNL     1      39.953  30.954  24.865  1.00  0.00     0.003 A
HETATM    9  C7  UNL     1      39.904  32.139  24.161  1.00  0.00     0.020 A
HETATM   10  C8  UNL     1      38.732  32.859  24.220  1.00  0.00     0.123 A
HETATM   11  N1  UNL     1      37.673  32.438  24.929  1.00  0.00    -0.240 N
BRANCH  11  12
HETATM   12  O3  UNL     1      36.558  33.207  24.934  1.00  0.00    -0.283 OA
ATOM     13  H3  UNL     1      35.888  33.057  24.277  1.00  0.00     0.245 HD
ENDBRANCH  11  12
ENDBRANCH   5   6
ENDBRANCH   1   5
BRANCH   1  14
HETATM   14  N2  UNL     1      34.848  30.470  24.774  1.00  0.00    -0.300 N
ATOM     15  H2  UNL     1      34.222  31.257  24.946  1.00  0.00     0.173 HD
BRANCH  14  16
HETATM   16  S1  UNL     1      35.106  29.765  23.237  1.00  0.00     0.259 S
HETATM   17  O4  UNL     1      36.576  29.946  22.903  1.00  0.00    -0.201 OA
HETATM   18  O5  UNL     1      34.873  28.274  23.255  1.00  0.00    -0.201 OA
BRANCH  16  19
HETATM   19  C9  UNL     1      34.091  30.426  21.990  1.00  0.00     0.080 A
HETATM   20  C10 UNL     1      33.438  29.625  21.092  1.00  0.00     0.027 A
HETATM   21  C11 UNL     1      32.637  30.179  20.115  1.00  0.00     0.022 A
HETATM   22  C12 UNL     1      32.481  31.528  20.026  1.00  0.00     0.028 A
HETATM   23 BR1  UNL     1      31.364  32.285  18.663  1.00  0.00    -0.050 Br
HETATM   24  C13 UNL     1      33.132  32.334  20.921  1.00  0.00     0.029 A
HETATM   25 BR2  UNL     1      32.960  34.233  20.859  1.00  0.00    -0.050 Br
HETATM   26  C14 UNL     1      33.926  31.795  21.890  1.00  0.00     0.045 A
ENDBRANCH  16  19
ENDBRANCH  14  16
ENDBRANCH   1  14
TORSDOF 7
ENDMDL