MODEL 2
REMARK VINA RESULT: -8.370538297      1.763      1.997
REMARK  5 active torsions:
REMARK  status: ('A' for Active; 'I' for Inactive)
REMARK    1  A    between atoms: C2_2  and  C3_3
REMARK       I    between atoms: C3_3  and  N1_5
REMARK    2  A    between atoms: C4_7  and  C5_8
REMARK    3  A    between atoms: C4_7  and  C11_18
REMARK    4  A    between atoms: C5_8  and  C6_9
REMARK       I    between atoms: C11_18  and  N4_20
REMARK    5  A    between atoms: N4_20  and  C12_22
ROOT
HETATM    1  C6  UNL     1      32.479  29.545  20.595  1.00  0.00     0.037 A
HETATM    2  N2  UNL     1      31.707  29.309  19.520  1.00  0.00    -0.366 N
ATOM      3  H2  UNL     1      31.352  28.387  19.266  1.00  0.00     0.165 HD
HETATM    4  C7  UNL     1      31.460  30.423  18.823  1.00  0.00     0.108 A
HETATM    5  C8  UNL     1      32.114  31.432  19.495  1.00  0.00     0.049 A
HETATM    6 BR1  UNL     1      32.158  33.282  19.012  1.00  0.00    -0.048 Br
HETATM    7  C9  UNL     1      32.750  30.920  20.590  1.00  0.00     0.086 A
HETATM    8  C10 UNL     1      33.552  31.611  21.575  1.00  0.00     0.103 C
HETATM    9  N3  UNL     1      34.185  32.183  22.363  1.00  0.00    -0.191 NA
ENDROOT
BRANCH   1  10
HETATM   10  C5  UNL     1      32.966  28.589  21.621  1.00  0.00     0.121 C
BRANCH  10  11
HETATM   11  C4  UNL     1      34.383  28.144  21.358  1.00  0.00     0.086 C
HETATM   12  N1  UNL     1      34.592  27.339  20.387  1.00  0.00    -0.322 N
HETATM   13  C3  UNL     1      35.832  26.825  20.000  1.00  0.00     0.244 C
ATOM     14  H1  UNL     1      33.780  27.045  19.845  1.00  0.00     0.169 HD
HETATM   15  O1  UNL     1      36.215  25.750  20.535  1.00  0.00    -0.268 OA
BRANCH  13  16
HETATM   16  C2  UNL     1      36.709  27.452  19.018  1.00  0.00     0.064 C
HETATM   17  C1  UNL     1      38.014  27.236  19.007  1.00  0.00     0.017 C
ENDBRANCH  13  16
BRANCH  11  18
HETATM   18  C11 UNL     1      35.443  28.636  22.217  1.00  0.00     0.270 C
HETATM   19  O2  UNL     1      36.519  29.042  21.657  1.00  0.00    -0.266 OA
HETATM   20  N4  UNL     1      35.425  28.723  23.610  1.00  0.00    -0.308 N
ATOM     21  H4  UNL     1      35.180  27.872  24.116  1.00  0.00     0.170 HD
BRANCH  20  22
HETATM   22  C12 UNL     1      35.688  29.765  24.325  1.00  0.00     0.108 A
HETATM   23  C13 UNL     1      35.048  30.103  25.478  1.00  0.00     0.049 A
HETATM   24  C14 UNL     1      35.408  31.258  26.174  1.00  0.00     0.007 A
HETATM   25  C15 UNL     1      36.423  32.064  25.685  1.00  0.00     0.037 A
HETATM   26  C16 UNL     1      37.054  31.696  24.514  1.00  0.00     0.081 A
HETATM   27 BR2  UNL     1      38.460  32.813  23.839  1.00  0.00    -0.031 Br
HETATM   28  N5  UNL     1      36.674  30.580  23.883  1.00  0.00    -0.337 N
ATOM     29  H5  UNL     1      37.155  30.327  23.020  1.00  0.00     0.168 HD
ENDBRANCH  20  22
ENDBRANCH  11  18
ENDBRANCH  10  11
ENDBRANCH   1  10
TORSDOF 5
ENDMDL