MODEL 1
REMARK VINA RESULT: -7.981948934      0.000      0.000
REMARK  6 active torsions:
REMARK  status: ('A' for Active; 'I' for Inactive)
REMARK    1  A    between atoms: C1_2  and  C2_4
REMARK    2  A    between atoms: N2_8  and  C6_9
REMARK    3  A    between atoms: C6_9  and  C15_25
REMARK       I    between atoms: N3_10  and  C7_12
REMARK    4  A    between atoms: C7_12  and  C8_14
REMARK    5  A    between atoms: C8_14  and  N4_15
REMARK    6  A    between atoms: C8_14  and  C9_19
ROOT
HETATM    1  C6  UNL     1      35.271  29.260  23.656  1.00  0.00     0.124 C
HETATM    2  N3  UNL     1      34.315  28.922  22.946  1.00  0.00    -0.310 N
ATOM      3  H3  UNL     1      33.665  28.504  23.612  1.00  0.00     0.170 HD
HETATM    4  C7  UNL     1      33.675  28.808  21.776  1.00  0.00     0.254 C
HETATM    5  O2  UNL     1      34.033  27.966  20.854  1.00  0.00    -0.271 OA
ENDROOT
BRANCH   1   6
HETATM    6  N2  UNL     1      35.177  28.981  25.091  1.00  0.00    -0.353 N
HETATM    7  C2  UNL     1      34.735  29.846  26.151  1.00  0.00     0.175 C
HETATM    8  C3  UNL     1      35.098  29.159  27.463  1.00  0.00     0.036 C
HETATM    9  C4  UNL     1      35.339  27.743  27.093  1.00  0.00     0.022 C
HETATM   10  C5  UNL     1      35.486  27.666  25.605  1.00  0.00     0.125 C
BRANCH   7  11
HETATM   11  C1  UNL     1      33.225  29.868  26.172  1.00  0.00     0.254 C
HETATM   12  N1  UNL     1      32.557  30.336  27.325  1.00  0.00    -0.060 NA
HETATM   13  O1  UNL     1      32.619  29.473  25.173  1.00  0.00    -0.275 OA
ENDBRANCH   7  11
ENDBRANCH   1   6
BRANCH   1  14
HETATM   14  C15 UNL     1      36.454  29.876  23.108  1.00  0.00     0.061 C
HETATM   15 BR1  UNL     1      37.489  28.653  21.945  1.00  0.00    -0.046 Br
HETATM   16  C16 UNL     1      36.967  31.056  23.248  1.00  0.00     0.079 C
HETATM   17 BR2  UNL     1      36.382  32.517  24.249  1.00  0.00    -0.062 Br
ENDBRANCH   1  14
BRANCH   4  18
HETATM   18  C8  UNL     1      32.487  29.619  21.403  1.00  0.00     0.279 C
BRANCH  18  19
HETATM   19  N4  UNL     1      32.181  30.488  22.518  1.00  0.00    -0.066 N
ATOM     20  H43 UNL     1      32.640  30.201  23.382  1.00  0.00     0.275 HD
ATOM     21  H42 UNL     1      32.614  31.407  22.434  1.00  0.00     0.275 HD
ATOM     22  H41 UNL     1      31.166  30.534  22.604  1.00  0.00     0.275 HD
ENDBRANCH  18  19
BRANCH  18  23
HETATM   23  C9  UNL     1      32.658  30.511  20.211  1.00  0.00     0.025 C
HETATM   24  C10 UNL     1      32.724  31.925  20.767  1.00  0.00     0.007 C
HETATM   25  C11 UNL     1      32.817  32.978  19.693  1.00  0.00     0.000 C
HETATM   26  C12 UNL     1      31.461  32.917  18.969  1.00  0.00     0.000 C
HETATM   27  C13 UNL     1      31.439  31.574  18.294  1.00  0.00     0.000 C
HETATM   28  C14 UNL     1      31.566  30.404  19.210  1.00  0.00     0.007 C
ENDBRANCH  18  23
ENDBRANCH   4  18
TORSDOF 6
ENDMDL