MODEL 5
REMARK VINA RESULT: -6.332753983      3.359      5.813
REMARK  5 active torsions:
REMARK  status: ('A' for Active; 'I' for Inactive)
REMARK    1  A    between atoms: C2_2  and  N1_5
REMARK       I    between atoms: N1_5  and  C5_7
REMARK    2  A    between atoms: C5_7  and  C6_9
REMARK    3  A    between atoms: C9_12  and  C10_14
REMARK    4  A    between atoms: N2_18  and  S1_19
REMARK    5  A    between atoms: S1_19  and  N3_20
ROOT
HETATM    1  C6  UNL     1      35.739  28.910  22.474  1.00  0.00     0.096 C
HETATM    2  C7  UNL     1      36.703  28.286  21.522  1.00  0.00     0.052 C
HETATM    3  C8  UNL     1      35.992  27.499  20.460  1.00  0.00    -0.048 C
HETATM    4  C9  UNL     1      36.351  26.255  20.213  1.00  0.00     0.015 C
HETATM    5 BR1  UNL     1      37.783  25.508  21.241  1.00  0.00    -0.051 Br
HETATM    6  C12 UNL     1      34.909  28.233  19.765  1.00  0.00     0.144 C
HETATM    7  N2  UNL     1      34.035  28.775  20.784  1.00  0.00    -0.189 NA
HETATM    8  C13 UNL     1      34.699  29.678  21.681  1.00  0.00     0.123 C
ENDROOT
BRANCH   1   9
HETATM    9  C5  UNL     1      36.401  29.856  23.375  1.00  0.00     0.224 C
HETATM   10  N1  UNL     1      35.992  31.206  23.440  1.00  0.00    -0.353 N
ATOM     11  H1  UNL     1      35.223  31.512  22.844  1.00  0.00     0.163 HD
HETATM   12  O1  UNL     1      37.343  29.457  24.098  1.00  0.00    -0.273 OA
BRANCH  10  13
HETATM   13  C2  UNL     1      36.617  32.175  24.317  1.00  0.00     0.022 C
HETATM   14  C1  UNL     1      36.229  33.583  23.948  1.00  0.00     0.037 C
HETATM   15  C3  UNL     1      36.136  31.872  25.733  1.00  0.00     0.037 C
HETATM   16  C4  UNL     1      38.128  32.076  24.271  1.00  0.00     0.037 C
ENDBRANCH  10  13
ENDBRANCH   1   9
BRANCH   7  17
HETATM   17  S1  UNL     1      32.662  29.560  20.121  1.00  0.00     0.297 S
HETATM   18  O2  UNL     1      32.839  31.046  20.059  1.00  0.00    -0.189 OA
HETATM   19  O3  UNL     1      31.488  29.265  21.006  1.00  0.00    -0.189 OA
BRANCH  17  20
HETATM   20  N3  UNL     1      32.278  28.980  18.546  1.00  0.00    -0.316 N
ATOM     21  H32 UNL     1      32.685  28.132  18.151  1.00  0.00     0.170 HD
ATOM     22  H31 UNL     1      31.606  29.579  18.068  1.00  0.00     0.170 HD
ENDBRANCH  17  20
ENDBRANCH   7  17
BRANCH   4  23
HETATM   23  C10 UNL     1      35.728  25.427  19.214  1.00  0.00     0.027 C
HETATM   24  C11 UNL     1      35.940  24.130  19.184  1.00  0.00     0.057 C
HETATM   25 BR2  UNL     1      35.152  22.976  17.895  1.00  0.00    -0.064 Br
ENDBRANCH   4  23
TORSDOF 5
ENDMDL