MODEL 5
REMARK VINA RESULT: -6.286818500      1.592      1.874
REMARK  5 active torsions:
REMARK  status: ('A' for Active; 'I' for Inactive)
REMARK    1  A    between atoms: C2_2  and  N1_3
REMARK    2  A    between atoms: C2_2  and  C10_18
REMARK    3  A    between atoms: C10_18  and  C11_20
REMARK    4  A    between atoms: C11_20  and  C12_22
REMARK    5  A    between atoms: C12_22  and  C15_25
ROOT
HETATM    1  N1  UNL     1      35.130  29.122  21.865  1.00  0.00    -0.374 N
ATOM      2  H1  UNL     1      35.746  29.919  22.029  1.00  0.00     0.161 HD
HETATM    3  C3  UNL     1      35.592  28.192  21.139  1.00  0.00     0.074 C
HETATM    4  C4  UNL     1      36.976  28.335  20.594  1.00  0.00     0.093 C
HETATM    5  C5  UNL     1      37.584  26.930  20.656  1.00  0.00     0.079 C
HETATM    6  S1  UNL     1      39.347  27.086  20.291  1.00  0.00    -0.152 SA
HETATM    7  C6  UNL     1      39.526  27.355  18.517  1.00  0.00     0.177 C
HETATM    8  C7  UNL     1      38.384  26.685  17.843  1.00  0.00     0.227 C
HETATM    9  O1  UNL     1      38.236  26.941  16.607  1.00  0.00    -0.273 OA
HETATM   10  N2  UNL     1      37.479  25.811  18.461  1.00  0.00    -0.353 N
ATOM     11  H2  UNL     1      37.215  24.978  17.934  1.00  0.00     0.163 HD
HETATM   12  C8  UNL     1      36.885  25.965  19.760  1.00  0.00     0.116 C
HETATM   13  C9  UNL     1      35.392  26.250  19.666  1.00  0.00     0.147 C
HETATM   14  N3  UNL     1      34.900  26.998  20.788  1.00  0.00    -0.378 N
ATOM     15  H3  UNL     1      34.084  26.687  21.315  1.00  0.00     0.160 HD
ENDROOT
BRANCH   1  16
HETATM   16  C2  UNL     1      33.841  29.179  22.478  1.00  0.00     0.100 C
HETATM   17  C1  UNL     1      32.829  29.670  21.492  1.00  0.00     0.034 C
BRANCH  16  18
HETATM   18  C10 UNL     1      33.949  30.145  23.684  1.00  0.00     0.150 C
HETATM   19 BR1  UNL     1      35.506  31.296  23.252  1.00  0.00    -0.081 Br
BRANCH  18  20
HETATM   20  C11 UNL     1      34.342  29.378  24.852  1.00  0.00     0.151 C
HETATM   21  O2  UNL     1      34.931  28.290  24.557  1.00  0.00    -0.296 OA
BRANCH  20  22
HETATM   22  C12 UNL     1      34.207  29.581  26.275  1.00  0.00     0.023 C
HETATM   23  C13 UNL     1      32.751  29.894  26.620  1.00  0.00     0.024 C
HETATM   24  C14 UNL     1      34.972  30.847  26.732  1.00  0.00     0.024 C
BRANCH  22  25
HETATM   25  C15 UNL     1      34.725  28.463  27.108  1.00  0.00     0.101 C
HETATM   26 BR2  UNL     1      36.572  28.721  27.531  1.00  0.00    -0.095 Br
ENDBRANCH  22  25
ENDBRANCH  20  22
ENDBRANCH  18  20
ENDBRANCH  16  18
ENDBRANCH   1  16
TORSDOF 5
ENDMDL