MODEL 4
REMARK VINA RESULT: -6.989230776      1.951      3.989
REMARK  5 active torsions:
REMARK  status: ('A' for Active; 'I' for Inactive)
REMARK    1  A    between atoms: C1_2  and  C2_4
REMARK    2  A    between atoms: C2_4  and  N1_5
REMARK       I    between atoms: N1_5  and  C3_7
REMARK    3  A    between atoms: C3_7  and  C4_9
REMARK    4  A    between atoms: C10_16  and  C11_17
REMARK    5  A    between atoms: C11_17  and  C12_19
ROOT
HETATM    1  C4  UNL     1      35.997  29.982  23.409  1.00  0.00     0.081 C
HETATM    2  C5  UNL     1      36.501  28.875  22.484  1.00  0.00     0.026 C
HETATM    3  C6  UNL     1      37.766  28.241  22.947  1.00  0.00    -0.007 C
HETATM    4  C7  UNL     1      38.782  29.289  23.343  1.00  0.00     0.041 C
HETATM    5  C8  UNL     1      38.084  30.157  24.400  1.00  0.00     0.228 C
HETATM    6  C9  UNL     1      37.103  31.011  23.619  1.00  0.00     0.057 C
HETATM    7  N2  UNL     1      37.271  29.378  25.271  1.00  0.00     0.137 N
HETATM    8  C10 UNL     1      35.901  29.373  24.772  1.00  0.00     0.313 C
HETATM    9  C15 UNL     1      37.681  28.013  25.430  1.00  0.00     0.274 C
HETATM   10 BR1  UNL     1      39.380  27.802  26.276  1.00  0.00    -0.038 Br
HETATM   11 BR2  UNL     1      36.347  27.156  26.574  1.00  0.00    -0.038 Br
HETATM   12  C16 UNL     1      37.608  27.278  24.086  1.00  0.00     0.071 C
ENDROOT
BRANCH   1  13
HETATM   13  C3  UNL     1      34.801  30.549  22.831  1.00  0.00     0.229 C
HETATM   14  N1  UNL     1      33.632  29.871  22.399  1.00  0.00    -0.350 N
ATOM     15  H1  UNL     1      33.620  28.856  22.499  1.00  0.00     0.163 HD
HETATM   16  O3  UNL     1      34.754  31.818  22.674  1.00  0.00    -0.273 OA
BRANCH  14  17
HETATM   17  C2  UNL     1      32.476  30.482  21.841  1.00  0.00     0.235 C
BRANCH  17  18
HETATM   18  C1  UNL     1      32.390  30.497  20.374  1.00  0.00     0.191 C
HETATM   19  O1  UNL     1      32.203  29.508  19.627  1.00  0.00    -0.647 OA
HETATM   20  O2  UNL     1      32.540  31.768  19.780  1.00  0.00    -0.647 OA
ENDBRANCH  17  18
ENDBRANCH  14  17
ENDBRANCH   1  13
BRANCH   8  21
HETATM   21  C11 UNL     1      35.063  30.073  25.747  1.00  0.00     0.165 C
HETATM   22  O4  UNL     1      35.386  31.185  26.127  1.00  0.00    -0.295 OA
BRANCH  21  23
HETATM   23  C12 UNL     1      33.797  29.465  26.306  1.00  0.00     0.058 A
HETATM   24  C13 UNL     1      32.971  30.395  27.148  1.00  0.00     0.013 A
HETATM   25  C14 UNL     1      32.490  29.993  25.773  1.00  0.00     0.013 A
ENDBRANCH  21  23
ENDBRANCH   8  21
TORSDOF 5
ENDMDL