MODEL 4
REMARK VINA RESULT: -7.386977522      2.710      6.861
REMARK  4 active torsions:
REMARK  status: ('A' for Active; 'I' for Inactive)
REMARK    1  A    between atoms: C1_2  and  C2_4
REMARK    2  A    between atoms: C8_10  and  N2_11
REMARK       I    between atoms: N2_11  and  C9_13
REMARK    3  A    between atoms: C9_13  and  C10_15
REMARK    4  A    between atoms: N3_20  and  C14_21
ROOT
HETATM    1  N2  UNL     1      34.160  30.961  22.877  1.00  0.00    -0.353 N
ATOM      2  H2  UNL     1      33.646  31.606  23.477  1.00  0.00     0.163 HD
HETATM    3  C9  UNL     1      33.682  30.665  21.597  1.00  0.00     0.240 C
HETATM    4  O2  UNL     1      34.319  29.880  20.846  1.00  0.00    -0.271 OA
ENDROOT
BRANCH   1   5
HETATM    5  C8  UNL     1      35.377  30.354  23.346  1.00  0.00     0.107 C
HETATM    6  C6  UNL     1      35.038  28.938  23.897  1.00  0.00     0.011 C
HETATM    7  C5  UNL     1      34.216  29.113  25.131  1.00  0.00     0.011 C
HETATM    8  C7  UNL     1      36.341  28.253  24.102  1.00  0.00     0.025 C
HETATM    9  C4  UNL     1      35.087  29.752  26.193  1.00  0.00    -0.011 C
HETATM   10  C3  UNL     1      36.376  29.028  26.397  1.00  0.00     0.023 C
HETATM   11  C20 UNL     1      35.390  31.149  25.714  1.00  0.00     0.027 C
HETATM   12  C2  UNL     1      37.160  29.044  25.115  1.00  0.00     0.041 C
HETATM   13  C21 UNL     1      37.437  30.432  24.657  1.00  0.00     0.042 C
HETATM   14  C19 UNL     1      36.108  31.111  24.375  1.00  0.00     0.040 C
HETATM   15 BR1  UNL     1      36.468  32.925  23.829  1.00  0.00    -0.083 Br
BRANCH  12  16
HETATM   16  C1  UNL     1      38.440  28.300  25.213  1.00  0.00     0.239 C
HETATM   17  N1  UNL     1      38.537  26.901  25.103  1.00  0.00    -0.061 NA
HETATM   18  O1  UNL     1      39.484  29.016  25.406  1.00  0.00    -0.276 OA
ENDBRANCH  12  16
ENDBRANCH   1   5
BRANCH   3  19
HETATM   19  C10 UNL     1      32.402  31.269  21.102  1.00  0.00     0.174 C
HETATM   20  C11 UNL     1      31.483  30.122  20.757  1.00  0.00     0.073 C
HETATM   21  C12 UNL     1      31.471  30.094  19.234  1.00  0.00     0.190 C
HETATM   22  F1  UNL     1      32.331  29.162  18.731  1.00  0.00    -0.248 F
HETATM   23  C13 UNL     1      31.818  31.514  18.851  1.00  0.00     0.155 C
HETATM   24  N3  UNL     1      32.564  32.043  19.929  1.00  0.00    -0.393 N
BRANCH  24  25
HETATM   25  C14 UNL     1      32.762  33.422  19.999  1.00  0.00     0.080 C
HETATM   26  C15 UNL     1      32.347  34.052  21.310  1.00  0.00     0.025 C
HETATM   27  C16 UNL     1      33.597  34.556  21.969  1.00  0.00     0.002 C
HETATM   28  C17 UNL     1      34.775  34.118  21.143  1.00  0.00     0.002 C
HETATM   29  C18 UNL     1      34.189  33.876  19.791  1.00  0.00     0.025 C
ENDBRANCH  24  25
ENDBRANCH   3  19
TORSDOF 4
ENDMDL