MODEL 3
REMARK VINA RESULT: -7.400032199      0.168      1.475
REMARK  4 active torsions:
REMARK  status: ('A' for Active; 'I' for Inactive)
REMARK    1  A    between atoms: C1_2  and  C2_3
REMARK       I    between atoms: C1_2  and  N2_18
REMARK    2  A    between atoms: C2_3  and  N1_4
REMARK       I    between atoms: N1_4  and  C3_6
REMARK    3  A    between atoms: C3_6  and  C4_8
REMARK    4  A    between atoms: N2_18  and  C14_20
ROOT
HETATM    1  C2  UNL     1      35.893  24.723  27.262  1.00  0.00     0.225 C
ENDROOT
BRANCH   1   2
HETATM    2  C1  UNL     1      35.670  24.302  28.655  1.00  0.00     0.236 C
HETATM    3  O1  UNL     1      34.617  24.618  29.236  1.00  0.00    -0.272 OA
HETATM    4  N2  UNL     1      36.645  23.543  29.330  1.00  0.00    -0.342 N
ATOM      5  H2  UNL     1      37.498  23.301  28.825  1.00  0.00     0.163 HD
BRANCH   4   6
HETATM    6  C14 UNL     1      36.512  23.086  30.693  1.00  0.00     0.211 C
HETATM    7  C15 UNL     1      37.357  21.924  31.051  1.00  0.00     0.046 C
HETATM    8  C16 UNL     1      38.290  22.228  32.150  1.00  0.00     0.075 C
HETATM    9  C17 UNL     1      37.662  23.219  33.107  1.00  0.00     0.263 C
HETATM   10  F1  UNL     1      36.663  22.567  33.798  1.00  0.00    -0.213 F
HETATM   11 BR1  UNL     1      38.934  24.092  34.218  1.00  0.00    -0.031 Br
HETATM   12  S1  UNL     1      36.954  24.336  31.882  1.00  0.00     0.213 S
HETATM   13  O3  UNL     1      35.787  25.066  32.410  1.00  0.00    -0.221 OA
HETATM   14  O4  UNL     1      38.032  25.187  31.337  1.00  0.00    -0.221 OA
ENDBRANCH   4   6
ENDBRANCH   1   2
BRANCH   1  15
HETATM   15  N1  UNL     1      35.419  26.090  27.042  1.00  0.00    -0.352 N
HETATM   16  C3  UNL     1      35.943  26.923  26.045  1.00  0.00     0.226 C
HETATM   17  O2  UNL     1      36.856  26.504  25.300  1.00  0.00    -0.273 OA
ATOM     18  H1  UNL     1      34.675  26.450  27.639  1.00  0.00     0.162 HD
BRANCH  16  19
HETATM   19  C4  UNL     1      35.429  28.296  25.864  1.00  0.00     0.042 C
HETATM   20  C5  UNL     1      34.551  28.600  27.084  1.00  0.00     0.024 C
HETATM   21  C6  UNL     1      34.009  30.003  27.026  1.00  0.00    -0.013 C
HETATM   22  C7  UNL     1      33.161  30.123  25.790  1.00  0.00     0.009 C
HETATM   23  C11 UNL     1      35.168  30.978  26.982  1.00  0.00     0.009 C
HETATM   24  C8  UNL     1      34.015  29.826  24.583  1.00  0.00    -0.013 C
HETATM   25  C9  UNL     1      35.101  30.853  24.516  1.00  0.00     0.009 C
HETATM   26  C13 UNL     1      34.578  28.429  24.630  1.00  0.00     0.024 C
HETATM   27  C10 UNL     1      35.978  30.685  25.739  1.00  0.00    -0.013 C
HETATM   28  C12 UNL     1      36.556  29.310  25.822  1.00  0.00     0.024 C
ENDBRANCH  16  19
ENDBRANCH   1  15
TORSDOF 4
ENDMDL