MODEL 1
REMARK VINA RESULT: -8.439919307      0.000      0.000
REMARK  5 active torsions:
REMARK  status: ('A' for Active; 'I' for Inactive)
REMARK       I    between atoms: C1_2  and  N1_3
REMARK    1  A    between atoms: C1_2  and  C13_18
REMARK    2  A    between atoms: N1_3  and  C2_5
REMARK    3  A    between atoms: C2_5  and  C3_6
REMARK       I    between atoms: C3_6  and  N2_8
REMARK       I    between atoms: C13_18  and  N3_20
REMARK    4  A    between atoms: N3_20  and  C14_21
REMARK    5  A    between atoms: C14_21  and  C15_22
ROOT
HETATM    1  O1  UNL     1      35.165  27.837  27.369  1.00  0.00    -0.261 OA
HETATM    2  C1  UNL     1      36.279  28.313  27.626  1.00  0.00     0.324 C
HETATM    3  N1  UNL     1      36.500  29.699  27.547  1.00  0.00    -0.343 N
ATOM      4  H1  UNL     1      37.419  30.084  27.762  1.00  0.00     0.163 HD
ENDROOT
BRANCH   2   5
HETATM    5  C13 UNL     1      37.366  27.375  28.016  1.00  0.00     0.383 C
HETATM    6  O3  UNL     1      38.540  27.855  27.939  1.00  0.00    -0.246 OA
HETATM    7  N3  UNL     1      37.010  26.117  28.414  1.00  0.00    -0.379 NA
BRANCH   7   8
HETATM    8  C14 UNL     1      36.656  24.862  28.810  1.00  0.00     0.175 C
BRANCH   8   9
HETATM    9  C15 UNL     1      37.234  24.229  30.042  1.00  0.00     0.071 C
HETATM   10  C16 UNL     1      38.006  25.238  30.895  1.00  0.00     0.027 C
HETATM   11  C17 UNL     1      38.747  24.485  31.964  1.00  0.00    -0.012 C
HETATM   12  C18 UNL     1      39.716  23.454  31.415  1.00  0.00     0.009 C
HETATM   13  C22 UNL     1      37.716  23.801  32.860  1.00  0.00     0.015 C
HETATM   14  C19 UNL     1      38.947  22.462  30.602  1.00  0.00    -0.012 C
HETATM   15  C20 UNL     1      37.942  21.745  31.479  1.00  0.00     0.015 C
HETATM   16  C24 UNL     1      38.261  23.215  29.499  1.00  0.00     0.027 C
HETATM   17  C21 UNL     1      37.002  22.769  32.010  1.00  0.00     0.060 C
HETATM   18  C23 UNL     1      36.259  23.489  30.882  1.00  0.00     0.260 C
HETATM   19  F1  UNL     1      35.561  22.602  30.124  1.00  0.00    -0.205 F
HETATM   20  F2  UNL     1      35.390  24.345  31.583  1.00  0.00    -0.205 F
ENDBRANCH   8   9
ENDBRANCH   7   8
ENDBRANCH   2   5
BRANCH   3  21
HETATM   21  C2  UNL     1      35.431  30.567  27.164  1.00  0.00     0.226 C
BRANCH  21  22
HETATM   22  C3  UNL     1      35.635  31.217  25.858  1.00  0.00     0.237 C
HETATM   23  O2  UNL     1      36.468  32.150  25.748  1.00  0.00    -0.272 OA
HETATM   24  N2  UNL     1      34.903  30.800  24.743  1.00  0.00    -0.350 N
HETATM   25  C4  UNL     1      35.084  31.457  23.473  1.00  0.00     0.131 C
HETATM   26  C9  UNL     1      33.972  29.709  24.861  1.00  0.00     0.131 C
HETATM   27  C5  UNL     1      35.005  30.486  22.315  1.00  0.00     0.012 C
HETATM   28  C6  UNL     1      36.067  29.405  22.511  1.00  0.00     0.007 C
HETATM   29  C10 UNL     1      33.752  29.691  22.413  1.00  0.00    -0.030 A
HETATM   30  C7  UNL     1      35.405  28.365  23.415  1.00  0.00     0.007 C
HETATM   31  C8  UNL     1      33.980  28.827  23.626  1.00  0.00     0.012 C
HETATM   32  C11 UNL     1      32.416  30.203  22.063  1.00  0.00     0.011 A
HETATM   33  C12 UNL     1      33.085  29.086  21.255  1.00  0.00     0.011 A
ENDBRANCH  21  22
ENDBRANCH   3  21
TORSDOF 5
ENDMDL