MODEL 1
REMARK VINA RESULT: -8.078765480      0.000      0.000
REMARK  5 active torsions:
REMARK  status: ('A' for Active; 'I' for Inactive)
REMARK    1  A    between atoms: N1_8  and  C8_9
REMARK    2  A    between atoms: C8_9  and  C9_10
REMARK    3  A    between atoms: C8_9  and  C21_26
REMARK       I    between atoms: C9_10  and  N2_12
REMARK    4  A    between atoms: N2_12  and  C10_14
REMARK    5  A    between atoms: C10_14  and  C11_15
ROOT
HETATM    1  C1  UNL     1      33.629  31.481  21.893  1.00  0.00     0.023 C
HETATM    2  C2  UNL     1      34.195  30.221  22.464  1.00  0.00     0.014 C
HETATM    3  C3  UNL     1      33.163  29.095  22.276  1.00  0.00     0.023 C
HETATM    4  C4  UNL     1      35.461  29.759  21.926  1.00  0.00     0.047 C
HETATM    5  C5  UNL     1      36.382  29.436  23.102  1.00  0.00     0.029 C
HETATM    6  C6  UNL     1      36.278  27.914  23.273  1.00  0.00     0.038 C
HETATM    7  C7  UNL     1      37.728  29.844  22.626  1.00  0.00     0.038 C
HETATM    8  N1  UNL     1      35.818  30.091  24.233  1.00  0.00    -0.342 N
HETATM    9  C22 UNL     1      34.422  30.284  23.942  1.00  0.00     0.098 C
HETATM   10  N3  UNL     1      33.389  30.486  24.658  1.00  0.00    -0.282 N
ATOM     11  H3  UNL     1      32.549  30.575  24.086  1.00  0.00     0.179 HD
HETATM   12  C23 UNL     1      33.110  30.612  25.957  1.00  0.00     0.183 C
HETATM   13  N4  UNL     1      32.845  30.728  27.075  1.00  0.00    -0.172 NA
ENDROOT
BRANCH   8  14
HETATM   14  C8  UNL     1      36.290  30.550  25.491  1.00  0.00     0.235 C
BRANCH  14  15
HETATM   15  C9  UNL     1      36.943  31.884  25.356  1.00  0.00     0.246 C
HETATM   16  O1  UNL     1      36.329  32.880  25.820  1.00  0.00    -0.271 OA
HETATM   17  N2  UNL     1      38.202  32.089  24.742  1.00  0.00    -0.358 N
ATOM     18  H2  UNL     1      38.712  31.290  24.363  1.00  0.00     0.162 HD
BRANCH  17  19
HETATM   19  C10 UNL     1      38.775  33.411  24.644  1.00  0.00     0.132 C
BRANCH  19  20
HETATM   20  C11 UNL     1      40.168  33.403  24.112  1.00  0.00    -0.022 C
HETATM   21  C12 UNL     1      40.128  33.139  22.620  1.00  0.00     0.016 C
HETATM   22  C13 UNL     1      41.535  32.983  22.134  1.00  0.00    -0.012 C
HETATM   23  C14 UNL     1      42.294  31.902  22.851  1.00  0.00     0.009 C
HETATM   24  C18 UNL     1      42.267  34.301  22.355  1.00  0.00     0.030 C
HETATM   25  C15 UNL     1      42.347  32.221  24.321  1.00  0.00    -0.012 C
HETATM   26  C16 UNL     1      43.067  33.544  24.536  1.00  0.00     0.030 C
HETATM   27  C20 UNL     1      40.949  32.327  24.844  1.00  0.00     0.016 C
HETATM   28  C17 UNL     1      42.272  34.615  23.821  1.00  0.00     0.038 C
HETATM   29 CL1  UNL     1      43.083  36.161  24.084  1.00  0.00    -0.119 Cl
HETATM   30  C19 UNL     1      40.867  34.710  24.352  1.00  0.00     0.036 C
ENDBRANCH  19  20
ENDBRANCH  17  19
ENDBRANCH  14  15
BRANCH  14  31
HETATM   31  C21 UNL     1      37.237  29.745  26.279  1.00  0.00     0.113 C
HETATM   32 CL2  UNL     1      38.253  30.617  27.433  1.00  0.00    -0.073 Cl
HETATM   33 CL3  UNL     1      36.737  28.145  26.780  1.00  0.00    -0.073 Cl
ENDBRANCH  14  31
ENDBRANCH   8  14
TORSDOF 5
ENDMDL