MODEL 5
REMARK VINA RESULT: -9.430728206      1.011      1.842
REMARK  6 active torsions:
REMARK  status: ('A' for Active; 'I' for Inactive)
REMARK       I    between atoms: C1_2  and  N1_3
REMARK    1  A    between atoms: C1_2  and  C12_15
REMARK    2  A    between atoms: N1_3  and  C2_5
REMARK       I    between atoms: N2_18  and  C15_19
REMARK    3  A    between atoms: C15_19  and  O3_21
REMARK    4  A    between atoms: O3_21  and  C16_22
REMARK    5  A    between atoms: C16_22  and  C17_23
REMARK    6  A    between atoms: C20_26  and  C21_27
ROOT
HETATM    1  C12 UNL     1      36.426  27.557  26.451  1.00  0.00     0.081 C
HETATM    2  C13 UNL     1      37.850  28.132  26.403  1.00  0.00     0.034 C
HETATM    3  C14 UNL     1      37.957  28.886  25.100  1.00  0.00     0.129 C
HETATM    4  N2  UNL     1      36.772  29.727  25.035  1.00  0.00    -0.328 N
HETATM    5  C15 UNL     1      36.316  30.176  23.790  1.00  0.00     0.363 C
HETATM    6  O2  UNL     1      36.888  29.840  22.715  1.00  0.00    -0.238 OA
HETATM    7  C26 UNL     1      36.108  30.003  26.287  1.00  0.00     0.129 C
HETATM    8  C27 UNL     1      35.484  28.657  26.746  1.00  0.00     0.034 C
ENDROOT
BRANCH   5   9
HETATM    9  O3  UNL     1      35.218  30.996  23.730  1.00  0.00    -0.288 OA
BRANCH   9  10
HETATM   10  C16 UNL     1      33.960  30.603  23.321  1.00  0.00     0.100 A
HETATM   11  C24 UNL     1      32.991  30.351  24.468  1.00  0.00     0.047 A
HETATM   12  C25 UNL     1      33.583  29.196  23.766  1.00  0.00     0.047 A
BRANCH  10  13
HETATM   13  C17 UNL     1      33.347  31.082  22.055  1.00  0.00    -0.023 A
HETATM   14  C18 UNL     1      32.377  30.299  21.426  1.00  0.00     0.011 A
HETATM   15  C19 UNL     1      31.755  30.710  20.266  1.00  0.00     0.017 A
HETATM   16  C20 UNL     1      32.078  31.935  19.694  1.00  0.00     0.047 A
HETATM   17  C22 UNL     1      33.019  32.709  20.298  1.00  0.00     0.017 A
HETATM   18  C23 UNL     1      33.652  32.280  21.469  1.00  0.00     0.011 A
BRANCH  16  19
HETATM   19  C21 UNL     1      31.358  32.388  18.450  1.00  0.00     0.417 C
HETATM   20  F1  UNL     1      30.056  32.624  18.795  1.00  0.00    -0.166 F
HETATM   21  F2  UNL     1      31.435  31.435  17.444  1.00  0.00    -0.166 F
HETATM   22  F3  UNL     1      31.920  33.570  18.066  1.00  0.00    -0.166 F
ENDBRANCH  16  19
ENDBRANCH  10  13
ENDBRANCH   9  10
ENDBRANCH   5   9
BRANCH   1  23
HETATM   23  C1  UNL     1      36.379  26.332  27.267  1.00  0.00     0.226 C
HETATM   24  O1  UNL     1      35.281  25.762  27.415  1.00  0.00    -0.273 OA
HETATM   25  N1  UNL     1      37.534  25.822  27.864  1.00  0.00    -0.333 N
ATOM     26  H1  UNL     1      38.356  26.400  27.686  1.00  0.00     0.168 HD
BRANCH  25  27
HETATM   27  C2  UNL     1      37.827  24.702  28.649  1.00  0.00    -0.002 C
HETATM   28  C3  UNL     1      37.278  24.513  30.017  1.00  0.00     0.032 C
HETATM   29  C4  UNL     1      36.026  23.690  30.124  1.00  0.00     0.015 C
HETATM   30  C8  UNL     1      38.354  23.689  30.797  1.00  0.00     0.015 C
HETATM   31  C5  UNL     1      36.135  22.359  29.474  1.00  0.00    -0.013 C
HETATM   32  C6  UNL     1      37.233  21.540  30.140  1.00  0.00     0.009 C
HETATM   33  C11 UNL     1      36.584  22.571  28.042  1.00  0.00     0.015 C
HETATM   34  C7  UNL     1      38.509  22.361  30.103  1.00  0.00    -0.013 C
HETATM   35  C9  UNL     1      38.912  22.556  28.650  1.00  0.00     0.015 C
HETATM   36  C10 UNL     1      37.826  23.380  27.926  1.00  0.00     0.032 C
ENDBRANCH  25  27
ENDBRANCH   1  23
TORSDOF 6
ENDMDL