MODEL 5
REMARK VINA RESULT: -8.521642204      1.647      1.967
REMARK  5 active torsions:
REMARK  status: ('A' for Active; 'I' for Inactive)
REMARK       I    between atoms: N1_2  and  C2_4
REMARK    1  A    between atoms: C2_4  and  C3_6
REMARK    2  A    between atoms: C20_24  and  C21_25
REMARK    3  A    between atoms: C21_25  and  C22_26
REMARK    4  A    between atoms: C21_25  and  C27_32
REMARK    5  A    between atoms: C22_26  and  N2_27
ROOT
HETATM    1  C3  UNL     1      36.176  29.891  26.271  1.00  0.00     0.086 C
HETATM    2  C4  UNL     1      37.231  30.337  27.257  1.00  0.00     0.049 C
HETATM    3  C5  UNL     1      38.550  30.529  26.611  1.00  0.00    -0.067 C
HETATM    4  C6  UNL     1      39.636  30.072  27.179  1.00  0.00     0.053 C
HETATM    5  C7  UNL     1      40.925  30.266  26.537  1.00  0.00     0.149 C
HETATM    6  O2  UNL     1      41.899  29.496  26.715  1.00  0.00    -0.293 OA
HETATM    7  C8  UNL     1      41.031  31.463  25.630  1.00  0.00     0.084 C
HETATM    8  C9  UNL     1      39.904  31.254  24.624  1.00  0.00     0.022 C
HETATM    9  C10 UNL     1      38.573  31.246  25.332  1.00  0.00    -0.016 C
HETATM   10  C11 UNL     1      38.193  32.686  25.564  1.00  0.00     0.020 C
HETATM   11  C12 UNL     1      37.566  30.542  24.434  1.00  0.00     0.003 C
HETATM   12  C13 UNL     1      37.726  30.922  23.004  1.00  0.00     0.007 C
HETATM   13  C14 UNL     1      36.746  30.091  22.205  1.00  0.00     0.010 C
HETATM   14  C15 UNL     1      35.396  30.569  22.580  1.00  0.00    -0.036 C
HETATM   15  C16 UNL     1      35.303  32.055  22.418  1.00  0.00     0.016 C
HETATM   16  C17 UNL     1      35.126  30.203  24.069  1.00  0.00    -0.001 C
HETATM   17  C18 UNL     1      33.766  30.814  24.169  1.00  0.00     0.006 C
HETATM   18  C19 UNL     1      33.129  30.428  22.817  1.00  0.00     0.006 C
HETATM   19  C20 UNL     1      34.257  29.777  22.040  1.00  0.00     0.008 C
HETATM   20  C28 UNL     1      36.172  30.708  24.993  1.00  0.00     0.009 C
ENDROOT
BRANCH  19  21
HETATM   21  C21 UNL     1      34.084  29.653  20.591  1.00  0.00     0.126 C
BRANCH  21  22
HETATM   22  C22 UNL     1      32.705  29.753  20.103  1.00  0.00     0.286 C
BRANCH  22  23
HETATM   23  N2  UNL     1      32.460  30.850  19.178  1.00  0.00     0.089 N
HETATM   24  C23 UNL     1      30.984  30.916  19.079  1.00  0.00     0.272 C
HETATM   25  C24 UNL     1      30.778  32.258  18.431  1.00  0.00     0.032 C
HETATM   26  C25 UNL     1      31.996  33.070  18.818  1.00  0.00     0.032 C
HETATM   27  C26 UNL     1      32.697  32.138  19.804  1.00  0.00     0.272 C
ENDBRANCH  22  23
ENDBRANCH  21  22
BRANCH  21  28
HETATM   28  C27 UNL     1      34.858  28.462  20.070  1.00  0.00     0.393 C
HETATM   29  F1  UNL     1      34.827  27.393  20.945  1.00  0.00    -0.171 F
HETATM   30  F2  UNL     1      34.386  28.014  18.854  1.00  0.00    -0.171 F
HETATM   31  F3  UNL     1      36.204  28.714  19.885  1.00  0.00    -0.171 F
ENDBRANCH  21  28
ENDBRANCH  19  21
BRANCH   1  32
HETATM   32  C2  UNL     1      34.866  29.832  26.951  1.00  0.00     0.222 C
HETATM   33  N1  UNL     1      34.118  31.021  27.105  1.00  0.00    -0.365 N
HETATM   34  C1  UNL     1      32.829  30.996  27.767  1.00  0.00     0.149 C
ATOM     35  H1  UNL     1      34.488  31.902  26.747  1.00  0.00     0.161 HD
HETATM   36  O1  UNL     1      34.456  28.718  27.377  1.00  0.00    -0.273 OA
ENDBRANCH   1  32
TORSDOF 5
ENDMDL