MODEL 5
REMARK VINA RESULT: -8.526264889      0.577      1.052
REMARK  7 active torsions:
REMARK  status: ('A' for Active; 'I' for Inactive)
REMARK    1  A    between atoms: C4_4  and  C5_5
REMARK    2  A    between atoms: C5_5  and  C6_6
REMARK    3  A    between atoms: C6_6  and  N1_7
REMARK    4  A    between atoms: N1_7  and  C7_8
REMARK    5  A    between atoms: N1_7  and  C29_33
REMARK    6  A    between atoms: C16_17  and  O1_18
REMARK    7  A    between atoms: C16_17  and  C17_20
ROOT
HETATM    1  C1  UNL     1      32.134  33.580  19.114  1.00  0.00     0.102 C
HETATM    2  C2  UNL     1      32.265  32.372  19.270  1.00  0.00    -0.161 C
HETATM    3  C3  UNL     1      32.390  30.960  19.437  1.00  0.00     0.046 C
HETATM    4  C4  UNL     1      32.981  30.501  20.512  1.00  0.00    -0.017 C
ENDROOT
BRANCH   4   5
HETATM    5  C5  UNL     1      33.530  31.416  21.561  1.00  0.00     0.058 C
BRANCH   5   6
HETATM    6  C6  UNL     1      34.571  30.725  22.363  1.00  0.00     0.288 C
BRANCH   6   7
HETATM    7  N1  UNL     1      34.280  30.760  23.781  1.00  0.00     0.201 N
BRANCH   7   8
HETATM    8  C7  UNL     1      35.523  30.938  24.518  1.00  0.00     0.235 C
HETATM    9  C8  UNL     1      35.436  31.445  25.901  1.00  0.00     0.040 C
HETATM   10  C9  UNL     1      36.731  31.117  26.612  1.00  0.00     0.037 C
HETATM   11  C10 UNL     1      37.918  31.137  25.707  1.00  0.00    -0.075 C
HETATM   12  C11 UNL     1      39.098  31.224  26.305  1.00  0.00    -0.023 C
HETATM   13  C26 UNL     1      37.891  31.063  24.239  1.00  0.00    -0.015 C
HETATM   14  C12 UNL     1      40.423  31.263  25.646  1.00  0.00     0.033 C
HETATM   15  C13 UNL     1      40.313  31.153  24.175  1.00  0.00    -0.001 C
HETATM   16  C14 UNL     1      41.454  31.717  23.372  1.00  0.00     0.010 C
HETATM   17  C25 UNL     1      39.064  31.796  23.626  1.00  0.00     0.003 C
HETATM   18  C15 UNL     1      42.786  31.309  23.891  1.00  0.00     0.066 C
HETATM   19  C21 UNL     1      41.435  33.184  23.167  1.00  0.00     0.025 C
HETATM   20  C16 UNL     1      43.712  32.471  23.636  1.00  0.00     0.182 C
HETATM   21  C20 UNL     1      42.777  33.619  23.641  1.00  0.00     0.182 C
HETATM   22  O2  UNL     1      43.056  34.745  23.980  1.00  0.00    -0.293 OA
HETATM   23  C22 UNL     1      41.375  33.552  21.680  1.00  0.00     0.024 C
HETATM   24  C23 UNL     1      40.364  33.934  23.870  1.00  0.00     0.018 C
HETATM   25  C24 UNL     1      39.037  33.247  23.927  1.00  0.00     0.007 C
HETATM   26  C27 UNL     1      37.877  29.675  23.664  1.00  0.00     0.020 C
HETATM   27  C28 UNL     1      36.575  31.711  23.781  1.00  0.00     0.050 C
BRANCH  20  28
HETATM   28  O1  UNL     1      44.651  32.538  24.661  1.00  0.00    -0.371 OA
ATOM     29  H1  UNL     1      44.744  33.442  24.940  1.00  0.00     0.212 HD
ENDBRANCH  20  28
BRANCH  20  30
HETATM   30  C17 UNL     1      44.316  32.313  22.336  1.00  0.00    -0.060 C
HETATM   31  C18 UNL     1      44.800  32.185  21.243  1.00  0.00    -0.107 C
HETATM   32  C19 UNL     1      45.384  32.026  19.889  1.00  0.00     0.112 C
ENDBRANCH  20  30
ENDBRANCH   7   8
BRANCH   7  33
HETATM   33  C29 UNL     1      33.564  29.599  24.267  1.00  0.00     0.603 C
HETATM   34  F1  UNL     1      32.972  28.944  23.229  1.00  0.00    -0.144 F
HETATM   35  F2  UNL     1      34.404  28.683  24.879  1.00  0.00    -0.144 F
HETATM   36  F3  UNL     1      32.557  30.011  25.099  1.00  0.00    -0.144 F
ENDBRANCH   7  33
ENDBRANCH   6   7
ENDBRANCH   5   6
ENDBRANCH   4   5
TORSDOF 7
ENDMDL