MODEL 4
REMARK VINA RESULT: -6.733563828      2.021      2.782
REMARK  4 active torsions:
REMARK  status: ('A' for Active; 'I' for Inactive)
REMARK    1  A    between atoms: N1_2  and  C3_4
REMARK    2  A    between atoms: C3_4  and  C4_5
REMARK    3  A    between atoms: N2_10  and  C7_11
REMARK    4  A    between atoms: C11_15  and  N3_16
ROOT
HETATM    1  C7  UNL     1      38.297  26.249  26.912  1.00  0.00     0.061 C
HETATM    2  C8  UNL     1      39.621  25.524  27.006  1.00  0.00     0.041 C
HETATM    3  C9  UNL     1      37.973  26.451  25.454  1.00  0.00     0.036 C
HETATM    4  C10 UNL     1      38.030  27.974  25.213  1.00  0.00     0.030 C
HETATM    5  C11 UNL     1      39.072  28.389  26.252  1.00  0.00     0.117 C
HETATM    6  C23 UNL     1      38.522  27.701  27.439  1.00  0.00     0.220 C
HETATM    7  F1  UNL     1      37.240  28.083  27.802  1.00  0.00    -0.245 F
ENDROOT
BRANCH   5   8
HETATM    8  N3  UNL     1      39.301  29.789  26.280  1.00  0.00    -0.387 N
HETATM    9  C12 UNL     1      38.243  30.539  25.675  1.00  0.00     0.109 C
HETATM   10  C13 UNL     1      37.479  31.236  26.800  1.00  0.00     0.027 C
HETATM   11  C17 UNL     1      38.590  31.488  24.592  1.00  0.00     0.094 C
HETATM   12  C14 UNL     1      36.168  31.797  26.284  1.00  0.00     0.002 C
HETATM   13  C15 UNL     1      36.204  31.960  24.777  1.00  0.00     0.002 C
HETATM   14  C16 UNL     1      37.517  32.574  24.433  1.00  0.00     0.034 C
HETATM   15 CL1  UNL     1      38.716  30.689  22.995  1.00  0.00    -0.111 Cl
HETATM   16  C18 UNL     1      39.848  32.217  24.840  1.00  0.00     0.036 C
HETATM   17 CL2  UNL     1      40.022  33.854  24.251  1.00  0.00    -0.087 Cl
HETATM   18  C19 UNL     1      40.789  31.604  25.491  1.00  0.00     0.024 C
HETATM   19  C20 UNL     1      40.623  30.222  25.973  1.00  0.00     0.041 C
HETATM   20  C21 UNL     1      41.326  29.363  24.920  1.00  0.00     0.042 C
HETATM   21  C22 UNL     1      41.559  30.142  27.205  1.00  0.00     0.042 C
ENDBRANCH   5   8
BRANCH   1  22
HETATM   22  N2  UNL     1      37.311  25.594  27.675  1.00  0.00    -0.378 N
HETATM   23  C6  UNL     1      36.320  24.834  27.024  1.00  0.00     0.062 C
HETATM   24  C5  UNL     1      36.412  23.409  27.548  1.00  0.00     0.099 C
HETATM   25  C3  UNL     1      37.047  23.575  28.910  1.00  0.00     0.265 C
HETATM   26  C24 UNL     1      37.734  24.922  28.860  1.00  0.00     0.176 C
BRANCH  25  27
HETATM   27  N1  UNL     1      38.044  22.569  29.152  1.00  0.00     0.102 N
HETATM   28  C1  UNL     1      38.379  21.902  27.929  1.00  0.00     0.311 C
HETATM   29  C2  UNL     1      39.214  23.043  29.820  1.00  0.00     0.311 C
ENDBRANCH  25  27
BRANCH  25  30
HETATM   30  C4  UNL     1      35.948  23.524  29.901  1.00  0.00     0.215 C
HETATM   31  O1  UNL     1      34.967  22.772  29.737  1.00  0.00    -0.646 OA
HETATM   32  O2  UNL     1      36.006  24.319  31.027  1.00  0.00    -0.646 OA
ENDBRANCH  25  30
ENDBRANCH   1  22
TORSDOF 4
ENDMDL