MODEL 5
REMARK VINA RESULT: -7.883038176      3.267      4.770
REMARK  6 active torsions:
REMARK  status: ('A' for Active; 'I' for Inactive)
REMARK    1  A    between atoms: N1_2  and  C2_3
REMARK    2  A    between atoms: N1_2  and  S1_31
REMARK    3  A    between atoms: C2_3  and  C3_4
REMARK       I    between atoms: C3_4  and  N2_6
REMARK    4  A    between atoms: N2_6  and  C4_8
REMARK    5  A    between atoms: C4_8  and  C7_11
REMARK    6  A    between atoms: C10_14  and  C11_15
ROOT
HETATM    1  C2  UNL     1      40.435  30.503  24.014  1.00  0.00     0.127 C
HETATM    2  C14 UNL     1      41.217  31.467  24.858  1.00  0.00     0.048 C
HETATM    3  C15 UNL     1      42.207  31.554  23.707  1.00  0.00     0.004 C
HETATM    4  C16 UNL     1      40.990  31.308  22.822  1.00  0.00     0.029 C
HETATM    5  C17 UNL     1      40.460  32.707  22.676  1.00  0.00     0.017 C
HETATM    6  C18 UNL     1      41.729  33.556  22.430  1.00  0.00    -0.040 C
HETATM    7  C19 UNL     1      42.074  33.583  20.985  1.00  0.00     0.015 C
HETATM    8  C20 UNL     1      41.548  34.971  22.928  1.00  0.00     0.015 C
HETATM    9  C21 UNL     1      42.732  32.894  23.330  1.00  0.00    -0.037 C
HETATM   10  C22 UNL     1      44.059  32.673  22.570  1.00  0.00     0.016 C
HETATM   11  C23 UNL     1      43.126  33.715  24.536  1.00  0.00     0.016 C
ENDROOT
BRANCH   1  12
HETATM   12  N1  UNL     1      40.930  29.173  24.008  1.00  0.00    -0.296 N
HETATM   13  C1  UNL     1      41.219  28.610  22.753  1.00  0.00     0.164 C
BRANCH  12  14
HETATM   14  S1  UNL     1      40.909  28.194  25.335  1.00  0.00     0.225 S
HETATM   15  C24 UNL     1      40.621  26.473  25.050  1.00  0.00     0.186 C
HETATM   16  O2  UNL     1      39.980  28.594  26.468  1.00  0.00    -0.206 OA
HETATM   17  O3  UNL     1      42.307  28.248  25.977  1.00  0.00    -0.206 OA
ENDBRANCH  12  14
ENDBRANCH   1  12
BRANCH   1  18
HETATM   18  C3  UNL     1      38.965  30.502  24.023  1.00  0.00     0.248 C
HETATM   19  O1  UNL     1      38.378  30.102  22.986  1.00  0.00    -0.271 OA
HETATM   20  N2  UNL     1      38.107  30.897  25.071  1.00  0.00    -0.346 N
ATOM     21  H2  UNL     1      38.550  31.252  25.919  1.00  0.00     0.163 HD
BRANCH  20  22
HETATM   22  C4  UNL     1      36.667  30.849  25.062  1.00  0.00     0.053 C
HETATM   23  C5  UNL     1      36.118  31.256  26.435  1.00  0.00     0.043 C
HETATM   24  C6  UNL     1      36.105  29.450  24.835  1.00  0.00     0.043 C
BRANCH  22  25
HETATM   25  C7  UNL     1      36.119  31.790  24.076  1.00  0.00    -0.031 A
HETATM   26  C8  UNL     1      35.119  31.487  23.172  1.00  0.00     0.010 A
HETATM   27  C9  UNL     1      34.647  32.423  22.252  1.00  0.00     0.017 A
HETATM   28  C10 UNL     1      35.153  33.695  22.195  1.00  0.00     0.047 A
HETATM   29  C12 UNL     1      36.149  34.014  23.085  1.00  0.00     0.017 A
HETATM   30  C13 UNL     1      36.618  33.073  24.007  1.00  0.00     0.010 A
BRANCH  28  31
HETATM   31  C11 UNL     1      34.645  34.697  21.207  1.00  0.00     0.417 C
HETATM   32  F1  UNL     1      35.443  34.729  20.096  1.00  0.00    -0.166 F
HETATM   33  F2  UNL     1      34.730  35.962  21.788  1.00  0.00    -0.166 F
HETATM   34  F3  UNL     1      33.361  34.443  20.821  1.00  0.00    -0.166 F
ENDBRANCH  28  31
ENDBRANCH  22  25
ENDBRANCH  20  22
ENDBRANCH   1  18
TORSDOF 6
ENDMDL