MODEL 1
REMARK VINA RESULT: -9.215471880      0.000      0.000
REMARK  5 active torsions:
REMARK  status: ('A' for Active; 'I' for Inactive)
REMARK       I    between atoms: C1_2  and  N1_3
REMARK    1  A    between atoms: C1_2  and  C17_21
REMARK    2  A    between atoms: N1_3  and  C2_5
REMARK    3  A    between atoms: N2_8  and  C5_9
REMARK    4  A    between atoms: N3_24  and  C20_25
REMARK    5  A    between atoms: C24_31  and  C25_32
ROOT
HETATM    1  O1  UNL     1      36.059  30.144  25.511  1.00  0.00    -0.268 OA
HETATM    2  C1  UNL     1      36.148  30.413  24.282  1.00  0.00     0.247 C
HETATM    3  N1  UNL     1      37.397  30.899  23.832  1.00  0.00    -0.352 N
ATOM      4  H1  UNL     1      37.495  31.124  22.842  1.00  0.00     0.163 HD
ENDROOT
BRANCH   2   5
HETATM    5  C17 UNL     1      34.977  30.199  23.465  1.00  0.00     0.009 C
HETATM    6  C18 UNL     1      33.836  30.842  23.686  1.00  0.00     0.005 C
HETATM    7  C19 UNL     1      32.694  30.506  22.735  1.00  0.00     0.152 C
HETATM    8  N3  UNL     1      33.165  30.579  21.385  1.00  0.00    -0.363 N
HETATM    9  C26 UNL     1      34.461  29.976  21.105  1.00  0.00     0.129 C
HETATM   10  C27 UNL     1      34.979  29.246  22.333  1.00  0.00     0.064 C
BRANCH   8  11
HETATM   11  C20 UNL     1      32.496  31.202  20.313  1.00  0.00     0.118 A
HETATM   12  N4  UNL     1      31.646  30.407  19.568  1.00  0.00    -0.352 N
HETATM   13  C21 UNL     1      30.946  30.872  18.532  1.00  0.00     0.089 A
ATOM     14  H4  UNL     1      31.549  29.424  19.822  1.00  0.00     0.166 HD
HETATM   15  C22 UNL     1      31.016  32.186  18.120  1.00  0.00     0.018 A
HETATM   16  C23 UNL     1      31.846  33.007  18.830  1.00  0.00     0.021 A
HETATM   17  C24 UNL     1      32.585  32.511  19.925  1.00  0.00     0.091 A
BRANCH  17  18
HETATM   18  C25 UNL     1      33.467  33.445  20.639  1.00  0.00     0.421 C
HETATM   19  F1  UNL     1      34.294  32.922  21.569  1.00  0.00    -0.166 F
HETATM   20  F2  UNL     1      34.274  34.133  19.725  1.00  0.00    -0.166 F
HETATM   21  F3  UNL     1      32.645  34.377  21.288  1.00  0.00    -0.166 F
ENDBRANCH  17  18
ENDBRANCH   8  11
ENDBRANCH   2   5
BRANCH   3  22
HETATM   22  C2  UNL     1      38.536  31.094  24.686  1.00  0.00     0.092 C
HETATM   23  C3  UNL     1      38.750  32.485  25.164  1.00  0.00     0.053 C
HETATM   24  C4  UNL     1      39.877  33.230  24.529  1.00  0.00     0.241 C
HETATM   25  N2  UNL     1      41.081  32.517  24.311  1.00  0.00    -0.052 N
HETATM   26  C13 UNL     1      41.119  32.215  22.863  1.00  0.00     0.239 C
HETATM   27  C16 UNL     1      41.026  31.177  24.824  1.00  0.00     0.245 C
HETATM   28  C14 UNL     1      40.018  31.186  22.681  1.00  0.00     0.036 C
HETATM   29  C15 UNL     1      39.806  30.630  24.052  1.00  0.00     0.036 C
BRANCH  25  30
HETATM   30  C5  UNL     1      42.293  33.236  24.570  1.00  0.00     0.259 C
HETATM   31  C6  UNL     1      43.488  32.625  23.767  1.00  0.00     0.072 C
HETATM   32  C7  UNL     1      44.569  33.540  23.416  1.00  0.00    -0.024 C
HETATM   33  C8  UNL     1      44.602  34.566  22.392  1.00  0.00    -0.008 C
HETATM   34  C9  UNL     1      43.632  35.611  22.143  1.00  0.00    -0.026 C
HETATM   35  C10 UNL     1      43.000  36.524  23.086  1.00  0.00     0.038 C
HETATM   36  C11 UNL     1      41.870  35.914  23.988  1.00  0.00     0.086 C
HETATM   37  C12 UNL     1      42.278  34.580  24.159  1.00  0.00    -0.149 C
ENDBRANCH  25  30
ENDBRANCH   3  22
TORSDOF 5
ENDMDL