MODEL 1
REMARK VINA RESULT: -7.645300945      0.000      0.000
REMARK  5 active torsions:
REMARK  status: ('A' for Active; 'I' for Inactive)
REMARK    1  A    between atoms: C2_2  and  O1_3
REMARK    2  A    between atoms: C4_6  and  N1_7
REMARK       I    between atoms: N1_7  and  C5_8
REMARK    3  A    between atoms: N1_7  and  C20_28
REMARK    4  A    between atoms: C5_8  and  C6_10
REMARK    5  A    between atoms: C8_12  and  C9_13
ROOT
HETATM    1  C6  UNL     1      36.374  28.438  23.390  1.00  0.00     0.036 C
HETATM    2  C7  UNL     1      36.397  27.826  24.555  1.00  0.00     0.009 C
HETATM    3  C8  UNL     1      37.431  27.894  25.527  1.00  0.00     0.054 C
HETATM    4  C10 UNL     1      38.416  26.900  25.929  1.00  0.00     0.061 C
HETATM    5  C11 UNL     1      39.035  27.679  27.096  1.00  0.00     0.036 C
HETATM    6 CL1  UNL     1      39.414  27.127  28.685  1.00  0.00    -0.087 Cl
HETATM    7  C12 UNL     1      39.198  28.911  26.530  1.00  0.00     0.041 C
HETATM    8 CL2  UNL     1      39.844  30.361  27.222  1.00  0.00    -0.086 Cl
HETATM    9  C13 UNL     1      38.685  28.657  25.131  1.00  0.00     0.029 C
HETATM   10  C14 UNL     1      38.431  29.744  24.211  1.00  0.00     0.058 C
HETATM   11  C15 UNL     1      37.637  29.140  23.045  1.00  0.00    -0.031 C
HETATM   12  C16 UNL     1      38.198  29.183  21.883  1.00  0.00     0.092 C
HETATM   13 CL3  UNL     1      37.766  28.490  20.360  1.00  0.00    -0.096 Cl
HETATM   14  C17 UNL     1      39.361  27.397  24.849  1.00  0.00    -0.023 C
HETATM   15  C18 UNL     1      40.788  27.453  25.471  1.00  0.00     0.016 C
HETATM   16  C19 UNL     1      39.376  26.648  23.595  1.00  0.00     0.016 C
ENDROOT
BRANCH   1  17
HETATM   17  C5  UNL     1      35.315  28.374  22.405  1.00  0.00     0.254 C
HETATM   18  N1  UNL     1      34.249  29.216  22.132  1.00  0.00    -0.338 N
HETATM   19  O2  UNL     1      35.377  27.332  21.630  1.00  0.00    -0.267 OA
BRANCH  18  20
HETATM   20  C4  UNL     1      33.481  29.097  20.904  1.00  0.00     0.093 C
HETATM   21  C3  UNL     1      33.888  29.883  19.713  1.00  0.00     0.062 C
HETATM   22  C2  UNL     1      32.418  30.167  19.461  1.00  0.00     0.058 C
HETATM   23  C1  UNL     1      32.062  31.564  19.068  1.00  0.00     0.046 C
HETATM   24  C24 UNL     1      32.137  29.769  20.890  1.00  0.00     0.062 C
BRANCH  22  25
HETATM   25  O1  UNL     1      31.808  29.264  18.587  1.00  0.00    -0.390 OA
ATOM     26  H1  UNL     1      31.186  29.723  18.036  1.00  0.00     0.210 HD
ENDBRANCH  22  25
ENDBRANCH  18  20
BRANCH  18  27
HETATM   27  C20 UNL     1      33.686  30.156  23.090  1.00  0.00     0.088 C
HETATM   28  C21 UNL     1      33.376  29.568  24.431  1.00  0.00     0.025 C
HETATM   29  C22 UNL     1      34.174  30.655  25.091  1.00  0.00     0.004 C
HETATM   30  C23 UNL     1      34.766  31.019  23.763  1.00  0.00     0.025 C
ENDBRANCH  18  27
ENDBRANCH   1  17
BRANCH   3  31
HETATM   31  C9  UNL     1      36.890  28.550  26.835  1.00  0.00     0.246 C
HETATM   32  O3  UNL     1      35.785  28.278  27.208  1.00  0.00    -0.306 OA
ENDBRANCH   3  31
TORSDOF 5
ENDMDL