MODEL 5
REMARK VINA RESULT: -8.151007283      4.043      5.796
REMARK  6 active torsions:
REMARK  status: ('A' for Active; 'I' for Inactive)
REMARK    1  A    between atoms: C1_2  and  C2_3
REMARK       I    between atoms: C1_2  and  N1_13
REMARK    2  A    between atoms: C2_3  and  O2_4
REMARK    3  A    between atoms: O2_4  and  C3_5
REMARK    4  A    between atoms: C3_5  and  C4_7
REMARK    5  A    between atoms: N1_13  and  C10_15
REMARK    6  A    between atoms: C14_22  and  C15_23
ROOT
HETATM    1  C10 UNL     1      37.562  29.668  26.026  1.00  0.00     0.116 A
HETATM    2  N2  UNL     1      38.326  28.701  26.593  1.00  0.00    -0.350 N
ATOM      3  H2  UNL     1      39.327  28.857  26.711  1.00  0.00     0.166 HD
HETATM    4  C11 UNL     1      37.789  27.543  27.000  1.00  0.00     0.108 A
HETATM    5  C12 UNL     1      36.436  27.333  26.840  1.00  0.00     0.027 A
HETATM    6 BR1  UNL     1      35.619  25.710  27.397  1.00  0.00    -0.050 Br
HETATM    7  C13 UNL     1      35.624  28.312  26.260  1.00  0.00     0.033 A
HETATM    8  C14 UNL     1      36.189  29.496  25.847  1.00  0.00     0.011 A
ENDROOT
BRANCH   1   9
HETATM    9  N1  UNL     1      38.093  30.765  25.601  1.00  0.00    -0.311 N
HETATM   10  C1  UNL     1      39.381  30.754  25.001  1.00  0.00     0.247 C
HETATM   11  O1  UNL     1      40.418  30.610  25.692  1.00  0.00    -0.271 OA
ATOM     12  H1  UNL     1      37.585  31.645  25.696  1.00  0.00     0.170 HD
BRANCH  10  13
HETATM   13  C2  UNL     1      39.513  30.913  23.543  1.00  0.00     0.281 C
BRANCH  13  14
HETATM   14  O2  UNL     1      39.670  29.732  22.824  1.00  0.00    -0.312 OA
BRANCH  14  15
HETATM   15  C3  UNL     1      38.750  28.706  22.740  1.00  0.00     0.263 C
HETATM   16  O3  UNL     1      38.859  27.751  23.516  1.00  0.00    -0.265 OA
BRANCH  15  17
HETATM   17  C4  UNL     1      37.637  28.712  21.751  1.00  0.00     0.085 C
HETATM   18  C5  UNL     1      36.641  27.674  22.142  1.00  0.00     0.014 C
HETATM   19  C6  UNL     1      35.555  27.461  21.138  1.00  0.00     0.001 C
HETATM   20  C7  UNL     1      35.782  28.235  19.857  1.00  0.00     0.000 C
HETATM   21  C8  UNL     1      37.188  28.129  19.349  1.00  0.00     0.001 C
HETATM   22  C9  UNL     1      38.230  28.319  20.412  1.00  0.00     0.014 C
ENDBRANCH  15  17
ENDBRANCH  14  15
ENDBRANCH  13  14
ENDBRANCH  10  13
ENDBRANCH   1   9
BRANCH   8  23
HETATM   23  C15 UNL     1      35.365  30.603  25.279  1.00  0.00     0.068 C
HETATM   24 CL1  UNL     1      35.776  32.039  26.373  1.00  0.00    -0.114 Cl
HETATM   25  C16 UNL     1      33.907  30.402  25.540  1.00  0.00     0.032 C
HETATM   26  C17 UNL     1      33.170  29.676  24.429  1.00  0.00     0.022 C
HETATM   27  C18 UNL     1      33.832  29.820  23.089  1.00  0.00     0.082 C
HETATM   28 CL2  UNL     1      32.657  29.646  21.757  1.00  0.00    -0.125 Cl
HETATM   29  C19 UNL     1      34.540  31.133  22.994  1.00  0.00     0.022 C
HETATM   30  C20 UNL     1      35.756  31.059  23.934  1.00  0.00     0.032 C
ENDBRANCH   8  23
TORSDOF 6
ENDMDL