MODEL 2
REMARK VINA RESULT: -7.796420416      2.634      3.239
REMARK  5 active torsions:
REMARK  status: ('A' for Active; 'I' for Inactive)
REMARK    1  A    between atoms: C2_2  and  O1_3
REMARK    2  A    between atoms: C2_2  and  C3_6
REMARK    3  A    between atoms: C10_13  and  C11_14
REMARK    4  A    between atoms: C15_20  and  C16_21
REMARK    5  A    between atoms: C22_29  and  C23_30
ROOT
HETATM    1  C3  UNL     1      37.815  30.319  26.458  1.00  0.00     0.060 C
HETATM    2  C4  UNL     1      36.586  31.038  27.044  1.00  0.00     0.011 C
HETATM    3  C5  UNL     1      35.706  30.819  25.789  1.00  0.00     0.013 C
HETATM    4  C6  UNL     1      36.585  31.383  24.744  1.00  0.00    -0.003 C
HETATM    5  C7  UNL     1      36.580  32.874  24.920  1.00  0.00     0.131 C
HETATM    6  C8  UNL     1      36.197  33.529  23.647  1.00  0.00     0.033 C
HETATM    7  C9  UNL     1      35.857  32.398  22.729  1.00  0.00     0.009 C
HETATM    8  C10 UNL     1      36.330  31.109  23.343  1.00  0.00     0.005 C
HETATM    9  O2  UNL     1      37.790  33.323  25.326  1.00  0.00    -0.379 OA
HETATM   10  C22 UNL     1      38.740  32.324  25.221  1.00  0.00     0.137 C
HETATM   11  C24 UNL     1      38.023  31.044  25.208  1.00  0.00     0.036 C
ENDROOT
BRANCH   8  12
HETATM   12  C11 UNL     1      35.495  29.989  22.885  1.00  0.00    -0.033 C
HETATM   13  C12 UNL     1      35.694  28.695  23.626  1.00  0.00     0.016 C
HETATM   14  C13 UNL     1      34.017  30.312  22.675  1.00  0.00     0.029 C
HETATM   15  C14 UNL     1      33.271  29.035  22.383  1.00  0.00     0.120 C
HETATM   16  N1  UNL     1      33.905  28.376  21.308  1.00  0.00    -0.396 N
HETATM   17  C15 UNL     1      35.066  28.606  20.865  1.00  0.00    -0.013 C
ATOM     18  H1  UNL     1      33.373  27.642  20.842  1.00  0.00     0.159 HD
HETATM   19  C21 UNL     1      35.964  29.659  21.448  1.00  0.00     0.062 C
BRANCH  17  20
HETATM   20  C16 UNL     1      35.598  27.805  19.699  1.00  0.00     0.034 C
HETATM   21  C17 UNL     1      37.035  28.201  19.500  1.00  0.00     0.013 C
HETATM   22  C18 UNL     1      37.870  27.220  20.290  1.00  0.00     0.038 C
HETATM   23  C19 UNL     1      36.937  26.283  20.983  1.00  0.00     0.170 C
HETATM   24  F2  UNL     1      37.417  24.975  21.026  1.00  0.00    -0.249 F
HETATM   25  C20 UNL     1      35.673  26.361  20.154  1.00  0.00     0.047 C
ENDBRANCH  17  20
ENDBRANCH   8  12
BRANCH   1  26
HETATM   26  C2  UNL     1      38.803  30.197  27.512  1.00  0.00     0.203 C
HETATM   27  C1  UNL     1      40.247  30.215  27.088  1.00  0.00     0.085 C
HETATM   28  F1  UNL     1      38.623  31.001  28.625  1.00  0.00    -0.212 F
BRANCH  26  29
HETATM   29  O1  UNL     1      38.635  28.883  28.047  1.00  0.00    -0.362 OA
ATOM     30  H1  UNL     1      37.781  28.924  28.463  1.00  0.00     0.213 HD
ENDBRANCH  26  29
ENDBRANCH   1  26
BRANCH  10  31
HETATM   31  C23 UNL     1      39.585  32.625  24.016  1.00  0.00     0.117 C
HETATM   32 BR1  UNL     1      40.182  31.103  23.044  1.00  0.00    -0.094 Br
ENDBRANCH  10  31
TORSDOF 5
ENDMDL