MODEL 3
REMARK VINA RESULT: -6.541724975      2.851      5.418
REMARK  4 active torsions:
REMARK  status: ('A' for Active; 'I' for Inactive)
REMARK    1  A    between atoms: C2_2  and  C4_4
REMARK    2  A    between atoms: C4_4  and  C5_5
REMARK       I    between atoms: C5_5  and  N1_7
REMARK    3  A    between atoms: N1_7  and  C7_10
REMARK    4  A    between atoms: C9_12  and  O2_13
ROOT
HETATM    1  C5  UNL     1      38.009  31.928  24.063  1.00  0.00     0.233 C
HETATM    2  O1  UNL     1      37.259  32.665  24.757  1.00  0.00    -0.272 OA
HETATM    3  N1  UNL     1      37.628  30.565  23.725  1.00  0.00    -0.246 N
HETATM    4  C6  UNL     1      38.560  29.894  22.964  1.00  0.00     0.187 C
HETATM    5  N2  UNL     1      39.378  29.356  22.291  1.00  0.00    -0.172 NA
ENDROOT
BRANCH   3   6
HETATM    6  C7  UNL     1      36.402  30.081  24.099  1.00  0.00     0.152 C
HETATM    7  C8  UNL     1      35.183  30.964  23.939  1.00  0.00     0.061 C
HETATM    8  C9  UNL     1      34.791  30.658  22.488  1.00  0.00     0.137 C
HETATM    9  C15 UNL     1      34.286  30.214  24.902  1.00  0.00     0.025 C
HETATM   10  C10 UNL     1      35.110  29.217  22.247  1.00  0.00     0.017 C
HETATM   11  C11 UNL     1      33.823  28.393  22.003  1.00  0.00     0.021 C
HETATM   12  C12 UNL     1      35.952  28.924  21.035  1.00  0.00     0.021 C
HETATM   13  C13 UNL     1      35.772  28.836  23.530  1.00  0.00     0.136 C
HETATM   14  F1  UNL     1      36.520  27.735  23.533  1.00  0.00    -0.240 F
HETATM   15  C14 UNL     1      34.593  28.773  24.551  1.00  0.00     0.067 C
HETATM   16  C16 UNL     1      32.857  30.597  24.870  1.00  0.00     0.028 C
HETATM   17 BR1  UNL     1      34.988  30.574  26.702  1.00  0.00    -0.085 Br
BRANCH   8  18
HETATM   18  O2  UNL     1      33.392  30.865  22.377  1.00  0.00    -0.394 OA
ATOM     19  H2  UNL     1      33.012  30.054  22.059  1.00  0.00     0.210 HD
ENDBRANCH   8  18
ENDBRANCH   3   6
BRANCH   1  20
HETATM   20  C4  UNL     1      39.291  32.533  23.620  1.00  0.00     0.108 C
BRANCH  20  21
HETATM   21  C2  UNL     1      40.098  33.076  24.749  1.00  0.00    -0.014 C
HETATM   22  C1  UNL     1      40.737  34.399  24.451  1.00  0.00     0.010 C
HETATM   23  C3  UNL     1      41.110  32.040  25.187  1.00  0.00     0.010 C
ENDBRANCH  20  21
ENDBRANCH   1  20
TORSDOF 4
ENDMDL