MODEL 5
REMARK VINA RESULT: -7.249918328      3.118      3.847
REMARK  4 active torsions:
REMARK  status: ('A' for Active; 'I' for Inactive)
REMARK    1  A    between atoms: C1_2  and  C2_4
REMARK    2  A    between atoms: N2_7  and  C5_8
REMARK       I    between atoms: N3_11  and  C8_12
REMARK    3  A    between atoms: C8_12  and  C9_14
REMARK    4  A    between atoms: C18_23  and  C19_24
ROOT
HETATM    1  C5  UNL     1      35.894  28.878  22.817  1.00  0.00     0.086 C
HETATM    2  C6  UNL     1      35.317  30.244  22.684  1.00  0.00     0.045 C
HETATM    3  C7  UNL     1      33.855  30.118  22.282  1.00  0.00     0.127 C
HETATM    4  N3  UNL     1      33.763  29.336  21.051  1.00  0.00    -0.352 N
HETATM    5  C8  UNL     1      32.929  29.776  19.985  1.00  0.00     0.224 C
HETATM    6  O2  UNL     1      32.898  29.083  18.913  1.00  0.00    -0.273 OA
HETATM    7  C15 UNL     1      34.497  28.114  20.890  1.00  0.00     0.127 C
HETATM    8  C16 UNL     1      35.894  28.194  21.457  1.00  0.00     0.045 C
ENDROOT
BRANCH   1   9
HETATM    9  N2  UNL     1      37.182  28.803  23.362  1.00  0.00    -0.388 N
HETATM   10  C4  UNL     1      37.492  27.818  24.312  1.00  0.00     0.123 C
HETATM   11  C3  UNL     1      37.980  28.535  25.578  1.00  0.00     0.034 C
HETATM   12  C2  UNL     1      39.220  29.350  25.180  1.00  0.00     0.090 C
HETATM   13  C18 UNL     1      38.791  30.352  24.172  1.00  0.00     0.101 C
HETATM   14  C17 UNL     1      38.179  29.707  22.950  1.00  0.00     0.069 C
BRANCH  12  15
HETATM   15  C1  UNL     1      40.268  28.424  24.755  1.00  0.00     0.236 C
HETATM   16  N1  UNL     1      40.718  27.477  25.748  1.00  0.00    -0.062 NA
HETATM   17  O1  UNL     1      40.816  28.355  23.644  1.00  0.00    -0.276 OA
ENDBRANCH  12  15
BRANCH  13  18
HETATM   18  C19 UNL     1      39.844  31.365  23.824  1.00  0.00     0.362 C
HETATM   19  F1  UNL     1      40.169  32.025  25.016  1.00  0.00    -0.214 F
HETATM   20  F2  UNL     1      39.289  32.317  22.993  1.00  0.00    -0.214 F
ENDBRANCH  13  18
ENDBRANCH   1   9
BRANCH   5  21
HETATM   21  C9  UNL     1      32.080  30.994  20.025  1.00  0.00     0.078 C
HETATM   22  C10 UNL     1      32.995  32.206  19.916  1.00  0.00     0.014 C
HETATM   23  C11 UNL     1      32.201  33.487  19.758  1.00  0.00     0.001 C
HETATM   24  C12 UNL     1      31.508  33.376  18.394  1.00  0.00     0.000 C
HETATM   25  C13 UNL     1      30.524  32.247  18.506  1.00  0.00     0.001 C
HETATM   26  C14 UNL     1      31.161  30.918  18.819  1.00  0.00     0.014 C
ENDBRANCH   5  21
TORSDOF 4
ENDMDL