MODEL 5
REMARK VINA RESULT: -4.981554256      2.466      3.872
REMARK  4 active torsions:
REMARK  status: ('A' for Active; 'I' for Inactive)
REMARK    1  A    between atoms: O1_2  and  C2_3
REMARK    2  A    between atoms: C2_3  and  C3_5
REMARK    3  A    between atoms: C6_12  and  C7_13
REMARK    4  A    between atoms: C7_13  and  S1_14
ROOT
HETATM    1  C3  UNL     1      33.900  30.560  21.850  1.00  0.00     0.117 A
HETATM    2  N1  UNL     1      34.317  31.656  22.472  1.00  0.00    -0.344 N
ATOM      3  H1  UNL     1      33.819  32.545  22.440  1.00  0.00     0.167 HD
HETATM    4  C4  UNL     1      35.453  31.473  23.145  1.00  0.00     0.098 A
HETATM    5 BR1  UNL     1      36.481  32.679  24.196  1.00  0.00    -0.030 Br
HETATM    6  C5  UNL     1      35.787  30.139  22.929  1.00  0.00     0.054 A
HETATM    7 BR2  UNL     1      37.324  29.268  23.705  1.00  0.00    -0.047 Br
HETATM    8  C6  UNL     1      34.844  29.547  22.128  1.00  0.00     0.006 A
ENDROOT
BRANCH   1   9
HETATM    9  C2  UNL     1      32.691  30.391  21.016  1.00  0.00     0.310 C
HETATM   10  O2  UNL     1      31.680  29.824  21.442  1.00  0.00    -0.258 OA
BRANCH   9  11
HETATM   11  O1  UNL     1      32.727  30.897  19.729  1.00  0.00    -0.321 OA
HETATM   12  C1  UNL     1      31.678  30.739  18.805  1.00  0.00     0.213 C
ENDBRANCH   9  11
ENDBRANCH   1   9
BRANCH   8  13
HETATM   13  C7  UNL     1      34.675  28.177  21.630  1.00  0.00     0.150 C
BRANCH  13  14
HETATM   14  S1  UNL     1      35.634  27.913  20.167  1.00  0.00     0.015 S
HETATM   15  C8  UNL     1      35.896  26.113  19.992  1.00  0.00     0.127 C
HETATM   16  O3  UNL     1      34.659  28.319  18.792  1.00  0.00    -0.258 OA
ENDBRANCH  13  14
ENDBRANCH   8  13
TORSDOF 4
ENDMDL