MODEL 5
REMARK VINA RESULT: -6.527178562      3.225      4.564
REMARK  2 active torsions:
REMARK  status: ('A' for Active; 'I' for Inactive)
REMARK    1  A    between atoms: C11_14  and  C12_15
REMARK    2  A    between atoms: C13_16  and  C14_17
ROOT
HETATM    1  C1  UNL     1      35.663  27.638  22.576  1.00  0.00     0.039 C
HETATM    2  C2  UNL     1      36.012  28.957  21.959  1.00  0.00     0.037 C
HETATM    3  C3  UNL     1      37.144  29.608  22.690  1.00  0.00     0.032 C
HETATM    4  C4  UNL     1      36.759  30.682  23.635  1.00  0.00     0.012 C
HETATM    5  C5  UNL     1      35.363  30.892  23.976  1.00  0.00     0.048 C
HETATM    6  C6  UNL     1      35.026  30.285  25.350  1.00  0.00     0.072 C
HETATM    7 BR1  UNL     1      35.435  31.524  26.770  1.00  0.00    -0.090 Br
HETATM    8  C7  UNL     1      33.535  30.017  25.246  1.00  0.00     0.098 C
HETATM    9  C8  UNL     1      33.457  29.503  23.840  1.00  0.00     0.168 C
HETATM   10  O1  UNL     1      32.791  28.520  23.571  1.00  0.00    -0.294 OA
HETATM   11  C9  UNL     1      34.292  30.413  23.055  1.00  0.00     0.175 C
HETATM   12  F1  UNL     1      33.434  31.472  22.699  1.00  0.00    -0.234 F
HETATM   13  C10 UNL     1      34.886  29.912  21.809  1.00  0.00     0.078 C
HETATM   14  C11 UNL     1      34.010  29.277  20.790  1.00  0.00     0.110 C
HETATM   15  C15 UNL     1      35.026  28.534  19.971  1.00  0.00     0.226 C
HETATM   16  O2  UNL     1      34.741  27.886  18.937  1.00  0.00    -0.273 OA
HETATM   17  N1  UNL     1      36.309  28.697  20.563  1.00  0.00    -0.351 N
ATOM     18  H1  UNL     1      37.222  28.644  20.112  1.00  0.00     0.163 HD
ENDROOT
BRANCH  14  19
HETATM   19  C12 UNL     1      33.237  30.247  20.006  1.00  0.00    -0.015 C
HETATM   20  C13 UNL     1      32.109  30.028  19.354  1.00  0.00    -0.019 C
BRANCH  20  21
HETATM   21  C14 UNL     1      31.422  31.128  18.587  1.00  0.00     0.112 C
HETATM   22  S1  UNL     1      32.013  32.701  19.190  1.00  0.00    -0.094 SA
ENDBRANCH  20  21
ENDBRANCH  14  19
TORSDOF 2
ENDMDL