MODEL 1
REMARK VINA RESULT: -7.058538879      0.000      0.000
REMARK  5 active torsions:
REMARK  status: ('A' for Active; 'I' for Inactive)
REMARK    1  A    between atoms: C2_2  and  O2_4
REMARK    2  A    between atoms: O2_4  and  C3_5
REMARK    3  A    between atoms: C7_9  and  O3_10
REMARK    4  A    between atoms: C10_14  and  C11_15
REMARK    5  A    between atoms: C15_19  and  C16_21
ROOT
HETATM    1  C3  UNL     1      34.662  30.364  23.117  1.00  0.00     0.143 C
HETATM    2  C4  UNL     1      34.290  30.199  24.621  1.00  0.00     0.038 C
HETATM    3  C5  UNL     1      34.756  28.802  24.936  1.00  0.00     0.027 C
HETATM    4  C6  UNL     1      36.090  29.393  24.634  1.00  0.00     0.034 C
HETATM    5  C7  UNL     1      37.296  28.760  24.971  1.00  0.00     0.050 C
HETATM    6  C8  UNL     1      37.766  27.842  24.139  1.00  0.00     0.006 C
HETATM    7  C9  UNL     1      36.966  27.573  22.924  1.00  0.00     0.035 C
HETATM    8  C10 UNL     1      36.604  28.893  22.207  1.00  0.00     0.000 C
HETATM    9  C14 UNL     1      35.984  29.796  23.125  1.00  0.00     0.037 C
HETATM   10  C15 UNL     1      35.585  30.655  25.273  1.00  0.00     0.051 C
HETATM   11 BR1  UNL     1      36.261  32.319  24.543  1.00  0.00    -0.083 Br
ENDROOT
BRANCH   1  12
HETATM   12  O2  UNL     1      33.577  29.811  22.479  1.00  0.00    -0.315 OA
BRANCH  12  13
HETATM   13  C2  UNL     1      32.894  30.373  21.406  1.00  0.00     0.255 C
HETATM   14  C1  UNL     1      33.026  31.786  21.001  1.00  0.00     0.126 C
HETATM   15  O1  UNL     1      32.138  29.588  20.783  1.00  0.00    -0.266 OA
ENDBRANCH  12  13
ENDBRANCH   1  12
BRANCH  10  16
HETATM   16  C16 UNL     1      35.363  30.706  26.746  1.00  0.00     0.137 C
HETATM   17 CL1  UNL     1      33.607  30.871  27.103  1.00  0.00    -0.129 Cl
ENDBRANCH  10  16
BRANCH   8  18
HETATM   18  C11 UNL     1      36.083  28.506  20.890  1.00  0.00    -0.018 C
HETATM   19  C12 UNL     1      37.146  28.143  19.875  1.00  0.00     0.010 C
HETATM   20  C13 UNL     1      35.187  27.252  20.958  1.00  0.00     0.010 C
ENDBRANCH   8  18
BRANCH   5  21
HETATM   21  O3  UNL     1      38.058  28.994  26.093  1.00  0.00    -0.364 OA
ATOM     22  H3  UNL     1      38.778  29.608  26.168  1.00  0.00     0.217 HD
ENDBRANCH   5  21
TORSDOF 5
ENDMDL