MODEL 1
REMARK VINA RESULT: -6.845668283      0.000      0.000
REMARK  5 active torsions:
REMARK  status: ('A' for Active; 'I' for Inactive)
REMARK    1  A    between atoms: C3_3  and  O1_4
REMARK    2  A    between atoms: O1_4  and  C4_5
REMARK       I    between atoms: C4_5  and  N1_7
REMARK    3  A    between atoms: N1_7  and  N2_8
REMARK    4  A    between atoms: N1_7  and  C11_18
REMARK       I    between atoms: N2_8  and  C5_10
REMARK    5  A    between atoms: C5_10  and  C6_12
ROOT
HETATM    1  C1  UNL     1      31.341  31.457  18.483  1.00  0.00     0.099 C
HETATM    2  C2  UNL     1      31.903  30.681  19.243  1.00  0.00    -0.161 C
HETATM    3  C3  UNL     1      32.554  29.734  20.155  1.00  0.00     0.260 C
ENDROOT
BRANCH   3   4
HETATM    4  O1  UNL     1      33.549  30.430  20.868  1.00  0.00    -0.292 OA
BRANCH   4   5
HETATM    5  C4  UNL     1      33.543  30.604  22.241  1.00  0.00     0.383 C
HETATM    6  O2  UNL     1      32.475  31.042  22.746  1.00  0.00    -0.236 OA
HETATM    7  N1  UNL     1      34.705  30.298  23.073  1.00  0.00    -0.226 N
BRANCH   7   8
HETATM    8  N2  UNL     1      35.786  29.813  22.355  1.00  0.00    -0.262 N
HETATM    9  C5  UNL     1      35.976  28.545  21.787  1.00  0.00     0.246 C
HETATM   10  O3  UNL     1      35.115  27.662  21.882  1.00  0.00    -0.271 OA
ATOM     11  H2  UNL     1      36.552  30.472  22.221  1.00  0.00     0.190 HD
BRANCH   9  12
HETATM   12  C6  UNL     1      37.226  28.181  21.032  1.00  0.00     0.057 A
HETATM   13  C7  UNL     1      36.962  27.958  19.536  1.00  0.00     0.027 C
HETATM   14  C8  UNL     1      38.522  28.700  21.457  1.00  0.00     0.042 A
HETATM   15  C9  UNL     1      38.197  27.217  21.584  1.00  0.00     0.032 A
HETATM   16  C10 UNL     1      38.198  26.699  22.979  1.00  0.00     0.029 C
HETATM   17 BR1  UNL     1      39.154  26.030  20.349  1.00  0.00    -0.085 Br
ENDBRANCH   9  12
ENDBRANCH   7   8
BRANCH   7  18
HETATM   18  C11 UNL     1      34.533  30.500  24.448  1.00  0.00     0.147 C
HETATM   19  C12 UNL     1      34.261  29.276  25.296  1.00  0.00     0.030 C
HETATM   20  C13 UNL     1      34.031  29.956  26.655  1.00  0.00     0.005 C
HETATM   21  C14 UNL     1      35.054  31.037  26.669  1.00  0.00     0.039 C
HETATM   22  C15 UNL     1      35.660  31.111  25.243  1.00  0.00     0.195 C
HETATM   23  F1  UNL     1      35.927  32.410  24.959  1.00  0.00    -0.247 F
ENDBRANCH   7  18
ENDBRANCH   4   5
ENDBRANCH   3   4
TORSDOF 5
ENDMDL