MODEL 2
REMARK VINA RESULT: -6.965572356      1.870      4.741
REMARK  4 active torsions:
REMARK  status: ('A' for Active; 'I' for Inactive)
REMARK    1  A    between atoms: C9_9  and  C10_10
REMARK    2  A    between atoms: C9_9  and  C13_18
REMARK    3  A    between atoms: C10_10  and  C11_11
REMARK    4  A    between atoms: C11_11  and  N1_12
REMARK       I    between atoms: C13_18  and  N3_20
ROOT
HETATM    1  C11 UNL     1      33.025  32.164  21.343  1.00  0.00     0.290 C
HETATM    2  C12 UNL     1      33.129  33.611  21.039  1.00  0.00     0.092 C
HETATM    3  N2  UNL     1      33.191  34.759  20.794  1.00  0.00    -0.195 NA
ENDROOT
BRANCH   1   4
HETATM    4  C10 UNL     1      34.260  31.545  21.788  1.00  0.00     0.068 C
BRANCH   4   5
HETATM    5  C9  UNL     1      34.327  30.368  22.683  1.00  0.00     0.052 C
HETATM    6  C5  UNL     1      34.964  29.134  22.060  1.00  0.00    -0.014 C
HETATM    7  C4  UNL     1      35.439  28.110  23.023  1.00  0.00     0.051 C
HETATM    8  C6  UNL     1      33.762  28.491  21.364  1.00  0.00     0.011 C
HETATM    9  C20 UNL     1      36.077  29.424  21.144  1.00  0.00     0.095 C
HETATM   10  C3  UNL     1      36.810  27.746  22.616  1.00  0.00    -0.013 C
HETATM   11  C2  UNL     1      37.721  27.075  23.342  1.00  0.00    -0.022 C
HETATM   12  C21 UNL     1      37.043  28.232  21.258  1.00  0.00     0.268 C
HETATM   13  C1  UNL     1      39.058  26.775  22.811  1.00  0.00     0.036 C
HETATM   14  F1  UNL     1      38.347  28.668  21.146  1.00  0.00    -0.201 F
HETATM   15  F2  UNL     1      36.773  27.293  20.282  1.00  0.00    -0.201 F
HETATM   16  C7  UNL     1      32.668  28.596  22.375  1.00  0.00     0.002 C
HETATM   17  C8  UNL     1      33.058  29.824  23.200  1.00  0.00     0.020 C
BRANCH   5  18
HETATM   18  C13 UNL     1      35.167  30.831  23.828  1.00  0.00     0.230 C
HETATM   19  O1  UNL     1      36.131  31.639  23.624  1.00  0.00    -0.272 OA
HETATM   20  N3  UNL     1      34.959  30.431  25.155  1.00  0.00    -0.342 N
HETATM   21  C14 UNL     1      35.795  30.856  26.323  1.00  0.00     0.087 C
HETATM   22  C17 UNL     1      34.030  29.605  25.868  1.00  0.00     0.087 C
HETATM   23  C15 UNL     1      36.220  29.524  26.843  1.00  0.00     0.027 C
HETATM   24  C19 UNL     1      34.737  31.415  27.212  1.00  0.00     0.027 C
HETATM   25  C16 UNL     1      34.983  28.678  26.607  1.00  0.00     0.027 C
HETATM   26  C18 UNL     1      33.514  30.565  26.934  1.00  0.00     0.027 C
ENDBRANCH   5  18
ENDBRANCH   4   5
ENDBRANCH   1   4
BRANCH   1  27
HETATM   27  N1  UNL     1      32.769  31.600  19.972  1.00  0.00    -0.063 N
ATOM     28  H13 UNL     1      33.337  30.782  19.751  1.00  0.00     0.275 HD
ATOM     29  H12 UNL     1      31.861  31.144  19.879  1.00  0.00     0.275 HD
ATOM     30  H11 UNL     1      32.906  32.381  19.330  1.00  0.00     0.275 HD
ENDBRANCH   1  27
TORSDOF 4
ENDMDL