MODEL 2
REMARK VINA RESULT: -6.895620809      1.479      2.234
REMARK  3 active torsions:
REMARK  status: ('A' for Active; 'I' for Inactive)
REMARK    1  A    between atoms: C2_2  and  C3_5
REMARK    2  A    between atoms: C3_5  and  C4_6
REMARK       I    between atoms: C4_6  and  N1_8
REMARK    3  A    between atoms: N1_8  and  C5_10
ROOT
HETATM    1  C5  UNL     1      38.617  32.189  24.396  1.00  0.00     0.134 C
HETATM    2  C6  UNL     1      38.727  31.329  23.130  1.00  0.00     0.151 C
HETATM    3  N2  UNL     1      37.787  30.287  23.281  1.00  0.00    -0.377 N
HETATM    4  C7  UNL     1      37.962  29.072  22.623  1.00  0.00     0.059 C
HETATM    5  C8  UNL     1      36.864  28.564  21.747  1.00  0.00     0.044 C
HETATM    6  C9  UNL     1      35.586  28.210  22.393  1.00  0.00     0.010 C
HETATM    7  C10 UNL     1      34.662  29.289  22.808  1.00  0.00    -0.010 C
HETATM    8  C11 UNL     1      35.058  30.682  22.474  1.00  0.00     0.008 C
HETATM    9  C12 UNL     1      35.508  31.508  23.638  1.00  0.00     0.041 C
HETATM   10  C13 UNL     1      36.058  30.742  24.796  1.00  0.00     0.093 C
HETATM   11  O2  UNL     1      36.583  31.655  25.708  1.00  0.00    -0.367 OA
HETATM   12  C14 UNL     1      37.890  31.387  25.395  1.00  0.00     0.177 C
HETATM   13  C15 UNL     1      37.412  30.174  24.642  1.00  0.00     0.087 C
HETATM   14  C16 UNL     1      37.777  28.948  25.392  1.00  0.00     0.044 C
HETATM   15  C17 UNL     1      35.039  29.787  25.276  1.00  0.00     0.027 C
HETATM   16  C18 UNL     1      34.093  30.531  26.200  1.00  0.00     0.008 C
HETATM   17  C19 UNL     1      32.704  30.180  25.794  1.00  0.00     0.001 C
HETATM   18  C20 UNL     1      32.799  29.744  24.373  1.00  0.00     0.005 C
HETATM   19  C21 UNL     1      34.197  29.171  24.255  1.00  0.00    -0.003 C
ENDROOT
BRANCH   1  20
HETATM   20  N1  UNL     1      39.961  32.462  24.929  1.00  0.00    -0.352 N
HETATM   21  C4  UNL     1      40.834  33.400  24.361  1.00  0.00     0.223 C
HETATM   22  O1  UNL     1      40.531  34.087  23.344  1.00  0.00    -0.273 OA
ATOM     23  H1  UNL     1      40.272  31.944  25.751  1.00  0.00     0.163 HD
BRANCH  21  24
HETATM   24  C3  UNL     1      42.160  33.613  24.952  1.00  0.00     0.181 C
BRANCH  24  25
HETATM   25  C2  UNL     1      42.231  34.828  25.839  1.00  0.00     0.248 C
HETATM   26  C1  UNL     1      43.204  35.858  25.377  1.00  0.00     0.090 C
HETATM   27  F1  UNL     1      42.594  34.417  27.109  1.00  0.00    -0.206 F
HETATM   28  F2  UNL     1      40.979  35.407  25.944  1.00  0.00    -0.206 F
ENDBRANCH  24  25
ENDBRANCH  21  24
ENDBRANCH   1  20
TORSDOF 3
ENDMDL