MODEL 2
REMARK VINA RESULT: -5.707404482      4.979      6.334
REMARK  1 active torsions:
REMARK  status: ('A' for Active; 'I' for Inactive)
REMARK    1  A    between atoms: N1_2  and  C2_4
ROOT
HETATM    1  C2  UNL     1      -9.695  25.344   0.173  1.00  0.00     0.076 C
HETATM    2  C3  UNL     1     -10.790  24.529   0.825  1.00  0.00     0.029 C
HETATM    3  C4  UNL     1     -10.241  23.854   2.063  1.00  0.00    -0.012 C
HETATM    4  C5  UNL     1      -8.921  24.491   2.519  1.00  0.00     0.009 C
HETATM    5  C6  UNL     1      -9.192  25.981   2.521  1.00  0.00    -0.012 C
HETATM    6  C7  UNL     1      -9.247  26.458   1.109  1.00  0.00     0.029 C
HETATM    7  C8  UNL     1     -10.439  26.335   3.259  1.00  0.00     0.013 C
HETATM    8  C9  UNL     1     -11.074  25.213   4.009  1.00  0.00    -0.047 C
HETATM    9  C10 UNL     1     -10.429  25.057   5.369  1.00  0.00     0.015 C
HETATM   10  C11 UNL     1     -12.524  25.638   4.291  1.00  0.00     0.015 C
HETATM   11  C12 UNL     1     -11.162  23.925   3.245  1.00  0.00     0.013 C
ENDROOT
BRANCH   1  12
HETATM   12  N1  UNL     1     -10.082  25.839  -1.100  1.00  0.00    -0.421 N
HETATM   13  C1  UNL     1     -11.295  25.352  -1.653  1.00  0.00     0.140 C
ATOM     14  H1  UNL     1      -9.509  26.519  -1.598  1.00  0.00     0.153 HD
ENDBRANCH   1  12
TORSDOF 1
ENDMDL