MODEL 4
REMARK VINA RESULT: -5.583280898      2.433      3.388
REMARK  2 active torsions:
REMARK  status: ('A' for Active; 'I' for Inactive)
REMARK    1  A    between atoms: C2_2  and  C3_3
REMARK    2  A    between atoms: C7_7  and  N1_9
ROOT
HETATM    1  C3  UNL     1     -15.068  28.171   4.929  1.00  0.00    -0.023 C
HETATM    2  C4  UNL     1     -15.217  28.081   6.403  1.00  0.00     0.013 C
HETATM    3  C5  UNL     1     -13.959  28.289   7.183  1.00  0.00     0.004 C
HETATM    4  C6  UNL     1     -13.271  29.581   6.894  1.00  0.00     0.038 C
HETATM    5  C7  UNL     1     -12.353  29.563   5.730  1.00  0.00     0.123 C
HETATM    6  C8  UNL     1     -11.080  28.835   6.142  1.00  0.00     0.046 C
HETATM    7  C9  UNL     1     -12.918  29.043   4.463  1.00  0.00     0.022 C
HETATM    8  C10 UNL     1     -13.898  30.002   3.858  1.00  0.00     0.008 C
HETATM    9  C11 UNL     1     -15.236  29.570   4.385  1.00  0.00     0.014 C
HETATM   10  C12 UNL     1     -13.666  27.771   4.539  1.00  0.00     0.020 C
ENDROOT
BRANCH   5  11
HETATM   11  N1  UNL     1     -11.947  30.953   5.469  1.00  0.00    -0.070 N
ATOM     12  H13 UNL     1     -11.916  31.179   4.474  1.00  0.00     0.275 HD
ATOM     13  H12 UNL     1     -12.658  31.633   5.737  1.00  0.00     0.275 HD
ATOM     14  H11 UNL     1     -11.055  31.103   5.940  1.00  0.00     0.275 HD
ENDBRANCH   5  11
BRANCH   1  15
HETATM   15  C2  UNL     1     -16.094  27.319   4.282  1.00  0.00    -0.027 C
HETATM   16  C1  UNL     1     -17.073  27.869   3.581  1.00  0.00     0.007 C
ENDBRANCH   1  15
TORSDOF 2
ENDMDL