MODEL 5
REMARK VINA RESULT: -5.692254096      6.303      7.607
REMARK  2 active torsions:
REMARK  status: ('A' for Active; 'I' for Inactive)
REMARK    1  A    between atoms: C2_2  and  C3_3
REMARK    2  A    between atoms: C9_9  and  O1_11
ROOT
HETATM    1  C3  UNL     1     -10.540  24.007   3.027  1.00  0.00     0.012 C
HETATM    2  C4  UNL     1     -10.845  23.922   1.528  1.00  0.00     0.016 C
HETATM    3  C5  UNL     1     -10.742  25.362   1.122  1.00  0.00     0.025 C
HETATM    4  C6  UNL     1      -9.569  25.937   1.922  1.00  0.00    -0.003 C
HETATM    5  C7  UNL     1      -8.356  25.750   1.076  1.00  0.00     0.008 C
HETATM    6  C8  UNL     1      -8.842  25.108  -0.228  1.00  0.00     0.038 C
HETATM    7  C9  UNL     1     -10.259  25.564  -0.284  1.00  0.00     0.058 C
HETATM    8  C10 UNL     1     -11.117  24.787  -1.239  1.00  0.00     0.046 C
HETATM    9  C11 UNL     1      -9.582  25.156   3.186  1.00  0.00    -0.007 C
HETATM   10  C12 UNL     1      -8.227  24.732   3.667  1.00  0.00     0.011 C
ENDROOT
BRANCH   7  11
HETATM   11  O1  UNL     1     -10.279  26.934  -0.529  1.00  0.00    -0.390 OA
ATOM     12  H1  UNL     1     -11.190  27.191  -0.603  1.00  0.00     0.210 HD
ENDBRANCH   7  11
BRANCH   1  13
HETATM   13  C2  UNL     1     -11.835  24.279   3.710  1.00  0.00    -0.032 C
HETATM   14  C1  UNL     1     -12.602  23.314   4.182  1.00  0.00     0.007 C
ENDBRANCH   1  13
TORSDOF 2
ENDMDL