MODEL 4
REMARK VINA RESULT: -5.572683337      1.789      2.524
REMARK  2 active torsions:
REMARK  status: ('A' for Active; 'I' for Inactive)
REMARK    1  A    between atoms: C3_3  and  O1_4
REMARK    2  A    between atoms: C6_8  and  C7_9
ROOT
HETATM    1  C1  UNL     1     -13.454  30.324   3.557  1.00  0.00     0.013 C
HETATM    2  C2  UNL     1     -12.875  29.072   4.091  1.00  0.00     0.015 C
HETATM    3  C3  UNL     1     -11.596  29.466   4.857  1.00  0.00     0.122 C
HETATM    4  C4  UNL     1     -12.188  30.041   6.107  1.00  0.00     0.032 C
HETATM    5  C5  UNL     1     -13.574  29.439   6.273  1.00  0.00     0.008 C
HETATM    6  C6  UNL     1     -13.609  28.401   5.181  1.00  0.00    -0.004 C
ENDROOT
BRANCH   6   7
HETATM    7  C7  UNL     1     -14.951  27.840   4.921  1.00  0.00    -0.010 C
HETATM    8  C8  UNL     1     -15.813  28.645   3.994  1.00  0.00     0.005 C
HETATM    9  C9  UNL     1     -17.203  27.988   4.061  1.00  0.00     0.000 C
HETATM   10  C10 UNL     1     -17.021  26.713   3.270  1.00  0.00     0.000 C
HETATM   11  C11 UNL     1     -16.094  25.779   3.991  1.00  0.00     0.000 C
HETATM   12  C12 UNL     1     -14.916  26.377   4.627  1.00  0.00     0.005 C
ENDBRANCH   6   7
BRANCH   3  13
HETATM   13  O1  UNL     1     -10.884  30.433   4.197  1.00  0.00    -0.395 OA
ATOM     14  H1  UNL     1     -10.105  30.688   4.676  1.00  0.00     0.210 HD
ENDBRANCH   3  13
TORSDOF 2
ENDMDL