MODEL 1
REMARK VINA RESULT: -6.288061650      0.000      0.000
REMARK  2 active torsions:
REMARK  status: ('A' for Active; 'I' for Inactive)
REMARK    1  A    between atoms: C2_2  and  C4_4
REMARK    2  A    between atoms: C9_9  and  O1_10
ROOT
HETATM    1  C4  UNL     1     -14.207  27.453   4.974  1.00  0.00    -0.006 A
HETATM    2  C5  UNL     1     -14.950  26.260   4.600  1.00  0.00     0.015 A
HETATM    3  C6  UNL     1     -16.277  27.020   4.623  1.00  0.00    -0.037 A
HETATM    4  C7  UNL     1     -17.221  26.580   5.715  1.00  0.00     0.015 C
HETATM    5  C8  UNL     1     -16.968  27.145   3.315  1.00  0.00     0.041 C
HETATM    6  C9  UNL     1     -17.780  28.433   3.339  1.00  0.00     0.118 C
HETATM    7  C10 UNL     1     -16.891  29.648   3.341  1.00  0.00     0.032 C
HETATM    8  C11 UNL     1     -15.508  29.262   3.794  1.00  0.00     0.008 C
HETATM    9  C12 UNL     1     -15.494  28.265   4.904  1.00  0.00    -0.002 A
ENDROOT
BRANCH   1  10
HETATM   10  C2  UNL     1     -13.544  27.625   6.276  1.00  0.00    -0.018 C
HETATM   11  C1  UNL     1     -13.488  26.294   7.008  1.00  0.00     0.010 C
HETATM   12  C3  UNL     1     -14.118  28.634   7.210  1.00  0.00     0.010 C
ENDBRANCH   1  10
BRANCH   6  13
HETATM   13  O1  UNL     1     -18.619  28.531   2.229  1.00  0.00    -0.396 OA
ATOM     14  H1  UNL     1     -19.437  28.962   2.446  1.00  0.00     0.210 HD
ENDBRANCH   6  13
TORSDOF 2
ENDMDL