MODEL 3
REMARK VINA RESULT: -5.345620283      1.780      3.826
REMARK  2 active torsions:
REMARK  status: ('A' for Active; 'I' for Inactive)
REMARK    1  A    between atoms: C2_2  and  C3_3
REMARK    2  A    between atoms: C3_3  and  N1_4
ROOT
HETATM    1  C1  UNL     1      -7.080  27.200   4.360  1.00  0.00     0.017 C
HETATM    2  C2  UNL     1      -7.753  26.885   2.992  1.00  0.00    -0.020 C
HETATM    3  C4  UNL     1      -9.021  27.613   3.002  1.00  0.00     0.011 C
HETATM    4  C5  UNL     1     -10.093  27.296   2.076  1.00  0.00     0.006 C
HETATM    5  C6  UNL     1     -10.367  25.922   1.668  1.00  0.00    -0.006 C
HETATM    6  C7  UNL     1      -9.231  25.283   0.865  1.00  0.00     0.011 C
HETATM    7  C8  UNL     1      -8.790  24.721   2.166  1.00  0.00    -0.005 C
HETATM    8  C9  UNL     1      -7.732  25.430   2.889  1.00  0.00     0.016 C
HETATM    9  C10 UNL     1     -10.177  24.833   2.660  1.00  0.00    -0.040 C
HETATM   10  C11 UNL     1     -11.011  23.612   2.225  1.00  0.00     0.015 C
HETATM   11  C12 UNL     1     -10.449  25.095   4.085  1.00  0.00     0.015 C
ENDROOT
BRANCH   2  12
HETATM   12  C3  UNL     1      -6.751  27.585   2.053  1.00  0.00     0.238 C
BRANCH  12  13
HETATM   13  N1  UNL     1      -5.897  26.630   1.395  1.00  0.00    -0.079 N
ATOM     14  H13 UNL     1      -5.334  26.107   2.065  1.00  0.00     0.274 HD
ATOM     15  H12 UNL     1      -6.433  25.856   1.002  1.00  0.00     0.274 HD
ATOM     16  H11 UNL     1      -5.315  27.080   0.688  1.00  0.00     0.274 HD
ENDBRANCH  12  13
ENDBRANCH   2  12
TORSDOF 2
ENDMDL