MODEL 2
REMARK VINA RESULT: -5.761204669      5.598      7.110
REMARK  2 active torsions:
REMARK  status: ('A' for Active; 'I' for Inactive)
REMARK    1  A    between atoms: C5_5  and  C6_6
REMARK    2  A    between atoms: C6_6  and  N1_7
ROOT
HETATM    1  C1  UNL     1     -10.518  24.887  -0.161  1.00  0.00     0.015 C
HETATM    2  C2  UNL     1      -9.870  25.747   0.935  1.00  0.00    -0.040 C
HETATM    3  C3  UNL     1      -9.920  27.171   0.540  1.00  0.00     0.010 C
HETATM    4  C4  UNL     1      -9.480  28.035   1.674  1.00  0.00     0.008 C
HETATM    5  C5  UNL     1     -10.504  27.806   2.785  1.00  0.00     0.019 C
HETATM    6  C7  UNL     1     -10.330  26.434   3.326  1.00  0.00    -0.038 C
HETATM    7  C8  UNL     1     -11.543  26.159   4.233  1.00  0.00     0.015 C
HETATM    8  C9  UNL     1      -9.127  26.372   4.277  1.00  0.00     0.015 C
HETATM    9  C10 UNL     1     -10.297  25.389   2.286  1.00  0.00     0.002 C
HETATM   10  C11 UNL     1      -9.091  24.442   2.372  1.00  0.00     0.007 C
HETATM   11  C12 UNL     1      -8.480  25.191   1.207  1.00  0.00     0.010 C
ENDROOT
BRANCH   5  12
HETATM   12  C6  UNL     1     -10.361  28.909   3.764  1.00  0.00     0.234 C
BRANCH  12  13
HETATM   13  N1  UNL     1     -10.532  30.223   3.214  1.00  0.00    -0.079 N
ATOM     14  H13 UNL     1     -10.457  30.195   2.197  1.00  0.00     0.274 HD
ATOM     15  H12 UNL     1     -11.503  30.524   3.310  1.00  0.00     0.274 HD
ATOM     16  H11 UNL     1      -9.903  30.930   3.596  1.00  0.00     0.274 HD
ENDBRANCH  12  13
ENDBRANCH   5  12
TORSDOF 2
ENDMDL