MODEL 1
REMARK VINA RESULT: -6.001615033      0.000      0.000
REMARK  2 active torsions:
REMARK  status: ('A' for Active; 'I' for Inactive)
REMARK    1  A    between atoms: C11_11  and  C12_12
REMARK    2  A    between atoms: C12_12  and  O1_13
ROOT
HETATM    1  C1  UNL     1      -7.277  25.922   4.014  1.00  0.00     0.015 C
HETATM    2  C2  UNL     1      -7.829  26.116   2.592  1.00  0.00    -0.044 C
HETATM    3  C3  UNL     1      -6.685  26.568   1.749  1.00  0.00     0.015 C
HETATM    4  C4  UNL     1      -8.252  24.745   2.122  1.00  0.00     0.014 C
HETATM    5  C5  UNL     1      -9.610  24.815   1.471  1.00  0.00    -0.008 C
HETATM    6  C6  UNL     1     -10.640  25.240   2.478  1.00  0.00     0.005 C
HETATM    7  C7  UNL     1     -10.205  26.462   3.207  1.00  0.00     0.006 C
HETATM    8  C8  UNL     1      -8.951  27.089   2.691  1.00  0.00    -0.007 C
HETATM    9  C9  UNL     1      -9.258  27.825   1.428  1.00  0.00     0.006 C
HETATM   10  C10 UNL     1     -10.005  27.055   0.409  1.00  0.00     0.007 C
HETATM   11  C11 UNL     1      -9.598  25.634   0.228  1.00  0.00     0.013 C
ENDROOT
BRANCH  11  12
HETATM   12  C12 UNL     1     -10.616  25.002  -0.736  1.00  0.00     0.169 C
BRANCH  12  13
HETATM   13  O1  UNL     1     -10.506  25.629  -1.974  1.00  0.00    -0.400 OA
ATOM     14  H1  UNL     1     -11.313  26.099  -2.150  1.00  0.00     0.209 HD
ENDBRANCH  12  13
ENDBRANCH  11  12
TORSDOF 2
ENDMDL