MODEL 2
REMARK VINA RESULT: -6.609058351      2.158      4.173
REMARK  2 active torsions:
REMARK  status: ('A' for Active; 'I' for Inactive)
REMARK    1  A    between atoms: C10_10  and  C11_11
REMARK    2  A    between atoms: C11_11  and  O1_12
ROOT
HETATM    1  C1  UNL     1     -17.117  26.648   5.544  1.00  0.00     0.015 C
HETATM    2  C2  UNL     1     -16.475  27.156   4.291  1.00  0.00    -0.043 C
HETATM    3  C3  UNL     1     -16.847  26.146   3.189  1.00  0.00     0.015 C
HETATM    4  C4  UNL     1     -17.060  28.483   3.824  1.00  0.00     0.010 C
HETATM    5  C5  UNL     1     -15.923  29.510   3.938  1.00  0.00     0.010 C
HETATM    6  C6  UNL     1     -14.881  28.850   4.708  1.00  0.00    -0.039 C
HETATM    7  C7  UNL     1     -14.918  29.023   6.186  1.00  0.00     0.015 C
HETATM    8  C8  UNL     1     -13.461  28.973   4.271  1.00  0.00     0.010 C
HETATM    9  C9  UNL     1     -12.872  27.678   4.859  1.00  0.00     0.008 C
HETATM   10  C10 UNL     1     -14.079  26.752   5.100  1.00  0.00     0.015 C
HETATM   11  C12 UNL     1     -15.073  27.389   4.271  1.00  0.00     0.007 C
ENDROOT
BRANCH  10  12
HETATM   12  C11 UNL     1     -13.628  25.376   4.647  1.00  0.00     0.169 C
BRANCH  12  13
HETATM   13  O1  UNL     1     -14.223  24.358   5.371  1.00  0.00    -0.400 OA
ATOM     14  H1  UNL     1     -14.230  24.532   6.305  1.00  0.00     0.209 HD
ENDBRANCH  12  13
ENDBRANCH  10  12
TORSDOF 2
ENDMDL