MODEL 4
REMARK VINA RESULT: -5.019159260      1.481      4.817
REMARK  3 active torsions:
REMARK  status: ('A' for Active; 'I' for Inactive)
REMARK    1  A    between atoms: N1_2  and  C2_4
REMARK    2  A    between atoms: C2_4  and  C8_12
REMARK    3  A    between atoms: N2_5  and  C3_7
ROOT
HETATM    1  C2  UNL     1     -15.007  25.621   5.197  1.00  0.00     0.080 C
HETATM    2  N2  UNL     1     -13.980  25.649   4.434  1.00  0.00    -0.375 N
ATOM      3  H2  UNL     1     -13.996  26.317   3.664  1.00  0.00     0.161 HD
ENDROOT
BRANCH   1   4
HETATM    4  N1  UNL     1     -15.024  24.710   6.275  1.00  0.00    -0.384 N
HETATM    5  C1  UNL     1     -14.521  25.021   7.595  1.00  0.00     0.147 C
ATOM      6  H1  UNL     1     -15.412  23.781   6.115  1.00  0.00     0.160 HD
ENDBRANCH   1   4
BRANCH   1   7
HETATM    7  C8  UNL     1     -16.139  26.529   4.942  1.00  0.00     0.007 C
HETATM    8  C9  UNL     1     -15.721  27.978   5.068  1.00  0.00     0.022 C
HETATM    9  C10 UNL     1     -16.658  26.326   3.518  1.00  0.00     0.022 C
HETATM   10  C11 UNL     1     -17.310  26.262   5.860  1.00  0.00     0.022 C
ENDBRANCH   1   7
BRANCH   2  11
HETATM   11  C3  UNL     1     -12.814  24.835   4.556  1.00  0.00     0.082 C
HETATM   12  C4  UNL     1     -12.786  23.682   3.595  1.00  0.00     0.025 C
HETATM   13  C5  UNL     1     -11.427  23.616   2.979  1.00  0.00     0.002 C
HETATM   14  C6  UNL     1     -10.630  24.775   3.519  1.00  0.00     0.002 C
HETATM   15  C7  UNL     1     -11.617  25.698   4.160  1.00  0.00     0.025 C
ENDBRANCH   2  11
TORSDOF 3
ENDMDL