MODEL 4
REMARK VINA RESULT: -5.562805925      7.023      8.595
REMARK  3 active torsions:
REMARK  status: ('A' for Active; 'I' for Inactive)
REMARK    1  A    between atoms: C2_2  and  C3_3
REMARK       I    between atoms: N1_10  and  C9_11
REMARK    2  A    between atoms: C9_11  and  O3_13
REMARK    3  A    between atoms: O3_13  and  C10_14
ROOT
HETATM    1  C3  UNL     1      -9.852  25.690   1.565  1.00  0.00     0.080 C
HETATM    2  C4  UNL     1     -10.565  24.403   1.370  1.00  0.00     0.048 C
HETATM    3  O1  UNL     1     -10.402  26.377   2.657  1.00  0.00    -0.354 OA
HETATM    4  C5  UNL     1      -9.372  26.529   3.588  1.00  0.00     0.229 C
HETATM    5  C6  UNL     1      -9.042  25.124   4.108  1.00  0.00     0.056 C
HETATM    6  C7  UNL     1      -8.189  24.501   2.999  1.00  0.00     0.033 C
HETATM    7  C8  UNL     1      -8.379  25.534   1.897  1.00  0.00     0.126 C
HETATM    8  N1  UNL     1      -8.248  26.720   2.709  1.00  0.00    -0.293 N
HETATM    9  C9  UNL     1      -7.324  27.756   2.673  1.00  0.00     0.366 C
HETATM   10  O2  UNL     1      -6.369  27.786   1.823  1.00  0.00    -0.238 OA
ENDROOT
BRANCH   9  11
HETATM   11  O3  UNL     1      -7.344  28.842   3.544  1.00  0.00    -0.294 OA
BRANCH  11  12
HETATM   12  C10 UNL     1      -8.011  30.044   3.290  1.00  0.00     0.061 C
HETATM   13  C11 UNL     1      -9.497  29.969   3.547  1.00  0.00     0.046 C
HETATM   14  C12 UNL     1      -7.731  30.546   1.899  1.00  0.00     0.046 C
HETATM   15  C13 UNL     1      -7.412  31.080   4.251  1.00  0.00     0.046 C
ENDBRANCH  11  12
ENDBRANCH   9  11
BRANCH   1  16
HETATM   16  C2  UNL     1      -9.943  26.597   0.346  1.00  0.00     0.035 C
HETATM   17  C1  UNL     1     -10.292  25.777  -0.894  1.00  0.00     0.008 C
ENDBRANCH   1  16
TORSDOF 3
ENDMDL