MODEL 3
REMARK VINA RESULT: -6.029705909      6.285      8.476
REMARK  3 active torsions:
REMARK  status: ('A' for Active; 'I' for Inactive)
REMARK    1  A    between atoms: C2_2  and  C4_4
REMARK       I    between atoms: C4_4  and  N1_6
REMARK    2  A    between atoms: N1_6  and  C5_8
REMARK    3  A    between atoms: C8_12  and  C9_13
ROOT
HETATM    1  C5  UNL     1     -10.001  26.630   0.093  1.00  0.00     0.194 A
HETATM    2  O2  UNL     1     -10.274  27.589   0.908  1.00  0.00    -0.291 OA
HETATM    3  C6  UNL     1      -9.821  27.608   2.084  1.00  0.00     0.066 A
HETATM    4  C7  UNL     1     -10.136  28.734   3.056  1.00  0.00     0.078 C
HETATM    5  C8  UNL     1      -9.022  26.580   2.493  1.00  0.00     0.024 A
HETATM    6  S1  UNL     1      -8.998  25.634   1.068  1.00  0.00    -0.048 SA
ENDROOT
BRANCH   1   7
HETATM    7  N1  UNL     1     -10.385  26.456  -1.152  1.00  0.00    -0.297 N
HETATM    8  C4  UNL     1     -10.934  25.256  -1.608  1.00  0.00     0.252 C
HETATM    9  O1  UNL     1     -10.294  24.190  -1.470  1.00  0.00    -0.268 OA
ATOM     10  H1  UNL     1     -10.279  27.228  -1.810  1.00  0.00     0.171 HD
BRANCH   8  11
HETATM   11  C2  UNL     1     -12.254  25.275  -2.241  1.00  0.00    -0.003 C
HETATM   12  C1  UNL     1     -12.765  26.398  -2.684  1.00  0.00     0.024 C
HETATM   13  C3  UNL     1     -13.004  23.990  -2.369  1.00  0.00     0.053 C
ENDBRANCH   8  11
ENDBRANCH   1   7
BRANCH   5  14
HETATM   14  C9  UNL     1      -8.333  26.265   3.741  1.00  0.00    -0.015 C
HETATM   15  C10 UNL     1      -7.891  24.819   3.688  1.00  0.00     0.020 C
HETATM   16  C11 UNL     1      -7.032  27.077   3.829  1.00  0.00     0.020 C
HETATM   17  C12 UNL     1      -9.077  26.489   4.989  1.00  0.00     0.020 C
ENDBRANCH   5  14
TORSDOF 3
ENDMDL