MODEL 5
REMARK VINA RESULT: -7.114639718      7.611     11.109
REMARK  3 active torsions:
REMARK  status: ('A' for Active; 'I' for Inactive)
REMARK    1  A    between atoms: C2_3  and  C3_4
REMARK    2  A    between atoms: C4_5  and  C5_6
REMARK    3  A    between atoms: C9_14  and  C10_15
ROOT
HETATM    1  N1  UNL     1     -13.620  30.701   2.230  1.00  0.00    -0.191 NA
HETATM    2  C1  UNL     1     -13.670  30.453   3.367  1.00  0.00     0.108 C
HETATM    3  C2  UNL     1     -13.700  30.141   4.781  1.00  0.00     0.099 C
HETATM    4  C9  UNL     1     -14.513  29.244   5.234  1.00  0.00     0.043 C
ENDROOT
BRANCH   3   5
HETATM    5  C3  UNL     1     -12.828  30.845   5.705  1.00  0.00    -0.049 C
HETATM    6  C4  UNL     1     -12.120  31.453   6.488  1.00  0.00    -0.041 C
BRANCH   6   7
HETATM    7  C5  UNL     1     -11.315  32.190   7.404  1.00  0.00     0.102 A
HETATM    8  C6  UNL     1     -11.519  32.183   8.785  1.00  0.00     0.126 A
HETATM    9  N2  UNL     1     -10.727  32.883   9.622  1.00  0.00    -0.371 N
HETATM   10  C7  UNL     1      -9.698  33.622   9.136  1.00  0.00     0.104 A
ATOM     11  H2  UNL     1     -10.902  32.857  10.626  1.00  0.00     0.164 HD
HETATM   12  C8  UNL     1      -9.473  33.647   7.755  1.00  0.00     0.106 A
HETATM   13  N3  UNL     1     -10.289  32.934   6.968  1.00  0.00    -0.357 N
ATOM     14  H3  UNL     1     -10.117  32.959   5.963  1.00  0.00     0.166 HD
ENDBRANCH   6   7
ENDBRANCH   3   5
BRANCH   4  15
HETATM   15  C10 UNL     1     -15.469  28.460   4.448  1.00  0.00    -0.034 A
HETATM   16  C11 UNL     1     -15.365  27.086   4.431  1.00  0.00     0.011 A
HETATM   17  C12 UNL     1     -16.259  26.276   3.717  1.00  0.00     0.001 A
HETATM   18  C13 UNL     1     -17.287  26.852   3.001  1.00  0.00     0.000 A
HETATM   19  C14 UNL     1     -17.399  28.234   3.014  1.00  0.00     0.001 A
HETATM   20  C15 UNL     1     -16.493  29.016   3.735  1.00  0.00     0.011 A
ENDBRANCH   4  15
TORSDOF 3
ENDMDL