MODEL 5
REMARK VINA RESULT: -6.046401202      6.277      8.292
REMARK  2 active torsions:
REMARK  status: ('A' for Active; 'I' for Inactive)
REMARK    1  A    between atoms: C2_2  and  O2_4
REMARK    2  A    between atoms: O2_4  and  C3_5
ROOT
HETATM    1  C3  UNL     1      -8.106  27.830   3.404  1.00  0.00     0.279 C
HETATM    2  O3  UNL     1      -9.181  27.426   4.127  1.00  0.00    -0.345 OA
HETATM    3  C4  UNL     1     -10.133  26.625   3.569  1.00  0.00     0.086 A
HETATM    4  C5  UNL     1     -10.047  26.434   2.137  1.00  0.00     0.014 C
HETATM    5  C6  UNL     1      -8.957  25.801   1.729  1.00  0.00    -0.080 C
HETATM    6  C7  UNL     1      -8.692  25.506   0.283  1.00  0.00     0.043 C
HETATM    7  C8  UNL     1      -7.981  25.418   2.790  1.00  0.00     0.027 C
HETATM    8  C9  UNL     1      -8.572  25.023   4.119  1.00  0.00     0.018 C
HETATM    9  C10 UNL     1     -10.018  25.126   4.052  1.00  0.00     0.028 A
HETATM   10  C11 UNL     1     -11.016  25.995   4.534  1.00  0.00     0.050 A
HETATM   11  C12 UNL     1      -7.175  26.720   2.988  1.00  0.00     0.010 C
HETATM   12  C13 UNL     1      -6.115  26.401   4.015  1.00  0.00     0.020 C
HETATM   13  C14 UNL     1      -6.498  27.041   1.685  1.00  0.00     0.020 C
ENDROOT
BRANCH   1  14
HETATM   14  O2  UNL     1      -8.533  28.623   2.313  1.00  0.00    -0.289 OA
BRANCH  14  15
HETATM   15  C2  UNL     1      -8.774  29.979   2.419  1.00  0.00     0.257 C
HETATM   16  C1  UNL     1      -7.794  31.034   2.117  1.00  0.00     0.126 C
HETATM   17  O1  UNL     1      -9.924  30.362   2.807  1.00  0.00    -0.266 OA
ENDBRANCH  14  15
ENDBRANCH   1  14
TORSDOF 2
ENDMDL