MODEL 4
REMARK VINA RESULT: -6.261917244      1.539      2.353
REMARK  3 active torsions:
REMARK  status: ('A' for Active; 'I' for Inactive)
REMARK    1  A    between atoms: C2_2  and  C5_5
REMARK    2  A    between atoms: C6_6  and  C7_7
REMARK    3  A    between atoms: C9_10  and  C10_11
ROOT
HETATM    1  C7  UNL     1     -12.569  25.276   4.698  1.00  0.00     0.098 C
HETATM    2  C8  UNL     1     -12.278  24.199   5.572  1.00  0.00     0.108 C
HETATM    3  N1  UNL     1     -12.089  23.301   6.302  1.00  0.00    -0.191 NA
HETATM    4  C9  UNL     1     -11.859  26.095   4.025  1.00  0.00     0.049 C
ENDROOT
BRANCH   1   5
HETATM    5  C6  UNL     1     -14.068  25.489   4.538  1.00  0.00    -0.055 C
HETATM    6  C5  UNL     1     -15.243  25.676   4.401  1.00  0.00    -0.091 C
BRANCH   6   7
HETATM    7  C2  UNL     1     -16.672  25.924   4.223  1.00  0.00     0.013 C
HETATM    8  C1  UNL     1     -17.201  25.183   3.030  1.00  0.00     0.028 C
HETATM    9  C3  UNL     1     -16.856  27.413   4.061  1.00  0.00     0.028 C
HETATM   10  C4  UNL     1     -17.416  25.479   5.483  1.00  0.00     0.028 C
ENDBRANCH   6   7
ENDBRANCH   1   5
BRANCH   4  11
HETATM   11  C10 UNL     1     -10.438  26.281   3.862  1.00  0.00     0.040 A
HETATM   12  C11 UNL     1      -9.664  25.325   3.300  1.00  0.00     0.028 A
HETATM   13  C12 UNL     1      -8.276  25.789   3.268  1.00  0.00     0.082 A
HETATM   14  C13 UNL     1      -7.736  25.776   1.842  1.00  0.00     0.051 C
HETATM   15  C14 UNL     1      -7.470  24.795   4.117  1.00  0.00     0.051 C
HETATM   16  O1  UNL     1      -8.257  27.041   3.825  1.00  0.00    -0.303 OA
HETATM   17  C15 UNL     1      -9.562  27.391   4.208  1.00  0.00     0.294 A
HETATM   18  O2  UNL     1      -9.869  28.482   4.749  1.00  0.00    -0.259 OA
ENDBRANCH   4  11
TORSDOF 3
ENDMDL