MODEL 2
REMARK VINA RESULT: -4.798566493      5.688      7.128
REMARK  2 active torsions:
REMARK  status: ('A' for Active; 'I' for Inactive)
REMARK    1  A    between atoms: C3_6  and  O1_7
REMARK    2  A    between atoms: O1_7  and  C4_8
ROOT
HETATM    1  C1  UNL     1     -12.204  29.308   3.989  1.00  0.00     0.152 C
HETATM    2  N1  UNL     1     -12.578  28.127   4.781  1.00  0.00    -0.359 N
HETATM    3  C2  UNL     1     -11.889  26.881   4.824  1.00  0.00     0.139 C
HETATM    4  S1  UNL     1     -10.307  26.642   4.614  1.00  0.00    -0.053 SA
HETATM    5  S2  UNL     1     -13.162  25.662   5.157  1.00  0.00    -0.066 SA
HETATM    6  C3  UNL     1     -14.557  26.876   5.275  1.00  0.00     0.218 C
HETATM    7  C8  UNL     1     -13.725  28.079   5.648  1.00  0.00     0.061 C
HETATM    8  C9  UNL     1     -13.295  27.827   7.104  1.00  0.00     0.041 C
HETATM    9  C10 UNL     1     -14.479  29.371   5.662  1.00  0.00     0.041 C
ENDROOT
BRANCH   6  10
HETATM   10  O1  UNL     1     -15.136  26.898   4.052  1.00  0.00    -0.363 OA
BRANCH  10  11
HETATM   11  C4  UNL     1     -16.489  26.704   4.039  1.00  0.00     0.051 C
HETATM   12  C5  UNL     1     -16.929  25.515   3.222  1.00  0.00     0.045 C
HETATM   13  C6  UNL     1     -17.176  27.921   3.412  1.00  0.00     0.045 C
HETATM   14  C7  UNL     1     -17.048  26.554   5.419  1.00  0.00     0.045 C
ENDBRANCH  10  11
ENDBRANCH   6  10
TORSDOF 2
ENDMDL