MODEL 5
REMARK VINA RESULT: -7.152700777      1.091      1.223
REMARK  3 active torsions:
REMARK  status: ('A' for Active; 'I' for Inactive)
REMARK    1  A    between atoms: C2_3  and  C3_4
REMARK    2  A    between atoms: C4_5  and  C5_6
REMARK    3  A    between atoms: C9_11  and  C10_12
ROOT
HETATM    1  N1  UNL     1      -9.422  27.827   0.475  1.00  0.00    -0.191 NA
HETATM    2  C1  UNL     1      -9.881  26.749   0.398  1.00  0.00     0.108 C
HETATM    3  C2  UNL     1     -10.470  25.448   0.313  1.00  0.00     0.099 C
HETATM    4  C9  UNL     1     -10.175  24.543   1.213  1.00  0.00     0.043 C
ENDROOT
BRANCH   3   5
HETATM    5  C3  UNL     1     -11.388  25.111  -0.762  1.00  0.00    -0.048 C
HETATM    6  C4  UNL     1     -12.167  24.822  -1.643  1.00  0.00    -0.035 C
BRANCH   6   7
HETATM    7  C5  UNL     1     -13.099  24.474  -2.670  1.00  0.00     0.128 A
HETATM    8  C6  UNL     1     -13.539  23.215  -3.000  1.00  0.00     0.048 A
HETATM    9  C7  UNL     1     -14.433  23.367  -4.055  1.00  0.00     0.028 A
HETATM   10  C8  UNL     1     -14.485  24.729  -4.308  1.00  0.00     0.143 A
HETATM   11  O1  UNL     1     -13.696  25.344  -3.485  1.00  0.00    -0.314 OA
ENDBRANCH   6   7
ENDBRANCH   3   5
BRANCH   4  12
HETATM   12  C10 UNL     1      -9.261  24.787   2.316  1.00  0.00    -0.034 A
HETATM   13  C11 UNL     1      -7.901  24.930   2.128  1.00  0.00     0.013 A
HETATM   14  C12 UNL     1      -7.084  25.185   3.212  1.00  0.00     0.023 A
HETATM   15  C13 UNL     1      -7.575  25.309   4.504  1.00  0.00     0.044 A
HETATM   16  C14 UNL     1      -6.670  25.576   5.614  1.00  0.00     0.099 C
HETATM   17  C15 UNL     1      -8.924  25.170   4.695  1.00  0.00     0.023 A
HETATM   18  N2  UNL     1      -5.944  25.785   6.476  1.00  0.00    -0.191 NA
HETATM   19  C16 UNL     1      -9.745  24.913   3.608  1.00  0.00     0.013 A
ENDBRANCH   4  12
TORSDOF 3
ENDMDL