MODEL 2
REMARK VINA RESULT: -6.664708923      0.103      1.024
REMARK  3 active torsions:
REMARK  status: ('A' for Active; 'I' for Inactive)
REMARK    1  A    between atoms: C9_10  and  C10_11
REMARK    2  A    between atoms: C10_11  and  O3_13
REMARK    3  A    between atoms: O3_13  and  C11_14
ROOT
HETATM    1  C1  UNL     1     -17.127  25.191   3.139  1.00  0.00     0.044 C
HETATM    2  C2  UNL     1     -16.363  26.338   3.667  1.00  0.00    -0.066 C
HETATM    3  C3  UNL     1     -16.849  27.555   3.470  1.00  0.00     0.053 C
HETATM    4  C4  UNL     1     -16.079  28.677   4.000  1.00  0.00     0.150 C
HETATM    5  O1  UNL     1     -16.106  29.780   3.421  1.00  0.00    -0.293 OA
HETATM    6  C5  UNL     1     -15.261  28.523   5.229  1.00  0.00     0.093 C
HETATM    7  C6  UNL     1     -15.199  27.054   5.653  1.00  0.00    -0.025 C
HETATM    8  C7  UNL     1     -14.073  26.872   6.617  1.00  0.00     0.016 C
HETATM    9  C8  UNL     1     -16.486  26.664   6.390  1.00  0.00     0.016 C
HETATM   10  C9  UNL     1     -15.099  26.258   4.397  1.00  0.00     0.122 C
ENDROOT
BRANCH  10  11
HETATM   11  C10 UNL     1     -14.573  24.908   4.584  1.00  0.00     0.268 C
HETATM   12  O2  UNL     1     -15.077  24.206   5.496  1.00  0.00    -0.264 OA
BRANCH  11  13
HETATM   13  O3  UNL     1     -13.563  24.321   3.843  1.00  0.00    -0.311 OA
BRANCH  13  14
HETATM   14  C11 UNL     1     -12.208  24.475   4.172  1.00  0.00     0.060 C
HETATM   15  C12 UNL     1     -11.992  23.740   5.497  1.00  0.00     0.045 C
HETATM   16  C13 UNL     1     -11.317  23.776   3.146  1.00  0.00     0.045 C
HETATM   17  C14 UNL     1     -11.794  25.893   4.381  1.00  0.00     0.045 C
ENDBRANCH  13  14
ENDBRANCH  11  13
ENDBRANCH  10  11
TORSDOF 3
ENDMDL