MODEL 4
REMARK VINA RESULT: -5.502966621      5.515      6.963
REMARK  3 active torsions:
REMARK  status: ('A' for Active; 'I' for Inactive)
REMARK    1  A    between atoms: C4_5  and  C5_6
REMARK       I    between atoms: N1_7  and  C6_9
REMARK    2  A    between atoms: C6_9  and  O2_11
REMARK    3  A    between atoms: O2_11  and  C7_12
ROOT
HETATM    1  C5  UNL     1      -7.817  29.385   1.580  1.00  0.00     0.130 C
HETATM    2  N1  UNL     1      -8.856  28.769   1.239  1.00  0.00    -0.310 N
ATOM      3  H1  UNL     1      -9.017  28.755   0.232  1.00  0.00     0.170 HD
HETATM    4  C6  UNL     1      -9.831  28.099   1.977  1.00  0.00     0.365 C
HETATM    5  O1  UNL     1     -10.750  28.653   2.655  1.00  0.00    -0.238 OA
ENDROOT
BRANCH   1   6
HETATM    6  C4  UNL     1      -7.398  29.527   2.973  1.00  0.00     0.091 A
HETATM    7  S1  UNL     1      -7.666  30.834   4.028  1.00  0.00    -0.081 SA
HETATM    8  C3  UNL     1      -6.880  30.214   5.407  1.00  0.00     0.076 A
HETATM    9  C2  UNL     1      -6.442  28.995   4.960  1.00  0.00     0.014 A
HETATM   10  C1  UNL     1      -5.669  28.098   5.916  1.00  0.00     0.069 C
HETATM   11  N2  UNL     1      -6.710  28.662   3.730  1.00  0.00    -0.348 N
HETATM   12  C11 UNL     1      -6.283  27.361   3.131  1.00  0.00     0.156 C
ENDBRANCH   1   6
BRANCH   4  13
HETATM   13  O2  UNL     1      -9.820  26.721   1.986  1.00  0.00    -0.294 OA
BRANCH  13  14
HETATM   14  C7  UNL     1      -9.723  25.867   0.894  1.00  0.00     0.061 C
HETATM   15  C8  UNL     1     -10.354  26.341  -0.371  1.00  0.00     0.046 C
HETATM   16  C9  UNL     1      -8.279  25.464   0.635  1.00  0.00     0.046 C
HETATM   17  C10 UNL     1     -10.438  24.566   1.290  1.00  0.00     0.046 C
ENDBRANCH  13  14
ENDBRANCH   4  13
TORSDOF 3
ENDMDL