MODEL 5
REMARK VINA RESULT: -7.026259929      2.783      6.827
REMARK  5 active torsions:
REMARK  status: ('A' for Active; 'I' for Inactive)
REMARK    1  A    between atoms: N1_2  and  C3_4
REMARK    2  A    between atoms: C3_4  and  C4_5
REMARK    3  A    between atoms: C4_5  and  N2_6
REMARK    4  A    between atoms: C5_8  and  N4_11
REMARK    5  A    between atoms: N4_11  and  C7_13
ROOT
HETATM    1  N2  UNL     1      -9.772  29.255   4.503  1.00  0.00    -0.366 N
ATOM      2  H2  UNL     1     -10.398  28.561   4.915  1.00  0.00     0.161 HD
HETATM    3  C5  UNL     1      -9.660  29.345   3.195  1.00  0.00     0.180 C
HETATM    4  C6  UNL     1      -8.770  30.333   2.673  1.00  0.00     0.136 C
HETATM    5  N3  UNL     1      -8.038  31.143   2.274  1.00  0.00    -0.188 NA
ENDROOT
BRANCH   3   6
HETATM    6  N4  UNL     1     -10.439  28.460   2.416  1.00  0.00    -0.358 N
ATOM      7  H4  UNL     1     -11.390  28.743   2.181  1.00  0.00     0.162 HD
BRANCH   6   8
HETATM    8  C7  UNL     1      -9.982  27.195   1.935  1.00  0.00     0.034 C
HETATM    9  C8  UNL     1     -10.431  26.147   2.909  1.00  0.00     0.040 C
HETATM   10  C9  UNL     1     -10.080  24.749   2.424  1.00  0.00    -0.040 C
HETATM   11  C10 UNL     1     -10.712  23.773   3.387  1.00  0.00     0.015 C
HETATM   12  C11 UNL     1     -10.654  24.598   1.041  1.00  0.00     0.018 C
HETATM   13  C17 UNL     1      -8.568  24.667   2.441  1.00  0.00     0.018 C
HETATM   14  C12 UNL     1      -9.988  25.545   0.101  1.00  0.00    -0.040 C
HETATM   15  C13 UNL     1     -10.513  25.367  -1.311  1.00  0.00     0.015 C
HETATM   16  C14 UNL     1      -8.477  25.450   0.141  1.00  0.00     0.018 C
HETATM   17  C19 UNL     1     -10.346  26.971   0.518  1.00  0.00     0.040 C
HETATM   18  C15 UNL     1      -8.042  25.759   1.556  1.00  0.00    -0.040 C
HETATM   19  C16 UNL     1      -6.511  25.674   1.634  1.00  0.00     0.015 C
HETATM   20  C18 UNL     1      -8.434  27.141   1.978  1.00  0.00     0.040 C
ENDBRANCH   6   8
ENDBRANCH   3   6
BRANCH   1  21
HETATM   21  C4  UNL     1      -9.009  30.139   5.360  1.00  0.00     0.141 C
BRANCH  21  22
HETATM   22  C3  UNL     1      -8.009  29.269   6.086  1.00  0.00     0.135 C
BRANCH  22  23
HETATM   23  N1  UNL     1      -6.662  29.423   5.677  1.00  0.00    -0.419 N
HETATM   24  C1  UNL     1      -6.198  30.758   5.517  1.00  0.00     0.142 C
HETATM   25  C2  UNL     1      -6.172  28.478   4.732  1.00  0.00     0.142 C
ENDBRANCH  22  23
ENDBRANCH  21  22
ENDBRANCH   1  21
TORSDOF 5
ENDMDL