MODEL 3
REMARK VINA RESULT: -6.827012884      7.213      9.012
REMARK  4 active torsions:
REMARK  status: ('A' for Active; 'I' for Inactive)
REMARK    1  A    between atoms: C2_2  and  C3_3
REMARK    2  A    between atoms: C3_3  and  C4_4
REMARK    3  A    between atoms: C3_3  and  C6_6
REMARK       I    between atoms: C6_6  and  N1_8
REMARK    4  A    between atoms: C8_15  and  C9_16
ROOT
HETATM    1  C6  UNL     1     -11.147  24.381   3.225  1.00  0.00     0.227 C
HETATM    2  O1  UNL     1     -11.617  23.330   2.668  1.00  0.00    -0.273 OA
HETATM    3  N1  UNL     1     -11.635  24.868   4.416  1.00  0.00    -0.306 N
ATOM      4  H1  UNL     1     -10.959  25.324   5.029  1.00  0.00     0.171 HD
HETATM    5  C7  UNL     1     -12.862  24.810   4.847  1.00  0.00     0.167 A
HETATM    6  N2  UNL     1     -13.967  24.302   4.304  1.00  0.00    -0.279 N
ATOM      7  H2  UNL     1     -13.948  23.916   3.359  1.00  0.00     0.189 HD
HETATM    8  N3  UNL     1     -15.048  24.304   4.977  1.00  0.00    -0.295 N
ATOM      9  H3  UNL     1     -15.898  23.916   4.569  1.00  0.00     0.187 HD
HETATM   10  C8  UNL     1     -15.075  24.797   6.185  1.00  0.00     0.079 A
HETATM   11  S1  UNL     1     -13.459  25.302   6.399  1.00  0.00    -0.037 SA
ENDROOT
BRANCH   1  12
HETATM   12  C3  UNL     1     -10.031  25.031   2.481  1.00  0.00     0.077 C
BRANCH  12  13
HETATM   13  C2  UNL     1     -10.253  25.156   1.020  1.00  0.00     0.009 C
HETATM   14  C1  UNL     1      -9.053  25.647   0.311  1.00  0.00     0.006 C
ENDBRANCH  12  13
BRANCH  12  15
HETATM   15  C4  UNL     1      -8.804  24.201   2.840  1.00  0.00     0.009 C
HETATM   16  C5  UNL     1      -8.050  24.792   3.966  1.00  0.00     0.006 C
ENDBRANCH  12  15
ENDBRANCH   1  12
BRANCH  10  17
HETATM   17  C9  UNL     1     -16.157  24.877   7.198  1.00  0.00     0.015 C
HETATM   18  C10 UNL     1     -16.110  23.641   8.079  1.00  0.00     0.021 C
HETATM   19  C11 UNL     1     -16.909  23.863   9.311  1.00  0.00    -0.013 C
HETATM   20  C12 UNL     1     -16.144  24.805  10.220  1.00  0.00     0.005 C
HETATM   21  C16 UNL     1     -18.204  24.614   8.958  1.00  0.00     0.010 C
HETATM   22  C13 UNL     1     -15.785  26.024   9.437  1.00  0.00     0.006 C
HETATM   23  C14 UNL     1     -16.338  26.065   8.042  1.00  0.00     0.005 C
HETATM   24  C15 UNL     1     -17.835  25.722   8.029  1.00  0.00    -0.008 C
HETATM   25  C17 UNL     1     -17.524  25.107   6.642  1.00  0.00     0.021 C
ENDBRANCH  10  17
TORSDOF 4
ENDMDL