MODEL 5
REMARK VINA RESULT: -6.789109330      2.202      4.655
REMARK  5 active torsions:
REMARK  status: ('A' for Active; 'I' for Inactive)
REMARK    1  A    between atoms: C2_2  and  C3_3
REMARK    2  A    between atoms: C6_6  and  N1_7
REMARK    3  A    between atoms: C9_12  and  N3_13
REMARK    4  A    between atoms: N3_13  and  C10_15
REMARK    5  A    between atoms: C10_15  and  C11_16
ROOT
HETATM    1  N1  UNL     1      -8.284  26.775   3.436  1.00  0.00    -0.271 N
HETATM    2  N2  UNL     1      -7.083  27.306   3.454  1.00  0.00    -0.298 N
ATOM      3  H2  UNL     1      -6.540  27.531   2.619  1.00  0.00     0.187 HD
HETATM    4  C7  UNL     1      -6.662  27.515   4.707  1.00  0.00     0.064 A
HETATM    5  C8  UNL     1      -7.719  27.062   5.513  1.00  0.00     0.015 A
HETATM    6  C9  UNL     1      -8.725  26.603   4.722  1.00  0.00     0.126 A
HETATM    7  C14 UNL     1      -7.513  27.175   6.954  1.00  0.00     0.075 C
HETATM    8  C15 UNL     1      -6.036  26.806   7.194  1.00  0.00     0.277 C
HETATM    9  N4  UNL     1      -5.165  27.778   6.624  1.00  0.00     0.090 N
HETATM   10  C16 UNL     1      -3.808  27.348   6.787  1.00  0.00     0.310 C
HETATM   11  C17 UNL     1      -5.419  28.080   5.258  1.00  0.00     0.330 C
ENDROOT
BRANCH   1  12
HETATM   12  C6  UNL     1      -8.966  26.449   2.238  1.00  0.00     0.110 C
HETATM   13  C5  UNL     1      -8.396  25.181   1.611  1.00  0.00     0.028 C
HETATM   14  C4  UNL     1      -8.364  25.281   0.124  1.00  0.00     0.007 C
HETATM   15  C3  UNL     1      -9.620  25.847  -0.494  1.00  0.00    -0.015 C
HETATM   16  C19 UNL     1     -10.194  27.012   0.254  1.00  0.00     0.007 C
HETATM   17  C18 UNL     1      -9.117  27.530   1.230  1.00  0.00     0.028 C
BRANCH  15  18
HETATM   18  C2  UNL     1     -10.608  24.771  -0.816  1.00  0.00     0.000 C
HETATM   19  C1  UNL     1     -11.755  25.185  -1.663  1.00  0.00     0.005 C
ENDBRANCH  15  18
ENDBRANCH   1  12
BRANCH   6  20
HETATM   20  N3  UNL     1      -9.821  26.127   4.991  1.00  0.00    -0.374 N
ATOM     21  H3  UNL     1     -10.484  26.883   5.163  1.00  0.00     0.161 HD
BRANCH  20  22
HETATM   22  C10 UNL     1     -10.465  24.912   5.140  1.00  0.00     0.126 C
BRANCH  22  23
HETATM   23  C11 UNL     1     -11.533  24.807   4.035  1.00  0.00     0.003 A
HETATM   24  C12 UNL     1     -12.417  23.578   4.061  1.00  0.00     0.007 A
HETATM   25  C13 UNL     1     -11.384  23.715   2.995  1.00  0.00     0.007 A
ENDBRANCH  22  23
ENDBRANCH  20  22
ENDBRANCH   6  20
TORSDOF 5
ENDMDL