MODEL 1
REMARK VINA RESULT: -7.841969323      0.000      0.000
REMARK  5 active torsions:
REMARK  status: ('A' for Active; 'I' for Inactive)
REMARK    1  A    between atoms: C3_3  and  C4_4
REMARK    2  A    between atoms: C4_4  and  C5_5
REMARK    3  A    between atoms: C5_5  and  C6_6
REMARK    4  A    between atoms: C6_6  and  O1_7
REMARK    5  A    between atoms: C14_15  and  O2_16
ROOT
HETATM    1  C6  UNL     1      -9.881  25.210   1.102  1.00  0.00     0.121 C
HETATM    2  C8  UNL     1     -10.415  26.664   1.372  1.00  0.00     0.056 C
HETATM    3  C9  UNL     1     -10.092  27.127   2.751  1.00  0.00    -0.029 C
HETATM    4  C10 UNL     1     -10.837  28.444   2.965  1.00  0.00     0.011 C
HETATM    5  C11 UNL     1      -9.893  29.373   3.687  1.00  0.00     0.006 C
HETATM    6  C12 UNL     1      -8.623  28.636   3.920  1.00  0.00    -0.007 C
HETATM    7  C13 UNL     1      -7.429  29.520   3.590  1.00  0.00     0.036 C
HETATM    8  C14 UNL     1      -7.381  29.509   2.104  1.00  0.00     0.118 C
HETATM    9  C15 UNL     1      -8.435  28.504   1.626  1.00  0.00     0.037 C
HETATM   10  C16 UNL     1      -8.678  27.577   2.821  1.00  0.00     0.001 C
HETATM   11  C17 UNL     1     -10.594  26.188   3.757  1.00  0.00    -0.003 C
HETATM   12  C18 UNL     1     -10.444  26.514   5.190  1.00  0.00     0.011 C
HETATM   13  C19 UNL     1     -10.141  24.733   3.571  1.00  0.00     0.086 C
HETATM   14  C20 UNL     1     -10.523  24.413   2.198  1.00  0.00     0.161 C
HETATM   15  O3  UNL     1     -11.302  23.569   1.946  1.00  0.00    -0.295 OA
ENDROOT
BRANCH   1  16
HETATM   16  C5  UNL     1     -10.458  24.885  -0.230  1.00  0.00     0.050 C
BRANCH  16  17
HETATM   17  C4  UNL     1     -10.987  25.945  -1.089  1.00  0.00     0.030 C
BRANCH  17  18
HETATM   18  C3  UNL     1     -12.138  25.460  -1.949  1.00  0.00    -0.031 C
HETATM   19  C2  UNL     1     -12.542  24.211  -1.950  1.00  0.00    -0.035 C
HETATM   20  C1  UNL     1     -13.668  23.798  -2.808  1.00  0.00     0.036 C
ENDBRANCH  17  18
ENDBRANCH  16  17
ENDBRANCH   1  16
BRANCH   1  21
HETATM   21  O1  UNL     1      -8.558  25.235   1.169  1.00  0.00    -0.377 OA
HETATM   22  C7  UNL     1      -7.667  25.217   0.204  1.00  0.00     0.203 C
ENDBRANCH   1  21
BRANCH   8  23
HETATM   23  O2  UNL     1      -7.634  30.724   1.506  1.00  0.00    -0.396 OA
ATOM     24  H2  UNL     1      -7.939  30.672   0.608  1.00  0.00     0.210 HD
ENDBRANCH   8  23
TORSDOF 5
ENDMDL