MODEL 2
REMARK VINA RESULT: -6.460881271      2.134      4.357
REMARK  5 active torsions:
REMARK  status: ('A' for Active; 'I' for Inactive)
REMARK    1  A    between atoms: C2_2  and  C3_3
REMARK    2  A    between atoms: C3_3  and  N1_4
REMARK    3  A    between atoms: C13_14  and  C15_16
REMARK    4  A    between atoms: C15_16  and  O1_17
REMARK    5  A    between atoms: C16_19  and  C17_20
ROOT
HETATM    1  N1  UNL     1      -9.650  25.834   4.243  1.00  0.00    -0.349 N
HETATM    2  C4  UNL     1     -10.342  26.230   5.466  1.00  0.00     0.327 C
HETATM    3  C5  UNL     1     -11.448  27.176   5.053  1.00  0.00     0.035 C
HETATM    4  C6  UNL     1     -12.811  26.550   5.104  1.00  0.00     0.014 C
HETATM    5  C7  UNL     1     -11.145  27.791   3.698  1.00  0.00     0.008 C
HETATM    6  C8  UNL     1      -9.933  28.659   3.817  1.00  0.00     0.006 C
HETATM    7  C9  UNL     1      -8.863  28.210   2.884  1.00  0.00     0.003 C
HETATM    8  C10 UNL     1      -8.020  27.062   3.166  1.00  0.00     0.025 C
HETATM    9  C11 UNL     1      -6.832  27.875   2.966  1.00  0.00    -0.001 C
HETATM   10  C12 UNL     1      -6.079  27.622   1.634  1.00  0.00     0.011 C
HETATM   11  C13 UNL     1      -7.687  29.159   2.798  1.00  0.00    -0.015 C
HETATM   12  C14 UNL     1      -7.525  30.163   3.885  1.00  0.00     0.018 C
HETATM   13  C16 UNL     1      -8.298  26.196   4.359  1.00  0.00     0.064 C
HETATM   14  C19 UNL     1      -8.129  26.767   5.705  1.00  0.00     0.306 C
HETATM   15  N2  UNL     1      -9.439  26.890   6.318  1.00  0.00     0.110 N
HETATM   16  C20 UNL     1      -9.475  26.540   7.697  1.00  0.00     0.312 C
ENDROOT
BRANCH  11  17
HETATM   17  C15 UNL     1      -7.552  29.833   1.466  1.00  0.00     0.173 C
BRANCH  17  18
HETATM   18  O1  UNL     1      -7.583  31.183   1.471  1.00  0.00    -0.400 OA
ATOM     19  H1  UNL     1      -6.796  31.621   1.771  1.00  0.00     0.209 HD
ENDBRANCH  17  18
ENDBRANCH  11  17
BRANCH  13  20
HETATM   20  C17 UNL     1      -7.314  25.034   4.266  1.00  0.00     0.029 C
HETATM   21  C18 UNL     1      -6.290  24.966   5.359  1.00  0.00     0.007 C
ENDBRANCH  13  20
BRANCH   1  22
HETATM   22  C3  UNL     1     -10.194  24.647   3.821  1.00  0.00     0.088 C
BRANCH  22  23
HETATM   23  C2  UNL     1     -10.796  24.468   2.493  1.00  0.00     0.007 C
HETATM   24  C1  UNL     1     -10.207  24.913   1.374  1.00  0.00     0.012 C
ENDBRANCH  22  23
ENDBRANCH   1  22
TORSDOF 5
ENDMDL