MODEL 1
REMARK VINA RESULT: -6.699727421      0.000      0.000
REMARK  5 active torsions:
REMARK  status: ('A' for Active; 'I' for Inactive)
REMARK    1  A    between atoms: C2_2  and  C14_18
REMARK    2  A    between atoms: C3_3  and  C4_4
REMARK    3  A    between atoms: C4_4  and  C7_7
REMARK    4  A    between atoms: C7_7  and  C9_9
REMARK    5  A    between atoms: C7_7  and  N1_12
ROOT
HETATM    1  C7  UNL     1      -9.171  26.190   1.573  1.00  0.00     0.130 C
HETATM    2  C8  UNL     1      -7.970  25.381   0.894  1.00  0.00     0.052 C
ENDROOT
BRANCH   1   3
HETATM    3  C4  UNL     1      -9.798  25.166   2.461  1.00  0.00     0.006 C
HETATM    4  C5  UNL     1     -10.630  24.176   1.542  1.00  0.00     0.022 C
HETATM    5  C6  UNL     1      -8.769  24.253   3.049  1.00  0.00     0.022 C
BRANCH   3   6
HETATM    6  C3  UNL     1     -10.803  25.632   3.408  1.00  0.00    -0.012 C
HETATM    7  C2  UNL     1     -11.669  25.021   4.174  1.00  0.00    -0.079 C
HETATM    8  C1  UNL     1     -11.910  23.564   4.325  1.00  0.00     0.044 C
BRANCH   7   9
HETATM    9  C14 UNL     1     -12.619  25.829   5.065  1.00  0.00    -0.029 C
HETATM   10  C15 UNL     1     -12.468  27.293   4.898  1.00  0.00     0.019 C
HETATM   11  C16 UNL     1     -12.361  25.497   6.523  1.00  0.00     0.019 C
HETATM   12  C17 UNL     1     -14.002  25.304   4.737  1.00  0.00     0.019 C
ENDBRANCH   7   9
ENDBRANCH   3   6
ENDBRANCH   1   3
BRANCH   1  13
HETATM   13  C9  UNL     1      -9.910  26.514   0.328  1.00  0.00     0.203 C
HETATM   14  O1  UNL     1     -10.836  27.288   0.137  1.00  0.00    -0.646 OA
HETATM   15  O2  UNL     1      -9.498  25.816  -0.835  1.00  0.00    -0.646 OA
ENDBRANCH   1  13
BRANCH   1  16
HETATM   16  N1  UNL     1      -8.584  27.344   2.161  1.00  0.00    -0.352 N
HETATM   17  C10 UNL     1      -9.189  28.010   3.192  1.00  0.00     0.074 C
HETATM   18  C11 UNL     1      -9.351  29.504   3.172  1.00  0.00     0.118 C
HETATM   19  S1  UNL     1      -7.842  30.338   2.623  1.00  0.00    -0.159 SA
HETATM   20  C12 UNL     1      -7.061  29.215   1.454  1.00  0.00     0.118 C
HETATM   21  C13 UNL     1      -7.333  27.757   1.725  1.00  0.00     0.074 C
ENDBRANCH   1  16
TORSDOF 5
ENDMDL