MODEL 1
REMARK VINA RESULT: -6.568428407      0.000      0.000
REMARK  5 active torsions:
REMARK  status: ('A' for Active; 'I' for Inactive)
REMARK    1  A    between atoms: C2_2  and  C4_4
REMARK    2  A    between atoms: C4_4  and  C5_5
REMARK    3  A    between atoms: C6_6  and  N1_7
REMARK       I    between atoms: N1_7  and  C7_9
REMARK    4  A    between atoms: C7_9  and  C8_11
REMARK    5  A    between atoms: N2_18  and  C13_19
ROOT
HETATM    1  C5  UNL     1      -8.228  28.748   3.261  1.00  0.00     0.139 C
HETATM    2  C6  UNL     1      -8.738  28.662   1.883  1.00  0.00     0.257 C
HETATM    3  O2  UNL     1      -7.558  29.220   1.183  1.00  0.00    -0.276 OA
HETATM    4  C12 UNL     1      -6.531  28.509   1.787  1.00  0.00     0.365 C
HETATM    5  O3  UNL     1      -5.452  28.224   1.186  1.00  0.00    -0.238 OA
HETATM    6  N2  UNL     1      -6.899  28.173   3.149  1.00  0.00    -0.314 N
ENDROOT
BRANCH   2   7
HETATM    7  N1  UNL     1      -8.741  27.250   1.458  1.00  0.00    -0.332 N
HETATM    8  C7  UNL     1      -9.872  26.764   0.737  1.00  0.00     0.227 C
HETATM    9  O1  UNL     1     -10.838  27.509   0.468  1.00  0.00    -0.273 OA
ATOM     10  H1  UNL     1      -7.956  26.636   1.675  1.00  0.00     0.165 HD
BRANCH   8  11
HETATM   11  C8  UNL     1      -9.915  25.347   0.291  1.00  0.00     0.030 C
HETATM   12  C9  UNL     1     -10.507  24.471   1.364  1.00  0.00     0.024 C
HETATM   13  C10 UNL     1      -8.504  24.884   0.020  1.00  0.00     0.024 C
HETATM   14  C11 UNL     1     -10.788  25.189  -0.943  1.00  0.00     0.024 C
ENDBRANCH   8  11
ENDBRANCH   2   7
BRANCH   1  15
HETATM   15  C4  UNL     1      -9.061  28.205   4.320  1.00  0.00     0.033 C
BRANCH  15  16
HETATM   16  C2  UNL     1     -10.531  28.307   4.125  1.00  0.00    -0.021 C
HETATM   17  C1  UNL     1     -11.122  29.266   5.194  1.00  0.00     0.009 C
HETATM   18  C3  UNL     1     -11.308  27.059   4.253  1.00  0.00     0.009 C
ENDBRANCH  15  16
ENDBRANCH   1  15
BRANCH   6  19
HETATM   19  C13 UNL     1      -6.026  27.468   4.016  1.00  0.00     0.090 C
HETATM   20  C14 UNL     1      -5.615  28.251   5.246  1.00  0.00     0.025 C
HETATM   21  C15 UNL     1      -4.337  27.574   5.765  1.00  0.00     0.002 C
HETATM   22  C16 UNL     1      -4.558  26.130   6.084  1.00  0.00     0.000 C
HETATM   23  C17 UNL     1      -5.255  25.371   4.978  1.00  0.00     0.002 C
HETATM   24  C18 UNL     1      -6.486  26.115   4.485  1.00  0.00     0.025 C
ENDBRANCH   6  19
TORSDOF 5
ENDMDL