MODEL 1
REMARK VINA RESULT: -7.146791040      0.000      0.000
REMARK  5 active torsions:
REMARK  status: ('A' for Active; 'I' for Inactive)
REMARK    1  A    between atoms: C2_2  and  O1_5
REMARK    2  A    between atoms: O1_5  and  C5_6
REMARK    3  A    between atoms: C5_6  and  C6_8
REMARK    4  A    between atoms: N1_9  and  N2_11
REMARK       I    between atoms: N2_11  and  C7_13
REMARK    5  A    between atoms: C7_13  and  C8_15
ROOT
HETATM    1  N2  UNL     1     -10.597  25.316   3.183  1.00  0.00    -0.270 N
ATOM      2  H2  UNL     1     -10.254  26.049   3.804  1.00  0.00     0.190 HD
HETATM    3  C7  UNL     1     -10.246  25.375   1.797  1.00  0.00     0.244 C
HETATM    4  O3  UNL     1     -10.661  24.482   1.039  1.00  0.00    -0.271 OA
ENDROOT
BRANCH   3   5
HETATM    5  C8  UNL     1      -9.382  26.516   1.295  1.00  0.00     0.040 C
HETATM    6  C9  UNL     1     -10.001  26.862  -0.072  1.00  0.00     0.025 C
HETATM    7  C10 UNL     1      -9.667  27.632   2.204  1.00  0.00     0.023 C
HETATM    8  C11 UNL     1      -8.705  28.732   2.309  1.00  0.00    -0.013 C
HETATM    9  C12 UNL     1      -8.056  28.700   3.700  1.00  0.00     0.010 C
HETATM   10  C18 UNL     1      -7.552  28.745   1.396  1.00  0.00     0.010 C
HETATM   11  C13 UNL     1      -6.852  27.837   3.532  1.00  0.00    -0.009 C
HETATM   12  C14 UNL     1      -7.091  26.347   3.481  1.00  0.00     0.010 C
HETATM   13  C17 UNL     1      -6.555  27.838   2.053  1.00  0.00    -0.006 C
HETATM   14  C15 UNL     1      -6.940  26.395   2.015  1.00  0.00    -0.009 C
HETATM   15  C16 UNL     1      -8.032  26.032   1.105  1.00  0.00     0.024 C
ENDBRANCH   3   5
BRANCH   1  16
HETATM   16  N1  UNL     1     -11.378  24.312   3.720  1.00  0.00    -0.303 N
HETATM   17  C6  UNL     1     -12.434  24.585   4.388  1.00  0.00     0.189 C
ATOM     18  H1  UNL     1     -11.109  23.338   3.581  1.00  0.00     0.186 HD
BRANCH  17  19
HETATM   19  C5  UNL     1     -13.266  23.536   4.960  1.00  0.00     0.300 C
HETATM   20  O2  UNL     1     -13.421  22.432   4.364  1.00  0.00    -0.259 OA
BRANCH  19  21
HETATM   21  O1  UNL     1     -13.917  23.705   6.171  1.00  0.00    -0.307 OA
BRANCH  21  22
HETATM   22  C2  UNL     1     -14.854  24.726   6.402  1.00  0.00     0.060 C
HETATM   23  C1  UNL     1     -14.222  25.981   6.939  1.00  0.00     0.046 C
HETATM   24  C3  UNL     1     -15.655  25.044   5.139  1.00  0.00     0.046 C
HETATM   25  C4  UNL     1     -15.842  24.235   7.447  1.00  0.00     0.046 C
ENDBRANCH  21  22
ENDBRANCH  19  21
ENDBRANCH  17  19
ENDBRANCH   1  16
TORSDOF 5
ENDMDL