MODEL 3
REMARK VINA RESULT: -6.451652251      4.314      6.010
REMARK  5 active torsions:
REMARK  status: ('A' for Active; 'I' for Inactive)
REMARK    1  A    between atoms: C2_2  and  O1_4
REMARK    2  A    between atoms: C2_2  and  C4_6
REMARK    3  A    between atoms: C4_6  and  C5_7
REMARK    4  A    between atoms: C4_6  and  N1_14
REMARK    5  A    between atoms: C5_7  and  C6_8
ROOT
HETATM    1  C4  UNL     1     -10.141  25.131   4.072  1.00  0.00     0.113 C
ENDROOT
BRANCH   1   2
HETATM    2  C2  UNL     1      -8.997  25.518   5.002  1.00  0.00     0.071 C
HETATM    3  C1  UNL     1      -7.776  24.733   4.495  1.00  0.00     0.047 C
HETATM    4  C3  UNL     1      -8.654  26.962   4.968  1.00  0.00     0.047 C
BRANCH   2   5
HETATM    5  O1  UNL     1      -9.216  25.084   6.287  1.00  0.00    -0.389 OA
ATOM      6  H1  UNL     1      -9.429  25.861   6.791  1.00  0.00     0.210 HD
ENDBRANCH   2   5
ENDBRANCH   1   2
BRANCH   1   7
HETATM    7  C5  UNL     1     -10.192  25.999   2.873  1.00  0.00     0.032 C
BRANCH   7   8
HETATM    8  C6  UNL     1      -9.671  25.376   1.603  1.00  0.00    -0.013 C
HETATM    9  C7  UNL     1      -9.175  26.349   0.626  1.00  0.00     0.005 C
HETATM   10  C8  UNL     1     -10.034  26.575  -0.584  1.00  0.00     0.000 C
HETATM   11  C9  UNL     1     -10.240  25.207  -1.223  1.00  0.00     0.000 C
HETATM   12  C10 UNL     1     -11.125  24.464  -0.275  1.00  0.00     0.000 C
HETATM   13  C11 UNL     1     -10.650  24.360   1.120  1.00  0.00     0.005 C
ENDBRANCH   7   8
ENDBRANCH   1   7
BRANCH   1  14
HETATM   14  N1  UNL     1     -11.368  24.862   4.703  1.00  0.00    -0.405 N
HETATM   15  C12 UNL     1     -12.290  25.958   4.756  1.00  0.00     0.122 C
HETATM   16  C13 UNL     1     -13.276  25.830   5.890  1.00  0.00     0.088 C
HETATM   17  C14 UNL     1     -13.791  24.445   6.087  1.00  0.00     0.167 C
HETATM   18  C15 UNL     1     -12.943  23.349   5.576  1.00  0.00     0.088 C
HETATM   19  O2  UNL     1     -15.061  24.312   5.530  1.00  0.00    -0.353 OA
HETATM   20  O3  UNL     1     -13.940  24.241   7.477  1.00  0.00    -0.353 OA
HETATM   21  C16 UNL     1     -12.071  23.679   4.387  1.00  0.00     0.122 C
HETATM   22  C17 UNL     1     -15.889  24.822   6.504  1.00  0.00     0.197 C
HETATM   23  C18 UNL     1     -15.276  24.282   7.766  1.00  0.00     0.197 C
ENDBRANCH   1  14
TORSDOF 5
ENDMDL