MODEL 2
REMARK VINA RESULT: -6.432497770      4.081      6.916
REMARK  7 active torsions:
REMARK  status: ('A' for Active; 'I' for Inactive)
REMARK    1  A    between atoms: C2_2  and  C3_3
REMARK    2  A    between atoms: C3_3  and  O1_4
REMARK    3  A    between atoms: O1_4  and  C4_5
REMARK    4  A    between atoms: C4_5  and  C5_6
REMARK    5  A    between atoms: C5_6  and  C6_7
REMARK    6  A    between atoms: C6_7  and  N1_8
REMARK    7  A    between atoms: C12_16  and  C13_17
ROOT
HETATM    1  C4  UNL     1      22.824  29.715   4.127  1.00  0.00     0.195 C
HETATM    2  O2  UNL     1      21.551  29.774   4.747  1.00  0.00    -0.322 OA
HETATM    3  C10 UNL     1      21.759  30.052   6.077  1.00  0.00     0.272 C
HETATM    4  O3  UNL     1      23.024  30.661   6.130  1.00  0.00    -0.349 OA
HETATM    5  C11 UNL     1      23.711  29.684   5.364  1.00  0.00     0.197 C
HETATM    6  C12 UNL     1      23.433  28.426   6.101  1.00  0.00     0.073 C
HETATM    7  C21 UNL     1      22.106  28.724   6.764  1.00  0.00     0.013 C
HETATM    8  C22 UNL     1      21.071  27.671   6.457  1.00  0.00     0.020 C
HETATM    9  C23 UNL     1      22.193  28.981   8.231  1.00  0.00     0.020 C
ENDROOT
BRANCH   1  10
HETATM   10  O1  UNL     1      22.964  28.589   3.361  1.00  0.00    -0.349 OA
BRANCH  10  11
HETATM   11  C3  UNL     1      23.615  28.790   2.168  1.00  0.00     0.198 C
BRANCH  11  12
HETATM   12  C2  UNL     1      23.637  27.585   1.320  1.00  0.00    -0.011 C
HETATM   13  C1  UNL     1      24.674  27.340   0.546  1.00  0.00     0.009 C
ENDBRANCH  11  12
ENDBRANCH  10  11
ENDBRANCH   1  10
BRANCH   1  14
HETATM   14  C5  UNL     1      22.984  31.016   3.387  1.00  0.00     0.099 C
BRANCH  14  15
HETATM   15  C6  UNL     1      21.682  31.669   3.059  1.00  0.00     0.241 C
BRANCH  15  16
HETATM   16  N1  UNL     1      21.721  33.051   3.463  1.00  0.00    -0.078 N
HETATM   17  C7  UNL     1      20.713  33.257   4.485  1.00  0.00     0.271 C
HETATM   18  C8  UNL     1      22.993  33.451   4.008  1.00  0.00     0.271 C
HETATM   19  C9  UNL     1      21.425  33.948   2.346  1.00  0.00     0.271 C
ENDBRANCH  15  16
ENDBRANCH  14  15
ENDBRANCH   1  14
BRANCH   6  20
HETATM   20  C13 UNL     1      24.511  28.113   7.078  1.00  0.00    -0.008 A
HETATM   21  C14 UNL     1      24.612  27.083   7.975  1.00  0.00     0.027 A
HETATM   22  C15 UNL     1      25.711  27.037   8.746  1.00  0.00    -0.018 A
HETATM   23  C16 UNL     1      26.021  26.077   9.727  1.00  0.00     0.013 A
HETATM   24  C20 UNL     1      26.641  28.025   8.573  1.00  0.00     0.015 A
HETATM   25  C17 UNL     1      27.167  26.127  10.453  1.00  0.00     0.001 A
HETATM   26  C18 UNL     1      28.101  27.119  10.277  1.00  0.00     0.001 A
HETATM   27  C19 UNL     1      27.826  28.074   9.324  1.00  0.00     0.019 A
HETATM   28  S1  UNL     1      25.951  28.984   7.338  1.00  0.00    -0.094 SA
ENDBRANCH   6  20
TORSDOF 7
ENDMDL