MODEL 3
REMARK VINA RESULT: -6.691791240      1.145      1.615
REMARK  8 active torsions:
REMARK  status: ('A' for Active; 'I' for Inactive)
REMARK       I    between atoms: N1_2  and  C2_3
REMARK    1  A    between atoms: N1_2  and  C17_22
REMARK    2  A    between atoms: C2_3  and  C3_5
REMARK    3  A    between atoms: C4_6  and  C5_7
REMARK    4  A    between atoms: C5_7  and  C6_8
REMARK    5  A    between atoms: C6_8  and  C7_9
REMARK    6  A    between atoms: C7_9  and  C8_10
REMARK    7  A    between atoms: C8_10  and  O3_12
REMARK    8  A    between atoms: O3_12  and  C9_13
ROOT
HETATM    1  C5  UNL     1      27.229  29.414   5.732  1.00  0.00     0.028 C
ENDROOT
BRANCH   1   2
HETATM    2  C4  UNL     1      27.409  28.336   6.722  1.00  0.00    -0.021 C
HETATM    3  C3  UNL     1      27.106  28.591   8.006  1.00  0.00     0.070 C
BRANCH   3   4
HETATM    4  C2  UNL     1      27.273  27.551   9.004  1.00  0.00     0.243 C
HETATM    5  N1  UNL     1      26.219  27.166   9.832  1.00  0.00    -0.348 N
HETATM    6  C1  UNL     1      26.480  26.095  10.820  1.00  0.00     0.153 C
HETATM    7  O1  UNL     1      28.392  27.001   9.110  1.00  0.00    -0.268 OA
BRANCH   5   8
HETATM    8  C17 UNL     1      24.874  27.712   9.826  1.00  0.00     0.087 C
HETATM    9  C18 UNL     1      24.431  28.102  11.184  1.00  0.00     0.025 C
HETATM   10  C19 UNL     1      23.818  29.496  11.218  1.00  0.00     0.002 C
HETATM   11  C20 UNL     1      22.333  29.444  10.935  1.00  0.00     0.000 C
HETATM   12  C21 UNL     1      22.032  29.323   9.470  1.00  0.00     0.000 C
HETATM   13  C22 UNL     1      21.618  27.960   9.066  1.00  0.00     0.000 C
HETATM   14  C23 UNL     1      22.516  26.831   9.447  1.00  0.00     0.002 C
HETATM   15  C24 UNL     1      23.919  26.910   8.998  1.00  0.00     0.025 C
ENDBRANCH   5   8
ENDBRANCH   3   4
ENDBRANCH   1   2
BRANCH   1  16
HETATM   16  C6  UNL     1      27.764  30.700   6.296  1.00  0.00     0.013 C
BRANCH  16  17
HETATM   17  C7  UNL     1      26.988  31.854   5.739  1.00  0.00     0.111 C
BRANCH  17  18
HETATM   18  C8  UNL     1      25.670  31.906   6.430  1.00  0.00     0.259 C
HETATM   19  O2  UNL     1      25.590  32.158   7.642  1.00  0.00    -0.265 OA
BRANCH  18  20
HETATM   20  O3  UNL     1      24.533  31.667   5.695  1.00  0.00    -0.316 OA
BRANCH  20  21
HETATM   21  C9  UNL     1      23.421  30.981   6.222  1.00  0.00     0.136 C
HETATM   22  C10 UNL     1      23.718  29.523   6.339  1.00  0.00     0.068 C
HETATM   23  C11 UNL     1      23.240  28.700   5.162  1.00  0.00     0.225 C
HETATM   24  C12 UNL     1      21.833  28.245   5.458  1.00  0.00     0.038 C
HETATM   25  N2  UNL     1      23.180  29.553   4.004  1.00  0.00     0.093 N
HETATM   26  C13 UNL     1      20.991  29.244   4.708  1.00  0.00     0.038 C
HETATM   27  C14 UNL     1      21.964  30.319   4.272  1.00  0.00     0.225 C
HETATM   28  C15 UNL     1      22.235  31.307   5.357  1.00  0.00     0.068 C
HETATM   29  C16 UNL     1      23.096  28.821   2.764  1.00  0.00     0.310 C
ENDBRANCH  20  21
ENDBRANCH  18  20
ENDBRANCH  17  18
ENDBRANCH  16  17
ENDBRANCH   1  16
TORSDOF 8
ENDMDL