MODEL 2
REMARK VINA RESULT: -6.158805691      3.543      6.728
REMARK  8 active torsions:
REMARK  status: ('A' for Active; 'I' for Inactive)
REMARK    1  A    between atoms: C2_2  and  O1_3
REMARK    2  A    between atoms: O1_3  and  C3_4
REMARK       I    between atoms: C3_4  and  N1_6
REMARK       I    between atoms: N2_9  and  C6_10
REMARK    3  A    between atoms: C6_10  and  C7_12
REMARK    4  A    between atoms: C7_12  and  C8_13
REMARK    5  A    between atoms: C7_12  and  C16_22
REMARK    6  A    between atoms: C8_13  and  C9_14
REMARK    7  A    between atoms: C9_14  and  S1_15
REMARK    8  A    between atoms: S1_15  and  C10_16
ROOT
HETATM    1  C7  UNL     1      24.250  27.063   8.709  1.00  0.00     0.086 C
ENDROOT
BRANCH   1   2
HETATM    2  C6  UNL     1      24.750  27.761   7.499  1.00  0.00     0.224 C
HETATM    3  N2  UNL     1      24.112  28.782   6.787  1.00  0.00    -0.349 N
HETATM    4  C5  UNL     1      22.855  29.397   7.126  1.00  0.00     0.145 C
HETATM    5  C20 UNL     1      24.727  29.304   5.584  1.00  0.00     0.145 C
HETATM    6  C4  UNL     1      23.137  30.843   7.491  1.00  0.00     0.148 C
HETATM    7  N1  UNL     1      23.812  31.446   6.365  1.00  0.00    -0.325 N
HETATM    8  C3  UNL     1      23.404  32.754   5.931  1.00  0.00     0.362 C
HETATM    9  C21 UNL     1      24.883  30.808   5.647  1.00  0.00     0.148 C
HETATM   10  O2  UNL     1      23.964  33.316   4.949  1.00  0.00    -0.238 OA
HETATM   11  O3  UNL     1      25.897  27.396   7.038  1.00  0.00    -0.273 OA
BRANCH   8  12
HETATM   12  O1  UNL     1      22.394  33.470   6.545  1.00  0.00    -0.304 OA
BRANCH  12  13
HETATM   13  C2  UNL     1      21.220  33.881   5.873  1.00  0.00     0.176 C
HETATM   14  C1  UNL     1      20.403  32.615   5.630  1.00  0.00     0.034 C
ENDBRANCH  12  13
ENDBRANCH   8  12
ENDBRANCH   1   2
BRANCH   1  15
HETATM   15  C8  UNL     1      25.413  26.621   9.588  1.00  0.00     0.025 C
BRANCH  15  16
HETATM   16  C9  UNL     1      25.832  27.781  10.486  1.00  0.00     0.075 C
BRANCH  16  17
HETATM   17  S1  UNL     1      24.576  28.132  11.729  1.00  0.00    -0.164 SA
BRANCH  17  18
HETATM   18  C10 UNL     1      23.761  29.690  11.276  1.00  0.00     0.047 C
HETATM   19  C11 UNL     1      22.325  29.507  10.875  1.00  0.00     0.015 C
HETATM   20  C12 UNL     1      21.562  30.754  11.241  1.00  0.00     0.001 C
HETATM   21  C13 UNL     1      21.520  30.855  12.740  1.00  0.00     0.000 C
HETATM   22  C14 UNL     1      22.896  30.770  13.359  1.00  0.00     0.001 C
HETATM   23  C15 UNL     1      23.983  30.761  12.307  1.00  0.00     0.015 C
ENDBRANCH  17  18
ENDBRANCH  16  17
ENDBRANCH  15  16
ENDBRANCH   1  15
BRANCH   1  24
HETATM   24  C16 UNL     1      23.466  25.812   8.438  1.00  0.00    -0.039 C
HETATM   25  C17 UNL     1      24.311  24.608   8.122  1.00  0.00     0.015 C
HETATM   26  C18 UNL     1      22.771  25.483   9.774  1.00  0.00     0.015 C
HETATM   27  C19 UNL     1      22.332  25.975   7.455  1.00  0.00     0.015 C
ENDBRANCH   1  24
TORSDOF 8
ENDMDL