MODEL 2
REMARK VINA RESULT: -6.569413024      0.634      1.619
REMARK  8 active torsions:
REMARK  status: ('A' for Active; 'I' for Inactive)
REMARK    1  A    between atoms: C2_2  and  N3_23
REMARK    2  A    between atoms: C3_3  and  C4_4
REMARK    3  A    between atoms: C4_4  and  N1_5
REMARK    4  A    between atoms: N2_8  and  S1_9
REMARK    5  A    between atoms: S1_9  and  C7_12
REMARK    6  A    between atoms: C7_12  and  C8_13
REMARK    7  A    between atoms: C8_13  and  C9_14
REMARK    8  A    between atoms: C10_15  and  C12_17
ROOT
HETATM    1  N1  UNL     1      25.214  29.630   7.825  1.00  0.00    -0.341 N
HETATM    2  C5  UNL     1      25.889  28.941   6.852  1.00  0.00     0.111 A
HETATM    3  C6  UNL     1      25.164  28.959   5.686  1.00  0.00     0.128 A
HETATM    4  N2  UNL     1      24.041  29.660   5.942  1.00  0.00    -0.238 N
HETATM    5  C16 UNL     1      24.103  30.046   7.227  1.00  0.00     0.096 A
HETATM    6  C17 UNL     1      23.042  30.865   7.880  1.00  0.00     0.090 C
ENDROOT
BRANCH   4   7
HETATM    7  S1  UNL     1      22.775  29.975   4.789  1.00  0.00     0.237 S
HETATM    8  O1  UNL     1      23.433  30.039   3.421  1.00  0.00    -0.205 OA
HETATM    9  O2  UNL     1      22.141  31.293   5.013  1.00  0.00    -0.205 OA
BRANCH   7  10
HETATM   10  C7  UNL     1      21.641  28.623   4.731  1.00  0.00     0.168 C
BRANCH  10  11
HETATM   11  C8  UNL     1      21.306  28.143   6.096  1.00  0.00     0.044 C
BRANCH  11  12
HETATM   12  C9  UNL     1      22.032  26.931   6.541  1.00  0.00    -0.023 C
HETATM   13  C10 UNL     1      22.244  26.653   7.810  1.00  0.00    -0.080 C
HETATM   14  C11 UNL     1      21.713  27.631   8.825  1.00  0.00     0.044 C
BRANCH  13  15
HETATM   15  C12 UNL     1      22.969  25.443   8.219  1.00  0.00    -0.029 C
HETATM   16  C13 UNL     1      24.445  25.640   8.039  1.00  0.00     0.019 C
HETATM   17  C14 UNL     1      22.710  25.133   9.686  1.00  0.00     0.019 C
HETATM   18  C15 UNL     1      22.594  24.241   7.354  1.00  0.00     0.019 C
ENDBRANCH  13  15
ENDBRANCH  11  12
ENDBRANCH  10  11
ENDBRANCH   7  10
ENDBRANCH   4   7
BRANCH   1  19
HETATM   19  C4  UNL     1      25.710  29.781   9.189  1.00  0.00     0.159 C
BRANCH  19  20
HETATM   20  C3  UNL     1      25.436  28.619  10.026  1.00  0.00     0.017 C
HETATM   21  C2  UNL     1      24.758  28.558  11.133  1.00  0.00     0.001 C
HETATM   22  C1  UNL     1      24.662  27.163  11.759  1.00  0.00     0.067 C
BRANCH  21  23
HETATM   23  N3  UNL     1      24.143  29.629  11.822  1.00  0.00    -0.385 N
HETATM   24  C18 UNL     1      22.832  30.104  11.398  1.00  0.00     0.122 C
HETATM   25  C19 UNL     1      21.967  30.134  12.646  1.00  0.00     0.020 C
HETATM   26  C20 UNL     1      22.482  31.203  13.549  1.00  0.00     0.003 C
HETATM   27  C21 UNL     1      23.966  31.445  13.461  1.00  0.00     0.020 C
HETATM   28  C22 UNL     1      24.741  30.272  12.970  1.00  0.00     0.122 C
ENDBRANCH  21  23
ENDBRANCH  19  20
ENDBRANCH   1  19
TORSDOF 8
ENDMDL