MODEL 4
REMARK VINA RESULT: -6.953380070      7.106     10.342
REMARK  11 active torsions:
REMARK  status: ('A' for Active; 'I' for Inactive)
REMARK    1  A    between atoms: C2_2  and  C3_3
REMARK    2  A    between atoms: C3_3  and  C4_4
REMARK    3  A    between atoms: C4_4  and  C5_5
REMARK    4  A    between atoms: C5_5  and  C6_6
REMARK    5  A    between atoms: C7_7  and  C8_8
REMARK    6  A    between atoms: C9_9  and  C10_10
REMARK    7  A    between atoms: C11_11  and  C12_12
REMARK    8  A    between atoms: C17_17  and  C18_18
REMARK    9  A    between atoms: C19_19  and  C20_20
REMARK   10  A    between atoms: C20_20  and  O2_22
REMARK   11  A    between atoms: C22_24  and  S1_25
ROOT
HETATM    1  C12 UNL     1      24.387  30.679   4.430  1.00  0.00     0.074 C
HETATM    2  C13 UNL     1      23.732  30.308   3.375  1.00  0.00    -0.028 C
HETATM    3  C14 UNL     1      23.306  28.880   3.240  1.00  0.00     0.041 C
HETATM    4  C15 UNL     1      23.330  28.430   1.823  1.00  0.00     0.009 C
HETATM    5  C16 UNL     1      24.022  29.389   0.872  1.00  0.00     0.040 C
HETATM    6  C17 UNL     1      23.541  30.779   1.042  1.00  0.00    -0.036 C
HETATM    7  C22 UNL     1      23.398  31.237   2.313  1.00  0.00     0.072 C
ENDROOT
BRANCH   1   8
HETATM    8  C11 UNL     1      24.698  29.739   5.466  1.00  0.00    -0.064 C
HETATM    9  C10 UNL     1      24.965  28.966   6.347  1.00  0.00    -0.010 C
BRANCH   9  10
HETATM   10  C9  UNL     1      25.284  28.078   7.396  1.00  0.00    -0.010 C
HETATM   11  C8  UNL     1      25.539  27.320   8.299  1.00  0.00    -0.065 C
BRANCH  11  12
HETATM   12  C7  UNL     1      25.823  26.408   9.371  1.00  0.00     0.061 C
HETATM   13  C6  UNL     1      24.846  25.807  10.019  1.00  0.00    -0.018 C
BRANCH  13  14
HETATM   14  C5  UNL     1      23.427  26.078   9.636  1.00  0.00     0.028 C
BRANCH  14  15
HETATM   15  C4  UNL     1      22.973  24.940   8.782  1.00  0.00     0.004 C
BRANCH  15  16
HETATM   16  C3  UNL     1      22.462  25.405   7.428  1.00  0.00    -0.000 C
BRANCH  16  17
HETATM   17  C2  UNL     1      21.911  26.831   7.560  1.00  0.00    -0.005 C
HETATM   18  C1  UNL     1      21.549  27.354   6.173  1.00  0.00     0.005 C
ENDBRANCH  16  17
ENDBRANCH  15  16
ENDBRANCH  14  15
ENDBRANCH  13  14
ENDBRANCH  11  12
ENDBRANCH   9  10
ENDBRANCH   1   8
BRANCH   7  19
HETATM   19  S1  UNL     1      22.818  32.820   2.610  1.00  0.00     0.172 S
HETATM   20  C23 UNL     1      21.212  33.095   1.851  1.00  0.00     0.167 C
HETATM   21  O3  UNL     1      22.517  32.962   4.109  1.00  0.00    -0.223 OA
HETATM   22  O4  UNL     1      23.745  33.926   2.292  1.00  0.00    -0.223 OA
ENDBRANCH   7  19
BRANCH   6  23
HETATM   23  C18 UNL     1      23.217  31.581  -0.100  1.00  0.00     0.014 C
HETATM   24  C19 UNL     1      24.107  32.223  -0.803  1.00  0.00     0.082 C
BRANCH  24  25
HETATM   25  C20 UNL     1      23.740  33.039  -1.974  1.00  0.00     0.282 C
HETATM   26  O1  UNL     1      23.867  34.286  -2.002  1.00  0.00    -0.260 OA
BRANCH  25  27
HETATM   27  O2  UNL     1      23.231  32.411  -3.097  1.00  0.00    -0.323 OA
HETATM   28  C21 UNL     1      22.699  33.173  -4.161  1.00  0.00     0.213 C
ENDBRANCH  25  27
ENDBRANCH  24  25
ENDBRANCH   6  23
TORSDOF 11
ENDMDL