MODEL 2
REMARK VINA RESULT: -7.356560211      1.792      2.892
REMARK  7 active torsions:
REMARK  status: ('A' for Active; 'I' for Inactive)
REMARK    1  A    between atoms: C2_2  and  C3_3
REMARK    2  A    between atoms: C3_3  and  N1_4
REMARK       I    between atoms: N1_4  and  C4_5
REMARK    3  A    between atoms: N1_4  and  C11_13
REMARK    4  A    between atoms: C4_5  and  C5_7
REMARK    5  A    between atoms: C7_9  and  C8_10
REMARK    6  A    between atoms: C15_19  and  O4_20
REMARK    7  A    between atoms: O4_20  and  C16_21
ROOT
HETATM    1  C11 UNL     1      24.386  27.642   7.667  1.00  0.00     0.236 C
HETATM    2  O2  UNL     1      25.161  27.849   8.773  1.00  0.00    -0.346 OA
HETATM    3  C12 UNL     1      24.915  26.755   9.632  1.00  0.00     0.134 C
HETATM    4  C13 UNL     1      26.131  25.968   9.956  1.00  0.00     0.056 C
HETATM    5  C14 UNL     1      24.270  27.388  10.839  1.00  0.00     0.217 C
HETATM    6  O3  UNL     1      24.763  27.193  11.960  1.00  0.00    -0.287 OA
HETATM    7  C15 UNL     1      23.095  28.189  10.546  1.00  0.00     0.115 C
HETATM    8  C20 UNL     1      22.579  28.045   9.322  1.00  0.00     0.024 C
HETATM    9  C21 UNL     1      23.107  27.152   8.284  1.00  0.00     0.071 C
HETATM   10  C22 UNL     1      23.788  25.944   9.011  1.00  0.00     0.002 C
HETATM   11  C23 UNL     1      24.193  24.922   8.034  1.00  0.00     0.019 C
HETATM   12  C24 UNL     1      22.863  25.375  10.039  1.00  0.00     0.019 C
ENDROOT
BRANCH   1  13
HETATM   13  N1  UNL     1      24.366  28.565   6.626  1.00  0.00    -0.317 N
HETATM   14  C4  UNL     1      23.366  28.770   5.634  1.00  0.00     0.251 C
HETATM   15  O1  UNL     1      22.351  28.055   5.747  1.00  0.00    -0.268 OA
BRANCH  13  16
HETATM   16  C3  UNL     1      25.551  29.445   6.498  1.00  0.00     0.155 C
BRANCH  16  17
HETATM   17  C2  UNL     1      26.698  28.764   5.891  1.00  0.00    -0.017 C
HETATM   18  C1  UNL     1      27.937  29.293   5.853  1.00  0.00     0.008 C
ENDBRANCH  16  17
ENDBRANCH  13  16
BRANCH  14  19
HETATM   19  C5  UNL     1      23.429  29.715   4.527  1.00  0.00     0.003 C
HETATM   20  C6  UNL     1      23.396  28.922   3.222  1.00  0.00     0.054 C
HETATM   21  C7  UNL     1      22.729  30.980   4.489  1.00  0.00    -0.011 C
BRANCH  21  22
HETATM   22  C8  UNL     1      21.299  31.219   4.550  1.00  0.00     0.001 C
HETATM   23  C9  UNL     1      21.002  32.106   3.268  1.00  0.00     0.013 C
HETATM   24  C10 UNL     1      20.838  32.143   5.647  1.00  0.00     0.013 C
ENDBRANCH  21  22
ENDBRANCH  14  19
ENDBRANCH   1  13
BRANCH   7  25
HETATM   25  O4  UNL     1      22.535  29.036  11.448  1.00  0.00    -0.338 OA
BRANCH  25  26
HETATM   26  C16 UNL     1      22.702  30.357  11.741  1.00  0.00     0.057 C
HETATM   27  C17 UNL     1      24.138  30.809  11.977  1.00  0.00     0.045 C
HETATM   28  C18 UNL     1      22.012  30.594  13.103  1.00  0.00     0.045 C
HETATM   29  C19 UNL     1      22.077  31.357  10.812  1.00  0.00     0.045 C
ENDBRANCH  25  26
ENDBRANCH   7  25
TORSDOF 7
ENDMDL