MODEL 3
REMARK VINA RESULT: -7.067626443      2.105      4.562
REMARK  7 active torsions:
REMARK  status: ('A' for Active; 'I' for Inactive)
REMARK    1  A    between atoms: C2_2  and  C3_3
REMARK    2  A    between atoms: C3_3  and  C4_4
REMARK    3  A    between atoms: C4_4  and  S1_5
REMARK    4  A    between atoms: C10_13  and  C12_15
REMARK    5  A    between atoms: C12_15  and  C13_17
REMARK    6  A    between atoms: C14_18  and  C15_19
REMARK    7  A    between atoms: C17_21  and  C19_23
ROOT
HETATM    1  C3  UNL     1      26.061  28.252   8.157  1.00  0.00     0.073 C
HETATM    2  C6  UNL     1      25.936  28.364   9.603  1.00  0.00     0.054 C
HETATM    3  C7  UNL     1      25.655  27.148  10.456  1.00  0.00     0.052 C
HETATM    4  C8  UNL     1      25.660  26.036   9.453  1.00  0.00     0.048 C
HETATM    5  C9  UNL     1      24.655  26.596   8.440  1.00  0.00     0.140 C
HETATM    6  O2  UNL     1      25.410  27.138   7.523  1.00  0.00    -0.373 OA
HETATM    7  C10 UNL     1      23.592  25.613   8.439  1.00  0.00     0.055 C
HETATM    8  C11 UNL     1      24.235  24.252   8.170  1.00  0.00     0.027 C
HETATM    9  C21 UNL     1      23.134  25.611   9.904  1.00  0.00     0.094 C
HETATM   10  S2  UNL     1      23.858  26.997  10.892  1.00  0.00    -0.163 SA
ENDROOT
BRANCH   7  11
HETATM   11  C12 UNL     1      22.497  25.783   7.498  1.00  0.00     0.160 C
HETATM   12  O3  UNL     1      21.874  24.803   6.976  1.00  0.00    -0.292 OA
BRANCH  11  13
HETATM   13  C13 UNL     1      22.047  27.096   7.094  1.00  0.00     0.047 C
HETATM   14  C14 UNL     1      21.690  27.500   5.906  1.00  0.00    -0.018 C
BRANCH  14  15
HETATM   15  C15 UNL     1      21.243  28.900   5.631  1.00  0.00     0.017 A
HETATM   16  C16 UNL     1      20.872  29.235   4.192  1.00  0.00     0.019 A
HETATM   17  C17 UNL     1      22.083  29.825   4.864  1.00  0.00    -0.037 A
HETATM   18  C18 UNL     1      21.954  31.316   5.149  1.00  0.00     0.016 C
BRANCH  17  19
HETATM   19  C19 UNL     1      23.418  29.397   4.284  1.00  0.00     0.005 C
HETATM   20  C20 UNL     1      23.280  28.943   2.870  1.00  0.00     0.006 C
ENDBRANCH  17  19
ENDBRANCH  14  15
ENDBRANCH  11  13
ENDBRANCH   7  11
BRANCH   1  21
HETATM   21  C2  UNL     1      27.523  28.237   7.657  1.00  0.00     0.034 C
HETATM   22  C1  UNL     1      27.681  28.555   6.214  1.00  0.00     0.008 C
ENDBRANCH   1  21
BRANCH   1  23
HETATM   23  C4  UNL     1      25.520  29.504   7.514  1.00  0.00     0.146 C
BRANCH  23  24
HETATM   24  S1  UNL     1      24.817  30.736   8.460  1.00  0.00     0.013 S
HETATM   25  C5  UNL     1      23.048  30.359   8.597  1.00  0.00     0.127 C
HETATM   26  O1  UNL     1      24.918  32.298   7.952  1.00  0.00    -0.258 OA
ENDBRANCH  23  24
ENDBRANCH   1  23
TORSDOF 7
ENDMDL