MODEL 3
REMARK VINA RESULT: -7.227853141      2.290      6.242
REMARK  7 active torsions:
REMARK  status: ('A' for Active; 'I' for Inactive)
REMARK    1  A    between atoms: C2_2  and  C3_3
REMARK    2  A    between atoms: C3_3  and  C4_4
REMARK    3  A    between atoms: C4_4  and  C5_5
REMARK    4  A    between atoms: C8_10  and  C9_11
REMARK    5  A    between atoms: C9_11  and  N1_12
REMARK    6  A    between atoms: C16_19  and  C18_21
REMARK    7  A    between atoms: C18_21  and  C19_23
ROOT
HETATM    1  C5  UNL     1      24.360  29.007   7.940  1.00  0.00     0.060 C
HETATM    2  C6  UNL     1      25.736  28.493   7.693  1.00  0.00     0.209 C
HETATM    3  O1  UNL     1      26.712  28.862   7.050  1.00  0.00    -0.288 OA
HETATM    4  C7  UNL     1      25.752  27.233   8.486  1.00  0.00     0.205 C
HETATM    5  O2  UNL     1      26.680  26.692   9.112  1.00  0.00    -0.288 OA
HETATM    6  C8  UNL     1      24.358  26.689   8.392  1.00  0.00     0.121 C
HETATM    7  C12 UNL     1      23.675  27.714   7.558  1.00  0.00    -0.053 C
HETATM    8  C13 UNL     1      22.740  27.702   6.666  1.00  0.00    -0.021 C
HETATM    9  C14 UNL     1      22.237  28.897   5.931  1.00  0.00     0.034 C
HETATM   10  C15 UNL     1      23.414  29.895   5.755  1.00  0.00     0.014 C
HETATM   11  C16 UNL     1      22.820  31.007   5.010  1.00  0.00     0.021 C
HETATM   12  C17 UNL     1      23.640  32.240   4.726  1.00  0.00     0.024 C
HETATM   13  C21 UNL     1      21.606  31.480   5.754  1.00  0.00     0.017 C
HETATM   14  C22 UNL     1      22.022  31.865   7.116  1.00  0.00     0.002 C
HETATM   15  C23 UNL     1      22.831  30.906   7.927  1.00  0.00     0.011 C
HETATM   16  C24 UNL     1      23.933  30.196   7.161  1.00  0.00    -0.020 C
HETATM   17  C25 UNL     1      25.108  31.118   7.025  1.00  0.00     0.017 C
ENDROOT
BRANCH  11  18
HETATM   18  C18 UNL     1      22.484  30.516   3.608  1.00  0.00     0.135 C
HETATM   19  O3  UNL     1      21.357  30.623   3.215  1.00  0.00    -0.297 OA
BRANCH  18  20
HETATM   20  C19 UNL     1      23.538  29.911   2.755  1.00  0.00     0.074 C
HETATM   21  C20 UNL     1      23.247  28.512   2.305  1.00  0.00     0.013 C
ENDBRANCH  18  20
ENDBRANCH  11  18
BRANCH   1  22
HETATM   22  C4  UNL     1      24.256  29.237   9.408  1.00  0.00     0.027 C
BRANCH  22  23
HETATM   23  C3  UNL     1      25.339  29.906  10.145  1.00  0.00     0.028 C
BRANCH  23  24
HETATM   24  C2  UNL     1      25.423  29.322  11.541  1.00  0.00    -0.037 C
HETATM   25  C1  UNL     1      24.734  28.266  11.932  1.00  0.00     0.007 C
ENDBRANCH  23  24
ENDBRANCH  22  23
ENDBRANCH   1  22
BRANCH   6  26
HETATM   26  C9  UNL     1      24.382  25.342   7.665  1.00  0.00     0.288 C
BRANCH  26  27
HETATM   27  N1  UNL     1      23.591  24.435   8.469  1.00  0.00     0.081 N
HETATM   28  C10 UNL     1      22.919  25.143   9.517  1.00  0.00     0.309 C
HETATM   29  C11 UNL     1      22.578  23.783   7.621  1.00  0.00     0.309 C
ENDBRANCH  26  27
ENDBRANCH   6  26
TORSDOF 7
ENDMDL