MODEL 2
REMARK VINA RESULT: -7.605462829      0.578      1.062
REMARK  7 active torsions:
REMARK  status: ('A' for Active; 'I' for Inactive)
REMARK    1  A    between atoms: C2_2  and  C3_3
REMARK    2  A    between atoms: N1_10  and  C10_11
REMARK    3  A    between atoms: C10_11  and  C11_12
REMARK    4  A    between atoms: C11_12  and  C12_13
REMARK    5  A    between atoms: C12_13  and  C13_14
REMARK    6  A    between atoms: C13_14  and  N2_15
REMARK    7  A    between atoms: N3_18  and  C16_19
ROOT
HETATM    1  C10 UNL     1      26.402  26.965   9.483  1.00  0.00     0.117 C
ENDROOT
BRANCH   1   2
HETATM    2  N1  UNL     1      25.037  26.610   9.534  1.00  0.00    -0.407 N
HETATM    3  C5  UNL     1      24.360  26.295   8.340  1.00  0.00     0.090 C
HETATM    4  C4  UNL     1      24.237  24.811   8.193  1.00  0.00     0.050 C
HETATM    5  C6  UNL     1      23.065  27.041   8.143  1.00  0.00     0.053 C
HETATM    6  C3  UNL     1      22.852  24.308   7.985  1.00  0.00     0.082 C
HETATM    7  N4  UNL     1      22.084  25.134   7.099  1.00  0.00    -0.392 N
HETATM    8  C24 UNL     1      22.179  26.391   7.171  1.00  0.00    -0.015 C
ATOM      9  H4  UNL     1      21.462  24.707   6.413  1.00  0.00     0.159 HD
HETATM   10  C25 UNL     1      21.371  27.275   6.247  1.00  0.00     0.063 C
HETATM   11  C7  UNL     1      22.285  27.283   9.399  1.00  0.00     0.014 C
HETATM   12  C8  UNL     1      23.199  27.958  10.396  1.00  0.00     0.020 C
HETATM   13  C9  UNL     1      24.297  26.924  10.690  1.00  0.00     0.117 C
BRANCH   6  14
HETATM   14  C2  UNL     1      22.828  22.908   7.374  1.00  0.00     0.021 C
HETATM   15  C1  UNL     1      22.447  22.933   5.912  1.00  0.00     0.007 C
ENDBRANCH   6  14
ENDBRANCH   1   2
BRANCH   1  16
HETATM   16  C11 UNL     1      26.667  28.403   9.230  1.00  0.00     0.021 C
BRANCH  16  17
HETATM   17  C12 UNL     1      27.328  28.726   7.935  1.00  0.00     0.021 C
BRANCH  17  18
HETATM   18  C13 UNL     1      27.016  30.090   7.398  1.00  0.00     0.117 C
BRANCH  18  19
HETATM   19  N2  UNL     1      25.818  30.118   6.645  1.00  0.00    -0.406 N
HETATM   20  C14 UNL     1      25.439  31.377   6.093  1.00  0.00     0.137 C
HETATM   21  C15 UNL     1      25.145  31.248   4.583  1.00  0.00     0.141 C
HETATM   22  N3  UNL     1      24.085  30.329   4.477  1.00  0.00    -0.386 N
HETATM   23  C22 UNL     1      24.109  29.180   5.265  1.00  0.00     0.078 C
HETATM   24  C23 UNL     1      25.511  28.989   5.843  1.00  0.00     0.161 C
BRANCH  22  25
HETATM   25  C16 UNL     1      23.207  30.417   3.375  1.00  0.00     0.083 C
HETATM   26  C17 UNL     1      22.765  29.045   2.948  1.00  0.00     0.025 C
HETATM   27  C18 UNL     1      23.634  28.397   1.927  1.00  0.00     0.002 C
HETATM   28  C19 UNL     1      23.889  29.249   0.732  1.00  0.00     0.000 C
HETATM   29  C20 UNL     1      23.517  30.685   0.886  1.00  0.00     0.002 C
HETATM   30  C21 UNL     1      23.738  31.260   2.243  1.00  0.00     0.025 C
ENDBRANCH  22  25
ENDBRANCH  18  19
ENDBRANCH  17  18
ENDBRANCH  16  17
ENDBRANCH   1  16
TORSDOF 7
ENDMDL