MODEL 2
REMARK VINA RESULT: -6.856673125      2.457      5.935
REMARK  8 active torsions:
REMARK  status: ('A' for Active; 'I' for Inactive)
REMARK    1  A    between atoms: C2_2  and  C3_3
REMARK    2  A    between atoms: C3_3  and  C4_4
REMARK    3  A    between atoms: C4_4  and  O2_6
REMARK    4  A    between atoms: O2_6  and  C5_7
REMARK    5  A    between atoms: C5_7  and  C6_8
REMARK    6  A    between atoms: C6_8  and  C8_10
REMARK    7  A    between atoms: C8_10  and  C9_11
REMARK    8  A    between atoms: C21_23  and  C22_24
ROOT
HETATM    1  C9  UNL     1      24.101  27.627   8.467  1.00  0.00    -0.002 C
HETATM    2  C10 UNL     1      23.012  28.134   9.373  1.00  0.00     0.015 C
HETATM    3  C11 UNL     1      23.427  29.187  10.352  1.00  0.00    -0.039 C
HETATM    4  C12 UNL     1      24.124  28.604  11.548  1.00  0.00     0.015 C
HETATM    5  C13 UNL     1      22.119  29.805  10.885  1.00  0.00     0.010 C
HETATM    6  C14 UNL     1      22.149  31.310  10.856  1.00  0.00     0.002 C
HETATM    7  C15 UNL     1      23.445  31.900  11.324  1.00  0.00     0.009 C
HETATM    8  C16 UNL     1      24.620  31.419  10.512  1.00  0.00    -0.043 C
HETATM    9  C17 UNL     1      24.974  32.516   9.489  1.00  0.00     0.015 C
HETATM   10  C18 UNL     1      25.851  31.150  11.288  1.00  0.00     0.015 C
HETATM   11  C19 UNL     1      24.157  30.250   9.644  1.00  0.00     0.002 C
HETATM   12  C20 UNL     1      25.236  29.847   8.725  1.00  0.00     0.018 C
HETATM   13  C21 UNL     1      25.360  28.368   8.427  1.00  0.00     0.059 C
ENDROOT
BRANCH   1  14
HETATM   14  C8  UNL     1      23.493  27.163   7.202  1.00  0.00     0.012 C
BRANCH  14  15
HETATM   15  C6  UNL     1      22.081  26.480   7.452  1.00  0.00     0.006 C
HETATM   16  C7  UNL     1      22.452  25.008   7.307  1.00  0.00     0.012 C
BRANCH  15  17
HETATM   17  C5  UNL     1      21.347  26.953   6.172  1.00  0.00     0.183 C
BRANCH  17  18
HETATM   18  O2  UNL     1      21.895  27.957   5.484  1.00  0.00    -0.319 OA
BRANCH  18  19
HETATM   19  C4  UNL     1      21.566  28.864   4.580  1.00  0.00     0.296 C
HETATM   20  O1  UNL     1      20.491  28.768   3.987  1.00  0.00    -0.262 OA
BRANCH  19  21
HETATM   21  C3  UNL     1      22.568  29.978   4.317  1.00  0.00     0.174 A
HETATM   22  O4  UNL     1      21.826  31.263   4.404  1.00  0.00    -0.359 OA
HETATM   23  C24 UNL     1      22.815  30.911   5.332  1.00  0.00     0.164 A
HETATM   24  C25 UNL     1      22.180  30.746   6.716  1.00  0.00     0.043 C
BRANCH  21  25
HETATM   25  C2  UNL     1      23.060  29.956   2.864  1.00  0.00     0.047 C
HETATM   26  C1  UNL     1      23.434  28.557   2.470  1.00  0.00     0.009 C
ENDBRANCH  21  25
ENDBRANCH  19  21
ENDBRANCH  18  19
ENDBRANCH  17  18
ENDBRANCH  15  17
ENDBRANCH  14  15
ENDBRANCH   1  14
BRANCH  13  27
HETATM   27  C22 UNL     1      26.060  28.306   7.124  1.00  0.00     0.127 C
HETATM   28  C23 UNL     1      25.888  29.320   6.046  1.00  0.00     0.091 C
HETATM   29  O3  UNL     1      26.811  27.408   6.870  1.00  0.00    -0.298 OA
ENDBRANCH  13  27
TORSDOF 8
ENDMDL