MODEL 1
REMARK VINA RESULT: -5.564895653      0.000      0.000
REMARK  8 active torsions:
REMARK  status: ('A' for Active; 'I' for Inactive)
REMARK    1  A    between atoms: C2_2  and  C3_3
REMARK    2  A    between atoms: C3_3  and  C4_4
REMARK    3  A    between atoms: C10_10  and  N1_11
REMARK    4  A    between atoms: C17_22  and  C19_24
REMARK    5  A    between atoms: C19_24  and  O3_26
REMARK    6  A    between atoms: C21_28  and  C23_30
REMARK    7  A    between atoms: C23_30  and  O4_31
REMARK    8  A    between atoms: O4_31  and  C24_32
ROOT
HETATM    1  C4  UNL     1      12.233  12.101  71.892  1.00  0.00     0.005 C
HETATM    2  C5  UNL     1      12.530  11.551  73.215  1.00  0.00    -0.004 C
HETATM    3  C6  UNL     1      11.702  10.451  73.739  1.00  0.00     0.006 C
HETATM    4  C7  UNL     1      12.475   9.579  74.727  1.00  0.00     0.012 C
HETATM    5  C8  UNL     1      12.119   9.983  76.105  1.00  0.00    -0.009 A
HETATM    6  C9  UNL     1      10.803   9.336  76.589  1.00  0.00     0.018 C
HETATM    7  C10 UNL     1      13.060  10.315  77.171  1.00  0.00     0.197 A
HETATM    8  C11 UNL     1      12.296  11.399  76.338  1.00  0.00     0.031 A
HETATM    9  C12 UNL     1      13.224  12.216  75.546  1.00  0.00    -0.007 C
HETATM   10  C13 UNL     1      13.504  13.471  76.367  1.00  0.00     0.011 C
HETATM   11  C14 UNL     1      12.774  12.668  74.213  1.00  0.00     0.001 C
HETATM   12  C15 UNL     1      13.814  13.633  73.685  1.00  0.00     0.085 C
HETATM   13  C16 UNL     1      14.640  13.048  72.609  1.00  0.00     0.146 C
HETATM   14  O1  UNL     1      15.684  12.581  72.999  1.00  0.00    -0.297 OA
HETATM   15  C17 UNL     1      14.422  12.928  71.137  1.00  0.00     0.114 C
HETATM   16  C18 UNL     1      13.946  14.233  70.549  1.00  0.00     0.035 C
HETATM   17  C21 UNL     1      13.349  11.859  70.883  1.00  0.00     0.006 C
HETATM   18  C22 UNL     1      14.040  10.513  71.119  1.00  0.00     0.019 C
ENDROOT
BRANCH  17  19
HETATM   19  C23 UNL     1      12.949  11.897  69.461  1.00  0.00     0.190 C
BRANCH  19  20
HETATM   20  O4  UNL     1      13.080  10.585  68.856  1.00  0.00    -0.321 OA
BRANCH  20  21
HETATM   21  C24 UNL     1      12.033   9.915  68.296  1.00  0.00     0.254 C
HETATM   22  C25 UNL     1      12.206   8.541  67.788  1.00  0.00     0.126 C
HETATM   23  O5  UNL     1      10.914  10.460  68.211  1.00  0.00    -0.266 OA
ENDBRANCH  20  21
ENDBRANCH  19  20
ENDBRANCH  17  19
BRANCH   1  24
HETATM   24  C3  UNL     1      10.883  11.984  71.302  1.00  0.00     0.032 C
BRANCH  24  25
HETATM   25  C2  UNL     1      10.053  13.232  71.484  1.00  0.00    -0.036 C
HETATM   26  C1  UNL     1      10.216  14.285  70.684  1.00  0.00     0.007 C
ENDBRANCH  24  25
ENDBRANCH   1  24
BRANCH  15  27
HETATM   27  C19 UNL     1      15.663  12.559  70.429  1.00  0.00     0.275 C
HETATM   28  O2  UNL     1      16.266  13.347  69.660  1.00  0.00    -0.264 OA
BRANCH  27  29
HETATM   29  O3  UNL     1      16.286  11.303  70.544  1.00  0.00    -0.326 OA
HETATM   30  C20 UNL     1      17.689  11.147  70.518  1.00  0.00     0.213 C
ENDBRANCH  27  29
ENDBRANCH  15  27
BRANCH   7  31
HETATM   31  N1  UNL     1      14.467  10.160  76.967  1.00  0.00    -0.074 N
ATOM     32  H13 UNL     1      14.891   9.883  77.853  1.00  0.00     0.274 HD
ATOM     33  H12 UNL     1      14.619   9.329  76.396  1.00  0.00     0.274 HD
ATOM     34  H11 UNL     1      15.018  10.924  76.574  1.00  0.00     0.274 HD
ENDBRANCH   7  31
TORSDOF 8
ENDMDL