MODEL 4
REMARK VINA RESULT: -6.477023753      3.274      6.761
REMARK  4 active torsions:
REMARK  status: ('A' for Active; 'I' for Inactive)
REMARK    1  A    between atoms: O1_2  and  C2_3
REMARK    2  A    between atoms: C2_3  and  C3_4
REMARK    3  A    between atoms: C21_25  and  O5_26
REMARK    4  A    between atoms: O5_26  and  S1_27
ROOT
HETATM    1  C3  UNL     1      11.304  12.255  72.203  1.00  0.00     0.177 C
HETATM    2  O2  UNL     1      11.638  11.461  73.271  1.00  0.00    -0.364 OA
HETATM    3  C4  UNL     1      12.990  11.557  73.628  1.00  0.00     0.102 C
HETATM    4  C5  UNL     1      13.712  11.149  72.439  1.00  0.00    -0.045 C
HETATM    5  C6  UNL     1      14.832  10.460  72.464  1.00  0.00    -0.018 C
HETATM    6  C7  UNL     1      15.533   9.991  73.696  1.00  0.00     0.066 C
HETATM    7  C8  UNL     1      14.766  10.422  74.958  1.00  0.00     0.074 C
HETATM    8  C9  UNL     1      14.947   9.218  75.917  1.00  0.00     0.047 C
HETATM    9  O3  UNL     1      15.307  11.445  75.554  1.00  0.00    -0.374 OA
HETATM   10  C10 UNL     1      15.548  12.671  75.139  1.00  0.00     0.126 C
HETATM   11  C11 UNL     1      16.881  12.857  74.388  1.00  0.00     0.040 C
HETATM   12  C12 UNL     1      14.503  13.463  74.460  1.00  0.00    -0.015 C
HETATM   13  C13 UNL     1      14.130  14.703  75.328  1.00  0.00     0.018 C
HETATM   14  C14 UNL     1      14.960  14.159  73.188  1.00  0.00     0.018 C
HETATM   15  C15 UNL     1      13.158  12.799  74.314  1.00  0.00     0.036 C
HETATM   16  C16 UNL     1      12.587  12.759  75.725  1.00  0.00     0.016 C
HETATM   17  C17 UNL     1      11.627  11.644  75.990  1.00  0.00     0.079 C
HETATM   18  C18 UNL     1      12.368  10.386  75.725  1.00  0.00     0.137 C
HETATM   19  O4  UNL     1      12.130   9.431  76.438  1.00  0.00    -0.297 OA
HETATM   20  C19 UNL     1      13.323  10.421  74.619  1.00  0.00     0.129 C
HETATM   21  C20 UNL     1      13.230  11.452  71.071  1.00  0.00     0.073 C
HETATM   22  C21 UNL     1      11.726  11.464  70.953  1.00  0.00     0.180 C
ENDROOT
BRANCH  22  23
HETATM   23  O5  UNL     1      11.323  12.052  69.784  1.00  0.00    -0.248 OA
BRANCH  23  24
HETATM   24  S1  UNL     1      10.579  10.956  68.795  1.00  0.00     0.252 S
HETATM   25  O6  UNL     1       9.369  10.322  69.465  1.00  0.00    -0.572 OA
HETATM   26  O7  UNL     1      10.084  11.537  67.513  1.00  0.00    -0.572 OA
HETATM   27  O8  UNL     1      11.597   9.646  68.424  1.00  0.00    -0.572 OA
ENDBRANCH  23  24
ENDBRANCH  22  23
BRANCH   1  28
HETATM   28  C2  UNL     1       9.834  12.591  72.172  1.00  0.00     0.201 C
BRANCH  28  29
HETATM   29  O1  UNL     1       9.064  11.840  73.024  1.00  0.00    -0.393 OA
HETATM   30  C1  UNL     1       7.820  11.659  72.397  1.00  0.00     0.201 C
ENDBRANCH  28  29
ENDBRANCH   1  28
TORSDOF 4
ENDMDL