MODEL 2
REMARK VINA RESULT: -8.149977112      0.539      1.420
REMARK  6 active torsions:
REMARK  status: ('A' for Active; 'I' for Inactive)
REMARK    1  A    between atoms: C2_2  and  O1_3
REMARK    2  A    between atoms: O1_3  and  C3_4
REMARK    3  A    between atoms: C3_4  and  O2_5
REMARK    4  A    between atoms: C3_4  and  C5_7
REMARK    5  A    between atoms: C5_7  and  N1_9
REMARK       I    between atoms: N1_9  and  C7_11
REMARK    6  A    between atoms: C7_11  and  C8_13
ROOT
HETATM    1  C8  UNL     1      12.141  10.249  76.612  1.00  0.00     0.145 C
HETATM    2  C9  UNL     1      13.062   9.444  77.557  1.00  0.00     0.057 C
HETATM    3  O4  UNL     1      12.235  11.581  76.880  1.00  0.00    -0.340 OA
HETATM    4  C10 UNL     1      12.269  12.339  75.724  1.00  0.00     0.270 C
HETATM    5  O5  UNL     1      12.986  13.377  75.537  1.00  0.00    -0.353 OA
HETATM    6  C11 UNL     1      14.131  13.928  75.319  1.00  0.00     0.250 C
HETATM    7  C12 UNL     1      14.845  13.593  74.013  1.00  0.00     0.159 C
HETATM    8  O6  UNL     1      15.369  14.562  73.502  1.00  0.00    -0.295 OA
HETATM    9  C13 UNL     1      15.129  12.399  73.103  1.00  0.00     0.027 C
HETATM   10  C14 UNL     1      16.616  12.243  72.871  1.00  0.00     0.024 C
HETATM   11  C15 UNL     1      14.345  12.316  71.851  1.00  0.00     0.018 C
HETATM   12  C16 UNL     1      13.097  11.454  72.171  1.00  0.00     0.007 C
HETATM   13  C17 UNL     1      13.185  11.717  73.660  1.00  0.00     0.008 C
HETATM   14  C18 UNL     1      12.174  11.289  74.579  1.00  0.00     0.017 C
HETATM   15  C19 UNL     1      10.818  11.299  73.917  1.00  0.00     0.021 C
HETATM   16  C20 UNL     1      12.500   9.972  75.182  1.00  0.00     0.043 C
HETATM   17  C21 UNL     1      13.771   9.324  74.888  1.00  0.00     0.010 C
HETATM   18  C22 UNL     1      14.568   9.882  73.682  1.00  0.00     0.011 C
HETATM   19  C23 UNL     1      14.557  11.317  73.961  1.00  0.00    -0.025 C
HETATM   20  C24 UNL     1      15.357  11.462  75.172  1.00  0.00     0.016 C
ENDROOT
BRANCH   1  21
HETATM   21  C7  UNL     1      10.784   9.779  76.959  1.00  0.00     0.253 C
HETATM   22  N1  UNL     1      10.339   8.435  76.944  1.00  0.00    -0.349 N
ATOM     23  H1  UNL     1      11.002   7.709  76.672  1.00  0.00     0.163 HD
HETATM   24  O3  UNL     1       9.931  10.661  77.303  1.00  0.00    -0.270 OA
BRANCH  22  25
HETATM   25  C5  UNL     1       9.005   8.043  77.292  1.00  0.00     0.135 C
HETATM   26  C6  UNL     1       8.303   7.787  75.938  1.00  0.00     0.037 C
BRANCH  25  27
HETATM   27  C3  UNL     1       9.026   6.720  78.005  1.00  0.00     0.281 C
BRANCH  27  28
HETATM   28  O1  UNL     1      10.112   5.936  77.603  1.00  0.00    -0.360 OA
BRANCH  28  29
HETATM   29  C2  UNL     1      10.457   5.002  78.549  1.00  0.00     0.166 C
HETATM   30  C1  UNL     1      10.865   5.635  79.863  1.00  0.00     0.033 C
ENDBRANCH  28  29
ENDBRANCH  27  28
BRANCH  27  31
HETATM   31  O2  UNL     1       7.842   6.029  77.973  1.00  0.00    -0.364 OA
HETATM   32  C4  UNL     1       7.033   6.269  79.079  1.00  0.00     0.204 C
ENDBRANCH  27  31
ENDBRANCH  25  27
ENDBRANCH  22  25
ENDBRANCH   1  21
TORSDOF 6
ENDMDL