MODEL 3
REMARK VINA RESULT: -5.850516923      1.482      4.313
REMARK  6 active torsions:
REMARK  status: ('A' for Active; 'I' for Inactive)
REMARK    1  A    between atoms: O1_2  and  C2_3
REMARK    2  A    between atoms: C2_3  and  O2_4
REMARK    3  A    between atoms: C11_14  and  O4_15
REMARK    4  A    between atoms: C18_23  and  C19_24
REMARK    5  A    between atoms: C22_27  and  O5_28
REMARK    6  A    between atoms: C24_30  and  O6_31
ROOT
HETATM    1  C2  UNL     1      15.595  11.609  72.148  1.00  0.00     0.199 C
HETATM    2  C4  UNL     1      15.467  10.489  73.153  1.00  0.00     0.084 C
HETATM    3  C5  UNL     1      14.927  11.115  74.416  1.00  0.00     0.059 C
HETATM    4  C6  UNL     1      13.461  10.922  74.402  1.00  0.00    -0.053 C
HETATM    5  C7  UNL     1      12.894  10.414  75.672  1.00  0.00     0.004 A
HETATM    6  C8  UNL     1      13.335  10.199  76.894  1.00  0.00     0.147 A
HETATM    7  O3  UNL     1      12.143   9.743  77.349  1.00  0.00    -0.344 OA
HETATM    8  C9  UNL     1      11.588   9.903  76.089  1.00  0.00     0.118 A
HETATM    9  C10 UNL     1      11.160   8.622  75.394  1.00  0.00     0.055 C
HETATM   10  C11 UNL     1      10.479  10.942  76.086  1.00  0.00     0.157 C
HETATM   11  C12 UNL     1      10.475  11.504  74.675  1.00  0.00     0.036 C
HETATM   12  C13 UNL     1      11.612  12.509  74.541  1.00  0.00     0.017 C
HETATM   13  C14 UNL     1      12.712  11.956  73.665  1.00  0.00    -0.013 C
HETATM   14  C15 UNL     1      11.898  11.390  72.472  1.00  0.00     0.021 C
HETATM   15  C16 UNL     1      13.604  12.970  73.069  1.00  0.00     0.042 C
HETATM   16  C17 UNL     1      13.737  14.116  74.080  1.00  0.00     0.017 C
HETATM   17  C18 UNL     1      14.772  13.531  75.097  1.00  0.00     0.028 C
HETATM   18  C22 UNL     1      15.486  12.536  74.335  1.00  0.00     0.108 C
HETATM   19  C24 UNL     1      15.034  12.793  72.879  1.00  0.00     0.153 C
ENDROOT
BRANCH   1  20
HETATM   20  O1  UNL     1      15.041  11.381  70.958  1.00  0.00    -0.357 OA
HETATM   21  C1  UNL     1      14.658  10.213  70.466  1.00  0.00     0.205 C
ENDBRANCH   1  20
BRANCH   1  22
HETATM   22  O2  UNL     1      16.941  11.835  72.083  1.00  0.00    -0.357 OA
HETATM   23  C3  UNL     1      17.820  10.999  71.554  1.00  0.00     0.205 C
ENDBRANCH   1  22
BRANCH  19  24
HETATM   24  O6  UNL     1      15.393  13.987  72.352  1.00  0.00    -0.376 OA
HETATM   25  C25 UNL     1      14.993  14.452  71.177  1.00  0.00     0.203 C
ENDBRANCH  19  24
BRANCH  18  26
HETATM   26  O5  UNL     1      16.832  12.403  74.385  1.00  0.00    -0.381 OA
HETATM   27  C23 UNL     1      17.661  13.371  74.790  1.00  0.00     0.202 C
ENDBRANCH  18  26
BRANCH  17  28
HETATM   28  C19 UNL     1      15.237  14.600  75.945  1.00  0.00    -0.016 C
HETATM   29  C20 UNL     1      15.236  14.631  77.403  1.00  0.00     0.010 C
HETATM   30  C21 UNL     1      15.038  16.016  75.457  1.00  0.00     0.010 C
ENDBRANCH  17  28
BRANCH  10  31
HETATM   31  O4  UNL     1      10.734  11.962  76.963  1.00  0.00    -0.392 OA
ATOM     32  H4  UNL     1      11.512  12.450  76.722  1.00  0.00     0.210 HD
ENDBRANCH  10  31
TORSDOF 6
ENDMDL