MODEL 5
REMARK VINA RESULT: -7.486559546      1.918      2.982
REMARK  9 active torsions:
REMARK  status: ('A' for Active; 'I' for Inactive)
REMARK    1  A    between atoms: C2_2  and  C3_3
REMARK    2  A    between atoms: C3_3  and  C4_4
REMARK    3  A    between atoms: C4_4  and  O1_5
REMARK    4  A    between atoms: C4_4  and  C5_7
REMARK    5  A    between atoms: C6_8  and  C7_9
REMARK    6  A    between atoms: C7_9  and  O2_10
REMARK    7  A    between atoms: O2_10  and  C8_11
REMARK    8  A    between atoms: C8_11  and  C9_12
REMARK    9  A    between atoms: C23_30  and  C24_31
ROOT
HETATM    1  C9  UNL     1      11.928  10.088  76.288  1.00  0.00     0.085 A
HETATM    2  C10 UNL     1      11.425  10.208  74.908  1.00  0.00    -0.026 C
HETATM    3  C11 UNL     1      12.261  10.435  73.759  1.00  0.00     0.006 C
HETATM    4  C12 UNL     1      13.162  11.522  73.494  1.00  0.00     0.099 A
HETATM    5  C13 UNL     1      13.529  11.532  72.012  1.00  0.00     0.275 C
HETATM    6  O3  UNL     1      14.118  10.541  71.490  1.00  0.00    -0.264 OA
HETATM    7  O4  UNL     1      13.130  12.708  71.448  1.00  0.00    -0.315 OA
HETATM    8  C14 UNL     1      13.236  13.696  72.453  1.00  0.00     0.134 C
HETATM    9  C15 UNL     1      14.578  14.346  72.362  1.00  0.00     0.040 C
HETATM   10  C16 UNL     1      13.036  12.928  73.766  1.00  0.00     0.046 A
HETATM   11  C17 UNL     1      14.290  12.891  74.615  1.00  0.00     0.027 A
HETATM   12  C18 UNL     1      13.937  12.830  76.067  1.00  0.00     0.041 A
HETATM   13  C19 UNL     1      14.086  11.382  76.415  1.00  0.00     0.143 A
HETATM   14  O5  UNL     1      14.349  10.657  75.299  1.00  0.00    -0.377 OA
HETATM   15  C20 UNL     1      14.488  11.479  74.227  1.00  0.00     0.149 A
HETATM   16  C21 UNL     1      12.780  10.916  76.995  1.00  0.00     0.123 A
HETATM   17  N1  UNL     1      11.556  11.545  76.644  1.00  0.00    -0.265 NA
HETATM   18  C22 UNL     1      10.275  11.774  76.078  1.00  0.00     0.069 C
HETATM   19  C23 UNL     1      10.142  10.995  75.014  1.00  0.00    -0.036 C
ENDROOT
BRANCH   1  20
HETATM   20  C8  UNL     1      11.181   9.069  77.197  1.00  0.00     0.201 C
BRANCH  20  21
HETATM   21  O2  UNL     1      10.492   8.154  76.425  1.00  0.00    -0.377 OA
BRANCH  21  22
HETATM   22  C7  UNL     1      10.113   7.115  77.265  1.00  0.00     0.261 C
BRANCH  22  23
HETATM   23  C6  UNL     1       8.656   7.142  77.411  1.00  0.00    -0.078 C
HETATM   24  C5  UNL     1       7.451   7.151  77.537  1.00  0.00    -0.072 C
BRANCH  24  25
HETATM   25  C4  UNL     1       5.997   7.151  77.669  1.00  0.00     0.200 C
BRANCH  25  26
HETATM   26  C3  UNL     1       5.402   7.784  76.443  1.00  0.00     0.071 C
BRANCH  26  27
HETATM   27  C2  UNL     1       3.914   7.765  76.583  1.00  0.00    -0.033 C
HETATM   28  C1  UNL     1       3.315   8.645  77.349  1.00  0.00     0.007 C
ENDBRANCH  26  27
ENDBRANCH  25  26
BRANCH  25  29
HETATM   29  O1  UNL     1       5.485   5.842  77.754  1.00  0.00    -0.383 OA
ATOM     30  H1  UNL     1       5.444   5.615  78.675  1.00  0.00     0.211 HD
ENDBRANCH  25  29
ENDBRANCH  24  25
ENDBRANCH  22  23
ENDBRANCH  21  22
ENDBRANCH  20  21
ENDBRANCH   1  20
BRANCH  19  31
HETATM   31  C24 UNL     1       8.943  11.012  74.169  1.00  0.00     0.012 C
HETATM   32  C25 UNL     1       9.021  11.700  72.864  1.00  0.00     0.015 C
HETATM   33  C26 UNL     1       8.418   9.591  73.913  1.00  0.00     0.015 C
ENDBRANCH  19  31
TORSDOF 9
ENDMDL