MODEL 4
REMARK VINA RESULT: -7.920190167      2.996      5.371
REMARK  8 active torsions:
REMARK  status: ('A' for Active; 'I' for Inactive)
REMARK    1  A    between atoms: C2_2  and  C3_3
REMARK    2  A    between atoms: C4_4  and  S1_5
REMARK    3  A    between atoms: S1_5  and  C5_8
REMARK    4  A    between atoms: C8_12  and  C9_13
REMARK    5  A    between atoms: C9_13  and  O4_15
REMARK    6  A    between atoms: O4_15  and  C10_16
REMARK    7  A    between atoms: C10_16  and  C11_17
REMARK       I    between atoms: C11_17  and  N1_19
REMARK    8  A    between atoms: N1_19  and  C12_21
ROOT
HETATM    1  O4  UNL     1       6.860  10.417  74.392  1.00  0.00    -0.308 OA
ENDROOT
BRANCH   1   2
HETATM    2  C9  UNL     1       6.401   9.156  74.268  1.00  0.00     0.302 C
HETATM    3  O3  UNL     1       6.237   8.654  73.114  1.00  0.00    -0.259 OA
BRANCH   2   4
HETATM    4  C8  UNL     1       6.081   8.342  75.459  1.00  0.00     0.102 A
HETATM    5  C5  UNL     1       6.853   7.701  76.373  1.00  0.00     0.095 A
HETATM    6  C6  UNL     1       6.219   7.053  77.378  1.00  0.00     0.033 A
HETATM    7  C7  UNL     1       4.855   7.089  77.399  1.00  0.00     0.052 A
HETATM    8  S2  UNL     1       4.473   8.014  76.037  1.00  0.00    -0.094 SA
BRANCH   5   9
HETATM    9  S1  UNL     1       8.627   7.697  76.221  1.00  0.00     0.247 S
HETATM   10  O1  UNL     1       9.133   9.044  76.593  1.00  0.00    -0.209 OA
HETATM   11  O2  UNL     1       9.032   7.397  74.794  1.00  0.00    -0.209 OA
BRANCH   9  12
HETATM   12  C4  UNL     1       9.341   6.584  77.343  1.00  0.00     0.037 C
HETATM   13  C3  UNL     1       9.824   5.784  78.127  1.00  0.00    -0.062 C
BRANCH  13  14
HETATM   14  C2  UNL     1      10.385   4.850  79.062  1.00  0.00     0.055 C
HETATM   15  C1  UNL     1      11.099   5.236  80.107  1.00  0.00     0.021 C
ENDBRANCH  13  14
ENDBRANCH   9  12
ENDBRANCH   5   9
ENDBRANCH   2   4
ENDBRANCH   1   2
BRANCH   1  16
HETATM   16  C10 UNL     1       7.574  11.147  73.444  1.00  0.00     0.281 C
BRANCH  16  17
HETATM   17  C11 UNL     1       9.042  10.991  73.510  1.00  0.00     0.242 C
HETATM   18  O5  UNL     1       9.654  10.544  72.516  1.00  0.00    -0.271 OA
HETATM   19  N1  UNL     1       9.747  11.336  74.666  1.00  0.00    -0.350 N
ATOM     20  H1  UNL     1       9.194  11.694  75.445  1.00  0.00     0.163 HD
BRANCH  19  21
HETATM   21  C12 UNL     1      11.157  11.242  74.878  1.00  0.00     0.034 C
HETATM   22  C13 UNL     1      11.871  12.087  73.852  1.00  0.00     0.035 C
HETATM   23  C14 UNL     1      13.358  12.165  74.169  1.00  0.00    -0.012 C
HETATM   24  C15 UNL     1      13.525  12.739  75.535  1.00  0.00     0.009 C
HETATM   25  C19 UNL     1      13.888  10.748  74.055  1.00  0.00     0.009 C
HETATM   26  C16 UNL     1      12.918  11.795  76.553  1.00  0.00    -0.012 C
HETATM   27  C17 UNL     1      13.467  10.386  76.422  1.00  0.00     0.009 C
HETATM   28  C21 UNL     1      11.452  11.736  76.292  1.00  0.00     0.035 C
HETATM   29  C18 UNL     1      13.169   9.870  75.039  1.00  0.00    -0.012 C
HETATM   30  C20 UNL     1      11.682   9.832  74.737  1.00  0.00     0.035 C
ENDBRANCH  19  21
ENDBRANCH  16  17
ENDBRANCH   1  16
TORSDOF 8
ENDMDL