MODEL 3
REMARK VINA RESULT: -8.188136173      0.946      1.186
REMARK  5 active torsions:
REMARK  status: ('A' for Active; 'I' for Inactive)
REMARK    1  A    between atoms: C7_7  and  O1_8
REMARK    2  A    between atoms: O1_8  and  S1_9
REMARK    3  A    between atoms: S1_9  and  N1_12
REMARK    4  A    between atoms: N1_12  and  S2_14
REMARK    5  A    between atoms: S2_14  and  C8_17
ROOT
HETATM    1  C1  UNL     1       7.412   9.542  73.686  1.00  0.00     0.054 C
HETATM    2  C2  UNL     1       7.298   8.673  74.899  1.00  0.00     0.007 A
HETATM    3  C3  UNL     1       6.046   8.531  75.481  1.00  0.00     0.085 A
HETATM    4  C4  UNL     1       5.863   7.748  76.598  1.00  0.00    -0.017 A
HETATM    5  C5  UNL     1       6.973   7.118  77.107  1.00  0.00    -0.040 A
HETATM    6  C6  UNL     1       8.226   7.260  76.526  1.00  0.00    -0.016 A
HETATM    7  C7  UNL     1       8.412   8.042  75.409  1.00  0.00     0.106 A
HETATM    8  C11 UNL     1       9.344   6.527  77.173  1.00  0.00     0.042 C
HETATM    9  C12 UNL     1       9.352   6.758  78.681  1.00  0.00     0.005 C
HETATM   10  C13 UNL     1       7.978   6.761  79.269  1.00  0.00     0.005 C
HETATM   11  C14 UNL     1       6.923   6.242  78.310  1.00  0.00     0.040 C
HETATM   12  C15 UNL     1       4.555   7.555  77.264  1.00  0.00     0.045 C
HETATM   13  C16 UNL     1       3.515   8.529  76.755  1.00  0.00     0.042 C
HETATM   14  C17 UNL     1       3.606   8.712  75.259  1.00  0.00     0.061 C
HETATM   15  C18 UNL     1       3.371   7.408  74.573  1.00  0.00     0.046 C
HETATM   16  C19 UNL     1       2.622   9.786  74.852  1.00  0.00     0.046 C
HETATM   17  O6  UNL     1       4.911   9.172  74.962  1.00  0.00    -0.340 OA
ENDROOT
BRANCH   7  18
HETATM   18  O1  UNL     1       9.667   8.177  74.836  1.00  0.00    -0.215 OA
BRANCH  18  19
HETATM   19  S1  UNL     1      10.732   9.438  75.256  1.00  0.00     0.375 S
HETATM   20  O2  UNL     1      10.404   9.933  76.638  1.00  0.00    -0.174 OA
HETATM   21  O3  UNL     1      10.641  10.586  74.328  1.00  0.00    -0.174 OA
BRANCH  19  22
HETATM   22  N1  UNL     1      12.322   8.822  75.266  1.00  0.00    -0.188 N
ATOM     23  H1  UNL     1      12.597   7.925  74.866  1.00  0.00     0.193 HD
BRANCH  22  24
HETATM   24  S2  UNL     1      13.389   9.904  76.030  1.00  0.00     0.244 S
HETATM   25  O4  UNL     1      14.794   9.328  75.961  1.00  0.00    -0.205 OA
HETATM   26  O5  UNL     1      12.965  10.008  77.483  1.00  0.00    -0.205 OA
BRANCH  24  27
HETATM   27  C8  UNL     1      13.432  11.517  75.366  1.00  0.00     0.122 C
HETATM   28  C9  UNL     1      14.815  11.948  74.934  1.00  0.00     0.027 C
HETATM   29  C10 UNL     1      12.859  12.592  76.227  1.00  0.00     0.027 C
ENDBRANCH  24  27
ENDBRANCH  22  24
ENDBRANCH  19  22
ENDBRANCH  18  19
ENDBRANCH   7  18
TORSDOF 5
ENDMDL