MODEL 1
REMARK VINA RESULT: -8.210804899      0.000      0.000
REMARK  6 active torsions:
REMARK  status: ('A' for Active; 'I' for Inactive)
REMARK    1  A    between atoms: C7_8  and  N2_9
REMARK    2  A    between atoms: N2_9  and  C8_10
REMARK    3  A    between atoms: N2_9  and  S1_21
REMARK    4  A    between atoms: C8_10  and  C9_11
REMARK    5  A    between atoms: C12_14  and  C13_15
REMARK    6  A    between atoms: S1_21  and  C19_24
ROOT
HETATM    1  C1  UNL     1      11.496  14.846  70.370  1.00  0.00     0.010 C
HETATM    2  C2  UNL     1      10.808  13.493  70.567  1.00  0.00    -0.009 C
HETATM    3  C3  UNL     1       9.618  13.587  71.437  1.00  0.00     0.007 C
HETATM    4  C4  UNL     1       8.986  12.239  71.575  1.00  0.00     0.025 C
HETATM    5  C5  UNL     1       9.900  11.092  71.405  1.00  0.00     0.140 C
HETATM    6  C6  UNL     1       9.798  10.663  70.000  1.00  0.00     0.070 C
HETATM    7  N1  UNL     1       9.721  10.313  68.882  1.00  0.00    -0.197 NA
HETATM    8  C7  UNL     1      11.353  11.302  71.705  1.00  0.00     0.027 C
HETATM    9  C20 UNL     1      11.874  12.521  70.994  1.00  0.00     0.034 C
HETATM   10  C21 UNL     1      12.588  12.165  69.679  1.00  0.00     0.016 C
ENDROOT
BRANCH   8  11
HETATM   11  N2  UNL     1      11.749  11.110  73.040  1.00  0.00    -0.250 N
BRANCH  11  12
HETATM   12  C8  UNL     1      10.969  11.575  74.111  1.00  0.00     0.120 C
BRANCH  12  13
HETATM   13  C9  UNL     1      10.370  10.526  74.990  1.00  0.00    -0.019 A
HETATM   14  C10 UNL     1      10.583  10.548  76.361  1.00  0.00     0.013 A
HETATM   15  C11 UNL     1      10.040   9.580  77.182  1.00  0.00     0.009 A
HETATM   16  C12 UNL     1       9.264   8.551  76.693  1.00  0.00    -0.051 A
HETATM   17  C17 UNL     1       9.050   8.527  75.335  1.00  0.00     0.009 A
HETATM   18  C18 UNL     1       9.590   9.488  74.517  1.00  0.00     0.013 A
BRANCH  16  19
HETATM   19  C13 UNL     1       8.670   7.504  77.534  1.00  0.00    -0.024 C
HETATM   20  C14 UNL     1       8.381   8.018  78.952  1.00  0.00     0.019 C
HETATM   21  C15 UNL     1       7.337   7.083  76.960  1.00  0.00     0.019 C
HETATM   22  C16 UNL     1       9.524   6.257  77.607  1.00  0.00     0.019 C
ENDBRANCH  16  19
ENDBRANCH  12  13
ENDBRANCH  11  12
BRANCH  11  23
HETATM   23  S1  UNL     1      13.429  11.217  73.326  1.00  0.00     0.303 S
HETATM   24  O1  UNL     1      14.256  10.558  72.259  1.00  0.00    -0.197 OA
HETATM   25  O2  UNL     1      13.913  12.643  73.358  1.00  0.00    -0.197 OA
BRANCH  23  26
HETATM   26  C19 UNL     1      13.805  10.532  74.884  1.00  0.00     0.256 A
HETATM   27  N3  UNL     1      13.887   9.236  75.236  1.00  0.00    -0.258 N
HETATM   28  N4  UNL     1      14.222   9.189  76.505  1.00  0.00    -0.226 N
ATOM     29  H3  UNL     1      13.720   8.436  74.627  1.00  0.00     0.191 HD
HETATM   30  N5  UNL     1      14.365  10.402  77.006  1.00  0.00    -0.226 N
ATOM     31  H4  UNL     1      14.354   8.327  77.035  1.00  0.00     0.210 HD
HETATM   32  N6  UNL     1      14.109  11.234  76.014  1.00  0.00    -0.258 N
ATOM     33  H5  UNL     1      14.621  10.645  77.964  1.00  0.00     0.210 HD
ATOM     34  H6  UNL     1      14.135  12.252  76.083  1.00  0.00     0.191 HD
ENDBRANCH  23  26
ENDBRANCH  11  23
ENDBRANCH   8  11
TORSDOF 6
ENDMDL