MODEL 1
REMARK VINA RESULT: -7.917626608      0.000      0.000
REMARK  7 active torsions:
REMARK  status: ('A' for Active; 'I' for Inactive)
REMARK    1  A    between atoms: N1_4  and  C4_5
REMARK    2  A    between atoms: C4_5  and  C6_7
REMARK    3  A    between atoms: C7_8  and  C8_9
REMARK    4  A    between atoms: N2_18  and  C17_19
REMARK    5  A    between atoms: C17_19  and  C18_20
REMARK    6  A    between atoms: C20_24  and  N4_25
REMARK    7  A    between atoms: C23_28  and  O1_29
ROOT
HETATM    1  C1  UNL     1      12.925   9.630  77.450  1.00  0.00     0.034 C
HETATM    2  C2  UNL     1      11.972   9.644  76.286  1.00  0.00     0.098 C
HETATM    3  C3  UNL     1      10.560   9.732  76.853  1.00  0.00     0.147 C
HETATM    4  N1  UNL     1       9.607   9.491  75.840  1.00  0.00    -0.385 N
HETATM    5  C15 UNL     1      10.051   9.695  74.522  1.00  0.00     0.078 C
HETATM    6  C16 UNL     1      11.100  10.779  74.371  1.00  0.00     0.167 C
HETATM    7  N2  UNL     1      12.155  10.641  75.346  1.00  0.00    -0.379 N
ENDROOT
BRANCH   7   8
HETATM    8  C17 UNL     1      13.245  11.479  75.255  1.00  0.00     0.100 C
BRANCH   8   9
HETATM    9  C18 UNL     1      14.329  10.983  74.378  1.00  0.00     0.011 A
HETATM   10  C19 UNL     1      14.654   9.636  74.295  1.00  0.00     0.120 A
HETATM   11  N3  UNL     1      15.622   9.229  73.476  1.00  0.00    -0.201 N
HETATM   12  C20 UNL     1      16.334  10.081  72.690  1.00  0.00     0.679 A
ATOM     13  H3  UNL     1      15.839   8.233  73.438  1.00  0.00     0.183 HD
HETATM   14  N5  UNL     1      15.999  11.368  72.791  1.00  0.00    -0.201 N
HETATM   15  C25 UNL     1      15.046  11.853  73.585  1.00  0.00     0.120 A
ATOM     16  H5  UNL     1      16.514  12.034  72.214  1.00  0.00     0.183 HD
BRANCH  12  17
HETATM   17  N4  UNL     1      17.345   9.579  71.847  1.00  0.00    -0.215 N
HETATM   18  C21 UNL     1      18.000  10.289  70.782  1.00  0.00     0.144 C
HETATM   19  C22 UNL     1      19.458   9.854  70.976  1.00  0.00     0.054 C
HETATM   20  C23 UNL     1      19.374   8.493  71.624  1.00  0.00     0.138 C
HETATM   21  C24 UNL     1      17.907   8.255  71.898  1.00  0.00     0.173 C
BRANCH  20  22
HETATM   22  O1  UNL     1      19.864   7.529  70.751  1.00  0.00    -0.394 OA
ATOM     23  H1  UNL     1      20.488   7.927  70.155  1.00  0.00     0.210 HD
ENDBRANCH  20  22
ENDBRANCH  12  17
ENDBRANCH   8   9
ENDBRANCH   7   8
BRANCH   4  24
HETATM   24  C4  UNL     1       8.795   8.337  75.979  1.00  0.00     0.084 C
HETATM   25  C5  UNL     1       9.131   7.251  74.972  1.00  0.00     0.033 C
BRANCH  24  26
HETATM   26  C6  UNL     1       8.778   7.844  77.377  1.00  0.00     0.022 A
HETATM   27  C7  UNL     1       8.648   6.346  77.655  1.00  0.00     0.008 A
HETATM   28  C12 UNL     1       7.567   7.230  78.012  1.00  0.00    -0.037 A
HETATM   29  C13 UNL     1       6.279   7.082  77.185  1.00  0.00     0.015 C
HETATM   30  C14 UNL     1       7.269   7.732  79.395  1.00  0.00     0.015 C
BRANCH  27  31
HETATM   31  C8  UNL     1       9.637   5.687  78.530  1.00  0.00    -0.047 C
HETATM   32  C9  UNL     1      10.679   6.504  79.175  1.00  0.00     0.015 C
HETATM   33  C10 UNL     1      10.373   4.638  77.680  1.00  0.00     0.015 C
HETATM   34  C11 UNL     1       8.935   4.875  79.624  1.00  0.00     0.015 C
ENDBRANCH  27  31
ENDBRANCH  24  26
ENDBRANCH   4  24
TORSDOF 7
ENDMDL