MODEL 3
REMARK VINA RESULT: -8.060334550      2.543      9.371
REMARK  15 active torsions:
REMARK  status: ('A' for Active; 'I' for Inactive)
REMARK    1  A    between atoms: O1_2  and  C2_3
REMARK    2  A    between atoms: C2_3  and  C3_4
REMARK    3  A    between atoms: C3_4  and  C4_5
REMARK    4  A    between atoms: C4_5  and  N1_6
REMARK    5  A    between atoms: N1_6  and  C5_7
REMARK    6  A    between atoms: N1_6  and  C13_22
REMARK    7  A    between atoms: C5_7  and  O2_8
REMARK    8  A    between atoms: C5_7  and  C6_10
REMARK    9  A    between atoms: C10_16  and  C11_17
REMARK   10  A    between atoms: C13_22  and  C14_23
REMARK   11  A    between atoms: C13_22  and  C19_31
REMARK       I    between atoms: C14_23  and  N4_25
REMARK   12  A    between atoms: N4_25  and  C15_27
REMARK   13  A    between atoms: C21_33  and  O5_34
REMARK   14  A    between atoms: C23_36  and  O6_37
REMARK   15  A    between atoms: C25_39  and  O7_40
ROOT
HETATM    1  N1  UNL     1     122.787  55.489  16.600  1.00  0.00    -0.321 N
ENDROOT
BRANCH   1   2
HETATM    2  C4  UNL     1     123.748  54.467  16.922  1.00  0.00     0.133 C
BRANCH   2   3
HETATM    3  C3  UNL     1     125.102  54.855  16.329  1.00  0.00     0.046 C
BRANCH   3   4
HETATM    4  C2  UNL     1     125.860  53.647  15.870  1.00  0.00     0.168 C
BRANCH   4   5
HETATM    5  O1  UNL     1     125.581  53.287  14.584  1.00  0.00    -0.396 OA
HETATM    6  C1  UNL     1     125.349  54.377  13.762  1.00  0.00     0.201 C
ENDBRANCH   4   5
ENDBRANCH   3   4
ENDBRANCH   2   3
ENDBRANCH   1   2
BRANCH   1   7
HETATM    7  C5  UNL     1     123.139  56.824  16.376  1.00  0.00     0.160 C
BRANCH   7   8
HETATM    8  O2  UNL     1     123.121  57.246  15.123  1.00  0.00    -0.345 OA
ATOM      9  H2  UNL     1     123.029  58.181  14.985  1.00  0.00     0.219 HD
ENDBRANCH   7   8
BRANCH   7  10
HETATM   10  C6  UNL     1     123.534  57.882  17.288  1.00  0.00     0.057 A
HETATM   11  C7  UNL     1     122.899  58.625  18.232  1.00  0.00     0.037 A
HETATM   12  C8  UNL     1     123.596  59.544  18.927  1.00  0.00     0.000 A
HETATM   13  C9  UNL     1     123.365  60.493  19.947  1.00  0.00     0.101 A
HETATM   14  C12 UNL     1     124.919  59.683  18.641  1.00  0.00     0.049 A
HETATM   15  N2  UNL     1     124.521  61.134  20.216  1.00  0.00    -0.360 N
HETATM   16  C10 UNL     1     125.511  60.675  19.441  1.00  0.00     0.116 A
ATOM     17  H2  UNL     1     124.626  61.869  20.915  1.00  0.00     0.165 HD
HETATM   18  S1  UNL     1     125.164  58.537  17.419  1.00  0.00    -0.083 SA
BRANCH  16  19
HETATM   19  C11 UNL     1     126.893  61.067  19.389  1.00  0.00     0.282 C
HETATM   20  N3  UNL     1     127.876  60.113  19.008  1.00  0.00    -0.056 NA
HETATM   21  O3  UNL     1     127.263  62.217  19.667  1.00  0.00    -0.269 OA
ENDBRANCH  16  19
ENDBRANCH   7  10
ENDBRANCH   1   7
BRANCH   1  22
HETATM   22  C13 UNL     1     121.383  55.060  16.454  1.00  0.00     0.115 C
BRANCH  22  23
HETATM   23  C14 UNL     1     120.413  56.105  16.711  1.00  0.00     0.269 C
HETATM   24  O4  UNL     1     119.891  56.754  15.737  1.00  0.00    -0.266 OA
HETATM   25  N4  UNL     1     119.964  56.496  17.993  1.00  0.00    -0.348 N
ATOM     26  H4  UNL     1     120.341  56.015  18.809  1.00  0.00     0.163 HD
BRANCH  25  27
HETATM   27  C15 UNL     1     118.991  57.550  18.198  1.00  0.00     0.022 C
HETATM   28  C16 UNL     1     119.415  58.861  17.593  1.00  0.00     0.037 C
HETATM   29  C17 UNL     1     118.790  57.769  19.681  1.00  0.00     0.037 C
HETATM   30  C18 UNL     1     117.654  57.181  17.614  1.00  0.00     0.037 C
ENDBRANCH  25  27
ENDBRANCH  22  23
BRANCH  22  31
HETATM   31  C19 UNL     1     121.138  54.141  15.330  1.00  0.00     0.002 A
HETATM   32  C20 UNL     1     119.822  53.959  14.855  1.00  0.00     0.053 A
HETATM   33  C21 UNL     1     119.492  53.105  13.835  1.00  0.00     0.105 A
HETATM   34  C23 UNL     1     120.488  52.391  13.242  1.00  0.00     0.135 A
HETATM   35  C25 UNL     1     121.784  52.519  13.652  1.00  0.00     0.105 A
HETATM   36  C27 UNL     1     122.078  53.402  14.700  1.00  0.00     0.053 A
BRANCH  33  37
HETATM   37  O5  UNL     1     118.158  53.001  13.444  1.00  0.00    -0.353 OA
HETATM   38  C22 UNL     1     117.379  51.974  14.006  1.00  0.00     0.210 C
ENDBRANCH  33  37
BRANCH  34  39
HETATM   39  O6  UNL     1     120.168  51.524  12.206  1.00  0.00    -0.351 OA
HETATM   40  C24 UNL     1     119.909  50.156  12.430  1.00  0.00     0.210 C
ENDBRANCH  34  39
BRANCH  35  41
HETATM   41  O7  UNL     1     122.810  51.775  13.033  1.00  0.00    -0.353 OA
HETATM   42  C26 UNL     1     123.413  50.714  13.739  1.00  0.00     0.210 C
ENDBRANCH  35  41
ENDBRANCH  22  31
ENDBRANCH   1  22
TORSDOF 15
ENDMDL