MODEL 3
REMARK VINA RESULT: -7.562657334      1.123      1.393
REMARK  14 active torsions:
REMARK  status: ('A' for Active; 'I' for Inactive)
REMARK    1  A    between atoms: C2_2  and  C3_3
REMARK    2  A    between atoms: C3_3  and  N1_4
REMARK    3  A    between atoms: N1_4  and  C4_6
REMARK    4  A    between atoms: C5_9  and  C6_10
REMARK    5  A    between atoms: C6_10  and  O1_11
REMARK    6  A    between atoms: C8_13  and  C9_14
REMARK    7  A    between atoms: C9_14  and  N3_15
REMARK    8  A    between atoms: N3_15  and  C10_16
REMARK    9  A    between atoms: N3_15  and  C12_22
REMARK   10  A    between atoms: C10_16  and  C11_17
REMARK   11  A    between atoms: C11_17  and  N4_18
REMARK   12  A    between atoms: C19_29  and  N5_30
REMARK   13  A    between atoms: C22_33  and  N6_34
REMARK       I    between atoms: N6_34  and  C23_36
REMARK       I    between atoms: C23_36  and  N7_38
REMARK   14  A    between atoms: N7_38  and  C24_39
REMARK       I    between atoms: N7_38  and  C26_41
ROOT
HETATM    1  C4  UNL     1     122.895  52.274  14.981  1.00  0.00     0.683 A
HETATM    2  N2  UNL     1     121.585  52.337  15.025  1.00  0.00    -0.192 N
ATOM      3  H2  UNL     1     121.066  51.575  14.590  1.00  0.00     0.184 HD
HETATM    4  C5  UNL     1     120.875  53.316  15.591  1.00  0.00     0.065 A
HETATM    5  C8  UNL     1     121.568  54.414  16.218  1.00  0.00     0.049 A
HETATM    6  C19 UNL     1     122.897  54.319  16.160  1.00  0.00     0.132 A
HETATM    7  N8  UNL     1     123.571  53.284  15.559  1.00  0.00    -0.176 N
ATOM      8  H8  UNL     1     124.591  53.281  15.551  1.00  0.00     0.186 HD
ENDROOT
BRANCH   6   9
HETATM    9  N5  UNL     1     123.802  55.188  16.844  1.00  0.00    -0.366 N
HETATM   10  C20 UNL     1     123.860  54.995  18.306  1.00  0.00     0.126 C
HETATM   11  C21 UNL     1     123.522  56.305  18.980  1.00  0.00     0.045 C
HETATM   12  C22 UNL     1     124.617  57.255  18.592  1.00  0.00     0.089 C
HETATM   13  C27 UNL     1     124.602  57.507  17.124  1.00  0.00     0.045 C
HETATM   14  C28 UNL     1     124.581  56.239  16.292  1.00  0.00     0.126 C
BRANCH  12  15
HETATM   15  N6  UNL     1     124.421  58.531  19.277  1.00  0.00    -0.338 N
HETATM   16  C23 UNL     1     125.484  59.514  19.161  1.00  0.00     0.327 C
HETATM   17  O2  UNL     1     126.484  59.193  18.546  1.00  0.00    -0.247 OA
HETATM   18  N7  UNL     1     125.323  60.797  19.766  1.00  0.00    -0.244 N
HETATM   19  C26 UNL     1     126.319  61.661  19.845  1.00  0.00     0.294 C
HETATM   20  O3  UNL     1     126.154  62.825  20.510  1.00  0.00    -0.629 OA
HETATM   21  O4  UNL     1     127.641  61.621  19.352  1.00  0.00    -0.629 OA
ATOM     22  H6  UNL     1     123.575  58.723  19.813  1.00  0.00     0.164 HD
BRANCH  18  23
HETATM   23  C24 UNL     1     124.031  61.123  20.403  1.00  0.00     0.135 C
HETATM   24  C25 UNL     1     123.234  61.975  19.443  1.00  0.00     0.027 C
ENDBRANCH  18  23
ENDBRANCH  12  15
ENDBRANCH   6   9
BRANCH   5  25
HETATM   25  C9  UNL     1     120.777  55.351  16.948  1.00  0.00     0.107 C
BRANCH  25  26
HETATM   26  N3  UNL     1     120.415  56.628  16.514  1.00  0.00    -0.363 N
BRANCH  26  27
HETATM   27  C10 UNL     1     121.099  57.311  15.544  1.00  0.00     0.091 C
BRANCH  27  28
HETATM   28  C11 UNL     1     121.384  56.592  14.232  1.00  0.00     0.274 C
BRANCH  28  29
HETATM   29  N4  UNL     1     122.662  57.145  13.744  1.00  0.00    -0.075 N
ATOM     30  H43 UNL     1     123.421  56.465  13.725  1.00  0.00     0.274 HD
ATOM     31  H42 UNL     1     122.662  57.356  12.746  1.00  0.00     0.274 HD
ATOM     32  H41 UNL     1     122.854  57.956  14.333  1.00  0.00     0.274 HD
ENDBRANCH  28  29
ENDBRANCH  27  28
ENDBRANCH  26  27
BRANCH  26  33
HETATM   33  C12 UNL     1     120.072  57.467  17.668  1.00  0.00     0.088 C
HETATM   34  C13 UNL     1     118.625  57.481  18.002  1.00  0.00     0.026 C
HETATM   35  C14 UNL     1     118.362  58.022  19.385  1.00  0.00     0.002 C
HETATM   36  C15 UNL     1     119.479  57.876  20.358  1.00  0.00     0.000 C
HETATM   37  C16 UNL     1     120.635  58.811  20.104  1.00  0.00     0.000 C
HETATM   38  C17 UNL     1     120.470  59.620  18.863  1.00  0.00     0.002 C
HETATM   39  C18 UNL     1     120.620  58.840  17.575  1.00  0.00     0.026 C
ENDBRANCH  26  33
ENDBRANCH  25  26
ENDBRANCH   5  25
BRANCH   4  40
HETATM   40  C6  UNL     1     119.423  53.323  15.607  1.00  0.00     0.225 C
BRANCH  40  41
HETATM   41  O1  UNL     1     118.772  53.811  14.498  1.00  0.00    -0.390 OA
HETATM   42  C7  UNL     1     118.027  52.928  13.783  1.00  0.00     0.201 C
ENDBRANCH  40  41
ENDBRANCH   4  40
BRANCH   1  43
HETATM   43  N1  UNL     1     123.561  51.293  14.483  1.00  0.00    -0.205 N
ATOM     44  H1  UNL     1     123.029  50.422  14.482  1.00  0.00     0.183 HD
BRANCH  43  45
HETATM   45  C3  UNL     1     124.826  51.138  13.949  1.00  0.00     0.078 C
BRANCH  45  46
HETATM   46  C2  UNL     1     125.385  49.778  13.708  1.00  0.00     0.040 C
HETATM   47  C1  UNL     1     124.463  48.667  14.162  1.00  0.00     0.010 C
ENDBRANCH  45  46
ENDBRANCH  43  45
ENDBRANCH   1  43
TORSDOF 14
ENDMDL