MODEL 3
REMARK VINA RESULT: -7.404622002      2.518      3.847
REMARK  12 active torsions:
REMARK  status: ('A' for Active; 'I' for Inactive)
REMARK    1  A    between atoms: S1_2  and  S2_3
REMARK    2  A    between atoms: S2_3  and  C2_4
REMARK    3  A    between atoms: C2_4  and  C3_5
REMARK    4  A    between atoms: C3_5  and  C4_6
REMARK    5  A    between atoms: C3_5  and  N5_38
REMARK       I    between atoms: C4_6  and  N1_8
REMARK    6  A    between atoms: N1_8  and  C5_10
REMARK    7  A    between atoms: C5_10  and  C6_11
REMARK    8  A    between atoms: C6_11  and  C7_12
REMARK    9  A    between atoms: C7_12  and  N2_13
REMARK   10  A    between atoms: N2_13  and  C10_16
REMARK   11  A    between atoms: C22_34  and  C23_35
REMARK   12  A    between atoms: C23_35  and  O3_36
ROOT
HETATM    1  C10 UNL     1     123.616  57.609  18.272  1.00  0.00     0.203 C
HETATM    2  C11 UNL     1     122.361  58.446  17.927  1.00  0.00     0.043 C
HETATM    3  C12 UNL     1     121.747  58.934  19.220  1.00  0.00     0.042 C
HETATM    4  C13 UNL     1     120.257  58.939  19.235  1.00  0.00     0.015 C
HETATM    5  C14 UNL     1     119.561  59.866  18.327  1.00  0.00     0.027 C
HETATM    6  C15 UNL     1     119.840  57.518  18.796  1.00  0.00     0.027 C
HETATM    7  S3  UNL     1     119.748  59.042  20.981  1.00  0.00    -0.085 SA
HETATM    8  C16 UNL     1     121.229  59.669  21.836  1.00  0.00     0.137 C
HETATM    9  N3  UNL     1     121.423  59.459  23.086  1.00  0.00    -0.380 N
ATOM     10  H31 UNL     1     122.252  59.810  23.565  1.00  0.00     0.158 HD
ATOM     11  H32 UNL     1     120.723  58.926  23.602  1.00  0.00     0.158 HD
HETATM   12  N4  UNL     1     122.200  60.410  21.118  1.00  0.00    -0.345 N
HETATM   13  C17 UNL     1     123.049  61.532  21.424  1.00  0.00     0.126 C
HETATM   14  C18 UNL     1     122.937  62.356  20.152  1.00  0.00     0.023 C
HETATM   15  C19 UNL     1     122.278  61.433  19.113  1.00  0.00     0.041 C
HETATM   16  C20 UNL     1     122.496  60.084  19.725  1.00  0.00     0.100 C
HETATM   17  C21 UNL     1     123.944  59.766  19.503  1.00  0.00     0.163 C
HETATM   18  O2  UNL     1     124.812  60.621  19.446  1.00  0.00    -0.295 OA
HETATM   19  C22 UNL     1     124.305  58.301  19.343  1.00  0.00     0.113 C
ENDROOT
BRANCH   1  20
HETATM   20  N2  UNL     1     124.262  57.255  17.048  1.00  0.00    -0.070 N
HETATM   21  C8  UNL     1     125.563  57.903  16.973  1.00  0.00     0.272 C
HETATM   22  C9  UNL     1     123.484  57.370  15.868  1.00  0.00     0.272 C
BRANCH  20  23
HETATM   23  C7  UNL     1     124.595  55.821  17.197  1.00  0.00     0.238 C
BRANCH  23  24
HETATM   24  C6  UNL     1     125.763  55.428  16.307  1.00  0.00     0.048 C
BRANCH  24  25
HETATM   25  C5  UNL     1     125.505  54.091  15.650  1.00  0.00     0.124 C
BRANCH  25  26
HETATM   26  N1  UNL     1     124.117  53.792  15.642  1.00  0.00    -0.359 N
HETATM   27  C4  UNL     1     123.439  53.174  14.572  1.00  0.00     0.240 C
HETATM   28  O1  UNL     1     123.986  52.824  13.499  1.00  0.00    -0.271 OA
ATOM     29  H1  UNL     1     123.572  54.041  16.468  1.00  0.00     0.162 HD
BRANCH  27  30
HETATM   30  C3  UNL     1     121.955  52.892  14.669  1.00  0.00     0.181 C
BRANCH  30  31
HETATM   31  C2  UNL     1     121.451  52.719  13.288  1.00  0.00     0.120 C
BRANCH  31  32
HETATM   32  S2  UNL     1     120.166  51.499  13.066  1.00  0.00    -0.096 SA
BRANCH  32  33
HETATM   33  S1  UNL     1     118.264  52.428  13.291  1.00  0.00    -0.102 SA
HETATM   34  C1  UNL     1     116.922  51.257  12.944  1.00  0.00     0.102 C
ENDBRANCH  32  33
ENDBRANCH  31  32
ENDBRANCH  30  31
BRANCH  30  35
HETATM   35  N5  UNL     1     121.271  53.900  15.394  1.00  0.00    -0.408 N
HETATM   36  C24 UNL     1     120.313  53.454  16.352  1.00  0.00     0.143 C
HETATM   37  C25 UNL     1     120.795  55.008  14.611  1.00  0.00     0.143 C
ENDBRANCH  30  35
ENDBRANCH  27  30
ENDBRANCH  25  26
ENDBRANCH  24  25
ENDBRANCH  23  24
ENDBRANCH  20  23
ENDBRANCH   1  20
BRANCH  19  38
HETATM   38  C23 UNL     1     125.775  58.213  19.517  1.00  0.00     0.178 C
BRANCH  38  39
HETATM   39  O3  UNL     1     126.022  58.579  20.881  1.00  0.00    -0.400 OA
ATOM     40  H3  UNL     1     126.251  59.501  20.860  1.00  0.00     0.209 HD
ENDBRANCH  38  39
ENDBRANCH  19  38
TORSDOF 12
ENDMDL