MODEL 4
REMARK VINA RESULT: -7.716142117      1.898      8.465
REMARK  13 active torsions:
REMARK  status: ('A' for Active; 'I' for Inactive)
REMARK    1  A    between atoms: C5_8  and  N2_9
REMARK    2  A    between atoms: C6_10  and  C7_11
REMARK    3  A    between atoms: C7_11  and  N3_12
REMARK    4  A    between atoms: N3_12  and  C8_13
REMARK    5  A    between atoms: N3_12  and  C13_19
REMARK    6  A    between atoms: C8_13  and  C9_14
REMARK    7  A    between atoms: C9_14  and  C10_15
REMARK    8  A    between atoms: C10_15  and  N4_16
REMARK    9  A    between atoms: C19_25  and  C20_26
REMARK   10  A    between atoms: C20_26  and  O2_27
REMARK   11  A    between atoms: C20_26  and  C21_29
REMARK   12  A    between atoms: C21_29  and  N5_30
REMARK   13  A    between atoms: N5_30  and  C22_33
ROOT
HETATM    1  N2  UNL     1     121.653  54.673  15.624  1.00  0.00    -0.351 N
HETATM    2  C6  UNL     1     121.778  55.797  16.590  1.00  0.00     0.121 C
HETATM    3  C19 UNL     1     120.488  56.430  16.429  1.00  0.00     0.043 C
HETATM    4  C25 UNL     1     119.482  55.315  16.082  1.00  0.00     0.040 C
HETATM    5  C26 UNL     1     120.318  54.177  15.575  1.00  0.00     0.035 C
HETATM    6  C27 UNL     1     120.115  52.915  16.383  1.00  0.00     0.031 C
HETATM    7  C28 UNL     1     118.846  52.232  15.921  1.00  0.00     0.002 C
HETATM    8  C29 UNL     1     119.107  51.511  14.620  1.00  0.00     0.000 C
HETATM    9  C30 UNL     1     119.985  52.420  13.793  1.00  0.00     0.002 C
HETATM   10  C31 UNL     1     119.818  53.866  14.172  1.00  0.00     0.031 C
ENDROOT
BRANCH   2  11
HETATM   11  C7  UNL     1     122.299  55.290  17.860  1.00  0.00     0.298 C
BRANCH  11  12
HETATM   12  N3  UNL     1     123.329  56.105  18.512  1.00  0.00     0.095 N
BRANCH  12  13
HETATM   13  C8  UNL     1     123.036  57.495  18.405  1.00  0.00     0.274 C
BRANCH  13  14
HETATM   14  C9  UNL     1     123.734  58.267  19.499  1.00  0.00     0.050 C
BRANCH  14  15
HETATM   15  C10 UNL     1     124.042  59.689  19.032  1.00  0.00     0.117 C
BRANCH  15  16
HETATM   16  N4  UNL     1     125.317  60.065  19.562  1.00  0.00    -0.421 N
HETATM   17  C11 UNL     1     126.430  59.448  18.907  1.00  0.00     0.142 C
HETATM   18  C12 UNL     1     125.501  61.434  19.883  1.00  0.00     0.142 C
ENDBRANCH  15  16
ENDBRANCH  14  15
ENDBRANCH  13  14
ENDBRANCH  12  13
BRANCH  12  19
HETATM   19  C13 UNL     1     124.572  55.804  17.843  1.00  0.00     0.223 C
HETATM   20  C14 UNL     1     124.968  56.743  16.754  1.00  0.00     0.036 C
HETATM   21  C15 UNL     1     126.451  56.484  16.445  1.00  0.00     0.002 C
HETATM   22  C16 UNL     1     126.711  55.052  16.095  1.00  0.00     0.000 C
HETATM   23  C17 UNL     1     126.080  54.071  17.069  1.00  0.00     0.002 C
HETATM   24  C18 UNL     1     124.597  54.411  17.223  1.00  0.00     0.036 C
ENDBRANCH  12  19
ENDBRANCH  11  12
ENDBRANCH   2  11
BRANCH   1  25
HETATM   25  C5  UNL     1     122.751  54.195  14.871  1.00  0.00     0.111 A
HETATM   26  C4  UNL     1     123.548  55.059  14.155  1.00  0.00     0.122 A
HETATM   27  C3  UNL     1     124.610  54.542  13.422  1.00  0.00     0.250 A
HETATM   28  N1  UNL     1     124.821  53.210  13.438  1.00  0.00    -0.313 N
HETATM   29  O1  UNL     1     125.353  55.314  12.758  1.00  0.00    -0.268 OA
HETATM   30  C2  UNL     1     124.054  52.352  14.130  1.00  0.00     0.081 A
ATOM     31  H1  UNL     1     125.603  52.835  12.898  1.00  0.00     0.170 HD
HETATM   32  C1  UNL     1     124.357  50.901  14.088  1.00  0.00     0.089 C
HETATM   33  N6  UNL     1     123.031  52.880  14.834  1.00  0.00    -0.332 N
ATOM     34  H6  UNL     1     122.437  52.246  15.369  1.00  0.00     0.168 HD
ENDBRANCH   1  25
BRANCH   3  35
HETATM   35  C20 UNL     1     119.901  57.348  17.416  1.00  0.00     0.150 C
BRANCH  35  36
HETATM   36  O2  UNL     1     118.629  57.117  17.844  1.00  0.00    -0.393 OA
ATOM     37  H2  UNL     1     118.503  56.659  18.667  1.00  0.00     0.210 HD
ENDBRANCH  35  36
BRANCH  35  38
HETATM   38  C21 UNL     1     119.891  58.736  16.755  1.00  0.00     0.264 C
BRANCH  38  39
HETATM   39  N5  UNL     1     120.777  59.658  17.384  1.00  0.00    -0.064 N
ATOM     40  H52 UNL     1     121.609  59.220  17.779  1.00  0.00     0.277 HD
ATOM     41  H51 UNL     1     121.262  60.270  16.728  1.00  0.00     0.277 HD
BRANCH  39  42
HETATM   42  C22 UNL     1     119.964  60.383  18.375  1.00  0.00     0.233 C
HETATM   43  C23 UNL     1     120.386  60.103  19.803  1.00  0.00     0.202 C
HETATM   44  O3  UNL     1     120.537  61.468  20.067  1.00  0.00    -0.387 OA
HETATM   45  C24 UNL     1     120.415  61.763  18.705  1.00  0.00     0.202 C
ENDBRANCH  39  42
ENDBRANCH  38  39
ENDBRANCH  35  38
ENDBRANCH   3  35
TORSDOF 13
ENDMDL