MODEL 1
REMARK VINA RESULT: -8.342183222      0.000      0.000
REMARK  14 active torsions:
REMARK  status: ('A' for Active; 'I' for Inactive)
REMARK    1  A    between atoms: C2_2  and  C3_3
REMARK    2  A    between atoms: C3_3  and  O1_4
REMARK    3  A    between atoms: O1_4  and  C4_5
REMARK    4  A    between atoms: C5_6  and  O2_7
REMARK    5  A    between atoms: O2_7  and  C6_8
REMARK    6  A    between atoms: C6_8  and  C7_9
REMARK    7  A    between atoms: C7_9  and  C8_10
REMARK    8  A    between atoms: C8_10  and  C9_11
REMARK    9  A    between atoms: C9_11  and  N1_12
REMARK       I    between atoms: N2_15  and  C12_16
REMARK   10  A    between atoms: C12_16  and  C13_18
REMARK   11  A    between atoms: C20_25  and  N3_26
REMARK       I    between atoms: N3_26  and  C21_28
REMARK       I    between atoms: C21_28  and  N4_30
REMARK   12  A    between atoms: C28_38  and  C29_39
REMARK   13  A    between atoms: C29_39  and  N6_40
REMARK   14  A    between atoms: C29_39  and  N7_44
ROOT
HETATM    1  C4  UNL     1     123.341  59.132  19.592  1.00  0.00     0.112 A
HETATM    2  C5  UNL     1     122.382  58.198  19.298  1.00  0.00     0.104 A
HETATM    3  C19 UNL     1     122.699  57.064  18.534  1.00  0.00     0.069 A
HETATM    4  C20 UNL     1     123.958  56.844  18.057  1.00  0.00     0.039 A
HETATM    5  C27 UNL     1     124.936  57.802  18.358  1.00  0.00     0.043 A
HETATM    6  C28 UNL     1     124.617  58.914  19.110  1.00  0.00     0.037 A
ENDROOT
BRANCH   2   7
HETATM    7  O2  UNL     1     121.101  58.424  19.781  1.00  0.00    -0.348 OA
BRANCH   7   8
HETATM    8  C6  UNL     1     120.075  57.556  19.262  1.00  0.00     0.176 C
BRANCH   8   9
HETATM    9  C7  UNL     1     119.200  58.273  18.289  1.00  0.00     0.028 C
BRANCH   9  10
HETATM   10  C8  UNL     1     119.674  57.995  16.888  1.00  0.00     0.032 C
BRANCH  10  11
HETATM   11  C9  UNL     1     119.296  56.622  16.474  1.00  0.00     0.272 C
BRANCH  11  12
HETATM   12  N1  UNL     1     120.497  55.867  16.065  1.00  0.00     0.091 N
HETATM   13  C10 UNL     1     120.370  55.677  14.663  1.00  0.00     0.292 C
HETATM   14  C11 UNL     1     120.688  54.357  14.089  1.00  0.00     0.156 C
HETATM   15  N2  UNL     1     120.396  53.287  15.019  1.00  0.00    -0.348 N
HETATM   16  C12 UNL     1     119.552  52.203  14.746  1.00  0.00     0.224 C
HETATM   17  C17 UNL     1     121.063  53.453  16.295  1.00  0.00     0.156 C
HETATM   18  O3  UNL     1     119.401  51.325  15.634  1.00  0.00    -0.273 OA
HETATM   19  C18 UNL     1     120.504  54.713  16.889  1.00  0.00     0.292 C
BRANCH  16  20
HETATM   20  C13 UNL     1     118.816  52.015  13.479  1.00  0.00     0.078 C
HETATM   21  C14 UNL     1     118.771  50.603  12.940  1.00  0.00     0.014 C
HETATM   22  C15 UNL     1     117.335  50.900  12.510  1.00  0.00     0.002 C
HETATM   23  C16 UNL     1     117.311  51.915  13.634  1.00  0.00     0.014 C
ENDBRANCH  16  20
ENDBRANCH  11  12
ENDBRANCH  10  11
ENDBRANCH   9  10
ENDBRANCH   8   9
ENDBRANCH   7   8
ENDBRANCH   2   7
BRANCH   1  24
HETATM   24  O1  UNL     1     123.126  60.280  20.338  1.00  0.00    -0.348 OA
BRANCH  24  25
HETATM   25  C3  UNL     1     122.707  61.499  19.775  1.00  0.00     0.175 C
BRANCH  25  26
HETATM   26  C2  UNL     1     121.228  61.681  20.035  1.00  0.00     0.022 C
HETATM   27  C1  UNL     1     120.432  61.696  18.755  1.00  0.00     0.007 C
ENDBRANCH  25  26
ENDBRANCH  24  25
ENDBRANCH   1  24
BRANCH   6  28
HETATM   28  C29 UNL     1     125.724  59.874  19.379  1.00  0.00     0.414 C
BRANCH  28  29
HETATM   29  N6  UNL     1     125.974  59.820  20.816  1.00  0.00    -0.046 N
ATOM     30  H63 UNL     1     126.048  58.869  21.179  1.00  0.00     0.277 HD
ATOM     31  H62 UNL     1     126.912  60.127  21.076  1.00  0.00     0.277 HD
ATOM     32  H61 UNL     1     125.233  60.365  21.256  1.00  0.00     0.277 HD
ENDBRANCH  28  29
BRANCH  28  33
HETATM   33  N7  UNL     1     126.893  59.402  18.666  1.00  0.00    -0.046 N
ATOM     34  H73 UNL     1     127.724  59.962  18.852  1.00  0.00     0.277 HD
ATOM     35  H72 UNL     1     127.246  58.516  19.026  1.00  0.00     0.277 HD
ATOM     36  H71 UNL     1     126.653  59.363  17.675  1.00  0.00     0.277 HD
ENDBRANCH  28  33
ENDBRANCH   6  28
BRANCH   4  37
HETATM   37  N3  UNL     1     124.351  55.689  17.306  1.00  0.00    -0.309 N
HETATM   38  C21 UNL     1     124.210  55.489  15.940  1.00  0.00     0.323 C
HETATM   39  O4  UNL     1     123.682  56.372  15.215  1.00  0.00    -0.247 OA
HETATM   40  N4  UNL     1     124.638  54.306  15.292  1.00  0.00    -0.331 N
HETATM   41  C22 UNL     1     125.261  53.182  15.920  1.00  0.00     0.147 C
HETATM   42  C26 UNL     1     124.451  54.198  13.836  1.00  0.00     0.147 C
HETATM   43  C23 UNL     1     124.516  51.920  15.526  1.00  0.00     0.136 C
HETATM   44  N5  UNL     1     124.337  51.750  14.126  1.00  0.00    -0.414 N
HETATM   45  C24 UNL     1     125.351  51.004  13.447  1.00  0.00     0.143 C
HETATM   46  C25 UNL     1     123.841  52.897  13.443  1.00  0.00     0.136 C
ATOM     47  H3  UNL     1     124.782  54.930  17.833  1.00  0.00     0.170 HD
ENDBRANCH   4  37
TORSDOF 14
ENDMDL