MODEL 1
REMARK VINA RESULT: -9.540703811      0.000      0.000
REMARK  14 active torsions:
REMARK  status: ('A' for Active; 'I' for Inactive)
REMARK    1  A    between atoms: N1_2  and  C2_4
REMARK    2  A    between atoms: C2_4  and  C3_5
REMARK    3  A    between atoms: C3_5  and  N2_6
REMARK    4  A    between atoms: C4_7  and  C5_8
REMARK    5  A    between atoms: C5_8  and  C6_9
REMARK    6  A    between atoms: C6_9  and  C7_10
REMARK    7  A    between atoms: C7_10  and  O1_11
REMARK    8  A    between atoms: C10_16  and  C11_17
REMARK    9  A    between atoms: C13_19  and  C14_20
REMARK   10  A    between atoms: C14_20  and  O2_21
REMARK   11  A    between atoms: C14_20  and  N4_23
REMARK   12  A    between atoms: N4_23  and  C15_25
REMARK   13  A    between atoms: C15_25  and  C16_26
REMARK       I    between atoms: C16_26  and  N5_28
REMARK   14  A    between atoms: C20_32  and  C21_33
ROOT
HETATM    1  C11 UNL     1     120.350  57.822  17.382  1.00  0.00     0.030 A
HETATM    2  C12 UNL     1     120.862  57.133  16.312  1.00  0.00     0.033 A
HETATM    3  C13 UNL     1     120.147  56.148  15.598  1.00  0.00     0.021 A
HETATM    4  C26 UNL     1     118.888  55.883  16.008  1.00  0.00    -0.046 A
HETATM    5  C27 UNL     1     118.069  54.832  15.341  1.00  0.00     0.049 C
HETATM    6  C28 UNL     1     118.331  56.572  17.099  1.00  0.00     0.031 A
HETATM    7  C29 UNL     1     119.047  57.523  17.773  1.00  0.00     0.059 A
HETATM    8  C30 UNL     1     118.381  58.160  18.878  1.00  0.00     0.100 C
HETATM    9  N6  UNL     1     117.819  58.657  19.778  1.00  0.00    -0.191 NA
ENDROOT
BRANCH   1  10
HETATM   10  C10 UNL     1     121.089  58.801  18.176  1.00  0.00     0.119 A
HETATM   11  N2  UNL     1     122.233  58.768  18.846  1.00  0.00    -0.330 N
HETATM   12  C4  UNL     1     122.391  60.028  19.412  1.00  0.00     0.029 A
HETATM   13  C9  UNL     1     121.323  60.811  19.073  1.00  0.00     0.115 A
HETATM   14  N3  UNL     1     120.539  60.061  18.325  1.00  0.00    -0.350 N
ATOM     15  H3  UNL     1     119.655  60.365  17.917  1.00  0.00     0.167 HD
BRANCH  11  16
HETATM   16  C3  UNL     1     123.205  57.742  19.045  1.00  0.00     0.174 C
BRANCH  16  17
HETATM   17  C2  UNL     1     124.623  58.112  18.751  1.00  0.00     0.075 C
BRANCH  17  18
HETATM   18  N1  UNL     1     125.043  58.246  17.422  1.00  0.00    -0.405 N
HETATM   19  C1  UNL     1     126.392  58.001  17.090  1.00  0.00     0.145 C
ATOM     20  H1  UNL     1     124.378  58.519  16.698  1.00  0.00     0.158 HD
ENDBRANCH  17  18
ENDBRANCH  16  17
ENDBRANCH  11  16
BRANCH  12  21
HETATM   21  C5  UNL     1     123.523  60.456  20.241  1.00  0.00     0.061 C
BRANCH  21  22
HETATM   22  C6  UNL     1     124.201  61.675  19.586  1.00  0.00     0.032 C
BRANCH  22  23
HETATM   23  C7  UNL     1     125.476  62.005  20.294  1.00  0.00     0.167 C
BRANCH  23  24
HETATM   24  O1  UNL     1     126.519  62.052  19.420  1.00  0.00    -0.396 OA
HETATM   25  C8  UNL     1     127.195  60.873  19.239  1.00  0.00     0.201 C
ENDBRANCH  23  24
ENDBRANCH  22  23
ENDBRANCH  21  22
ENDBRANCH  12  21
ENDBRANCH   1  10
BRANCH   3  26
HETATM   26  C14 UNL     1     120.792  55.559  14.461  1.00  0.00     0.147 C
BRANCH  26  27
HETATM   27  O2  UNL     1     121.759  56.270  13.954  1.00  0.00    -0.346 OA
ATOM     28  H2  UNL     1     121.630  56.526  13.048  1.00  0.00     0.219 HD
ENDBRANCH  26  27
BRANCH  26  29
HETATM   29  N4  UNL     1     120.568  54.362  13.797  1.00  0.00    -0.352 N
ATOM     30  H4  UNL     1     120.043  54.394  12.923  1.00  0.00     0.163 HD
BRANCH  29  31
HETATM   31  C15 UNL     1     121.039  53.042  14.271  1.00  0.00     0.113 C
HETATM   32  C22 UNL     1     119.861  52.365  14.910  1.00  0.00     0.041 C
HETATM   33  C23 UNL     1     119.110  51.646  13.816  1.00  0.00     0.003 C
HETATM   34  C24 UNL     1     120.254  51.133  12.954  1.00  0.00     0.003 C
HETATM   35  C25 UNL     1     121.331  52.190  13.068  1.00  0.00     0.041 C
BRANCH  31  36
HETATM   36  C16 UNL     1     122.167  53.221  15.192  1.00  0.00     0.249 C
HETATM   37  O3  UNL     1     121.908  53.273  16.442  1.00  0.00    -0.270 OA
HETATM   38  N5  UNL     1     123.548  53.353  14.835  1.00  0.00    -0.335 N
HETATM   39  C17 UNL     1     124.150  53.295  13.540  1.00  0.00     0.127 C
HETATM   40  C20 UNL     1     124.558  53.596  15.815  1.00  0.00     0.188 C
HETATM   41  C18 UNL     1     125.574  53.845  13.737  1.00  0.00     0.022 C
HETATM   42  C19 UNL     1     125.878  53.474  15.166  1.00  0.00     0.038 C
BRANCH  40  43
HETATM   43  C21 UNL     1     124.372  54.890  16.521  1.00  0.00     0.196 C
HETATM   44  O4  UNL     1     124.580  54.922  17.757  1.00  0.00    -0.646 OA
HETATM   45  O5  UNL     1     123.979  56.028  15.860  1.00  0.00    -0.646 OA
ENDBRANCH  40  43
ENDBRANCH  31  36
ENDBRANCH  29  31
ENDBRANCH  26  29
ENDBRANCH   3  26
TORSDOF 14
ENDMDL