MODEL 4
REMARK VINA RESULT: -8.506219709      1.751      2.433
REMARK  14 active torsions:
REMARK  status: ('A' for Active; 'I' for Inactive)
REMARK    1  A    between atoms: C2_2  and  N1_3
REMARK    2  A    between atoms: C3_4  and  C4_5
REMARK       I    between atoms: C4_5  and  N2_7
REMARK    3  A    between atoms: N2_7  and  C5_9
REMARK    4  A    between atoms: C5_9  and  C6_10
REMARK    5  A    between atoms: C6_10  and  C7_11
REMARK    6  A    between atoms: C7_11  and  C8_12
REMARK    7  A    between atoms: C8_12  and  C9_13
REMARK    8  A    between atoms: C9_13  and  N3_14
REMARK    9  A    between atoms: C18_23  and  N4_24
REMARK   10  A    between atoms: C19_29  and  N6_30
REMARK   11  A    between atoms: C22_33  and  C23_34
REMARK   12  A    between atoms: N7_37  and  C26_38
REMARK   13  A    between atoms: C26_38  and  C27_39
REMARK   14  A    between atoms: C27_39  and  O2_40
ROOT
HETATM    1  N1  UNL     1     121.993  54.199  16.283  1.00  0.00    -0.178 N
HETATM    2  C3  UNL     1     123.249  54.486  16.742  1.00  0.00     0.122 A
HETATM    3  C17 UNL     1     124.373  53.820  16.214  1.00  0.00     0.084 A
HETATM    4  C18 UNL     1     124.173  52.893  15.247  1.00  0.00     0.117 A
HETATM    5  N5  UNL     1     122.948  52.654  14.842  1.00  0.00    -0.177 N
ATOM      6  H5  UNL     1     122.828  51.950  14.114  1.00  0.00     0.185 HD
HETATM    7  C19 UNL     1     121.820  53.260  15.309  1.00  0.00     0.684 A
ENDROOT
BRANCH   2   8
HETATM    8  C4  UNL     1     123.533  55.379  17.838  1.00  0.00     0.269 C
HETATM    9  O1  UNL     1     123.322  55.100  19.015  1.00  0.00    -0.266 OA
HETATM   10  N2  UNL     1     124.090  56.664  17.568  1.00  0.00    -0.356 N
ATOM     11  H2  UNL     1     124.257  56.961  16.606  1.00  0.00     0.162 HD
BRANCH  10  12
HETATM   12  C5  UNL     1     124.425  57.568  18.701  1.00  0.00     0.123 C
BRANCH  12  13
HETATM   13  C6  UNL     1     124.632  58.930  18.146  1.00  0.00     0.020 C
BRANCH  13  14
HETATM   14  C7  UNL     1     124.993  59.982  19.100  1.00  0.00     0.003 C
BRANCH  14  15
HETATM   15  C8  UNL     1     124.245  61.229  19.267  1.00  0.00     0.020 C
BRANCH  15  16
HETATM   16  C9  UNL     1     123.119  61.262  20.212  1.00  0.00     0.127 C
BRANCH  16  17
HETATM   17  N3  UNL     1     122.071  60.315  19.893  1.00  0.00    -0.374 N
HETATM   18  C10 UNL     1     121.751  59.357  20.858  1.00  0.00     0.064 C
HETATM   19  C11 UNL     1     120.284  59.087  21.032  1.00  0.00     0.053 C
HETATM   20  C12 UNL     1     119.759  58.743  19.634  1.00  0.00    -0.039 C
HETATM   21  C13 UNL     1     120.644  57.657  19.074  1.00  0.00     0.015 C
HETATM   22  C14 UNL     1     118.321  58.334  19.675  1.00  0.00     0.015 C
HETATM   23  C15 UNL     1     119.889  60.003  18.812  1.00  0.00     0.053 C
HETATM   24  C16 UNL     1     121.272  60.558  18.786  1.00  0.00     0.064 C
ENDBRANCH  16  17
ENDBRANCH  15  16
ENDBRANCH  14  15
ENDBRANCH  13  14
ENDBRANCH  12  13
ENDBRANCH  10  12
ENDBRANCH   2   8
BRANCH   1  25
HETATM   25  C2  UNL     1     120.840  54.899  16.745  1.00  0.00     0.143 C
HETATM   26  C1  UNL     1     120.508  56.093  15.831  1.00  0.00     0.027 C
ENDBRANCH   1  25
BRANCH   7  27
HETATM   27  N6  UNL     1     120.581  52.883  14.777  1.00  0.00    -0.217 N
HETATM   28  C20 UNL     1     120.407  52.986  13.311  1.00  0.00     0.141 C
HETATM   29  C21 UNL     1     120.328  51.554  12.744  1.00  0.00     0.026 C
HETATM   30  C22 UNL     1     120.003  50.604  13.846  1.00  0.00     0.002 C
HETATM   31  C29 UNL     1     118.858  51.186  14.655  1.00  0.00     0.026 C
HETATM   32  C30 UNL     1     119.426  52.357  15.461  1.00  0.00     0.141 C
BRANCH  30  33
HETATM   33  C23 UNL     1     119.643  49.214  13.377  1.00  0.00     0.084 C
HETATM   34  C24 UNL     1     118.595  49.171  12.308  1.00  0.00     0.034 C
HETATM   35  C25 UNL     1     118.722  47.738  11.823  1.00  0.00     0.127 C
HETATM   36  N7  UNL     1     120.140  47.396  12.032  1.00  0.00    -0.350 N
HETATM   37  C28 UNL     1     120.736  48.447  12.794  1.00  0.00     0.224 C
HETATM   38  O3  UNL     1     121.982  48.599  12.885  1.00  0.00    -0.273 OA
BRANCH  36  39
HETATM   39  C26 UNL     1     120.713  46.179  11.507  1.00  0.00     0.151 C
BRANCH  39  40
HETATM   40  C27 UNL     1     121.164  46.326  10.077  1.00  0.00     0.183 C
BRANCH  40  41
HETATM   41  O2  UNL     1     122.334  47.094  10.062  1.00  0.00    -0.399 OA
ATOM     42  H2  UNL     1     122.901  46.760   9.378  1.00  0.00     0.209 HD
ENDBRANCH  40  41
ENDBRANCH  39  40
ENDBRANCH  36  39
ENDBRANCH  30  33
ENDBRANCH   7  27
BRANCH   4  43
HETATM   43  N4  UNL     1     125.195  52.279  14.752  1.00  0.00    -0.385 N
ATOM     44  H42 UNL     1     126.124  52.343  15.168  1.00  0.00     0.157 HD
ATOM     45  H41 UNL     1     125.068  51.706  13.917  1.00  0.00     0.157 HD
ENDBRANCH   4  43
TORSDOF 14
ENDMDL