MODEL 4
REMARK VINA RESULT: -8.357730259      0.384      1.956
REMARK  13 active torsions:
REMARK  status: ('A' for Active; 'I' for Inactive)
REMARK    1  A    between atoms: O1_2  and  C2_3
REMARK    2  A    between atoms: C4_5  and  O2_6
REMARK    3  A    between atoms: C7_9  and  C8_10
REMARK    4  A    between atoms: C9_13  and  N2_14
REMARK    5  A    between atoms: N2_14  and  C10_16
REMARK    6  A    between atoms: C12_18  and  O3_19
REMARK    7  A    between atoms: C15_22  and  N3_23
REMARK    8  A    between atoms: C22_33  and  C23_34
REMARK    9  A    between atoms: C23_34  and  C24_35
REMARK       I    between atoms: C24_35  and  N6_37
REMARK   10  A    between atoms: N6_37  and  C25_39
REMARK   11  A    between atoms: C25_39  and  C26_40
REMARK   12  A    between atoms: C26_40  and  C27_41
REMARK   13  A    between atoms: C27_41  and  N7_42
ROOT
HETATM    1  C8  UNL     1     122.771  57.792  17.620  1.00  0.00     0.083 A
HETATM    2  N1  UNL     1     122.986  59.144  17.824  1.00  0.00    -0.189 N
ATOM      3  H1  UNL     1     122.306  59.876  17.624  1.00  0.00     0.184 HD
HETATM    4  C9  UNL     1     124.202  59.357  18.318  1.00  0.00     0.683 A
HETATM    5  N5  UNL     1     124.798  58.178  18.445  1.00  0.00    -0.193 N
ATOM      6  H5  UNL     1     125.743  58.023  18.799  1.00  0.00     0.184 HD
HETATM    7  C22 UNL     1     123.933  57.200  18.022  1.00  0.00     0.063 A
ENDROOT
BRANCH   4   8
HETATM    8  N2  UNL     1     124.780  60.467  18.646  1.00  0.00    -0.192 N
ATOM      9  H2  UNL     1     125.387  60.895  17.947  1.00  0.00     0.184 HD
BRANCH   8  10
HETATM   10  C10 UNL     1     124.651  61.140  19.867  1.00  0.00     0.054 A
HETATM   11  C11 UNL     1     125.670  61.887  20.424  1.00  0.00     0.066 A
HETATM   12  C12 UNL     1     125.502  62.534  21.633  1.00  0.00     0.072 A
HETATM   13  C14 UNL     1     124.306  62.423  22.270  1.00  0.00     0.066 A
HETATM   14  C15 UNL     1     123.228  61.689  21.771  1.00  0.00     0.035 A
HETATM   15  C21 UNL     1     123.454  61.066  20.565  1.00  0.00     0.059 A
BRANCH  12  16
HETATM   16  O3  UNL     1     126.571  63.277  22.153  1.00  0.00    -0.356 OA
HETATM   17  C13 UNL     1     126.517  63.584  23.552  1.00  0.00     0.210 C
ENDBRANCH  12  16
BRANCH  14  18
HETATM   18  N3  UNL     1     122.013  61.599  22.461  1.00  0.00    -0.377 N
HETATM   19  C16 UNL     1     121.019  60.596  22.133  1.00  0.00     0.153 C
HETATM   20  C17 UNL     1     120.941  59.680  23.350  1.00  0.00     0.291 C
HETATM   21  N4  UNL     1     121.750  60.181  24.443  1.00  0.00     0.087 N
HETATM   22  C18 UNL     1     121.456  59.389  25.620  1.00  0.00     0.310 C
HETATM   23  C19 UNL     1     121.456  61.572  24.761  1.00  0.00     0.291 C
HETATM   24  C20 UNL     1     121.687  62.477  23.557  1.00  0.00     0.153 C
ENDBRANCH  14  18
ENDBRANCH   8  10
ENDBRANCH   4   8
BRANCH   1  25
HETATM   25  C7  UNL     1     121.507  57.262  17.139  1.00  0.00    -0.002 A
HETATM   26  C6  UNL     1     121.511  56.387  16.035  1.00  0.00     0.050 A
HETATM   27  C4  UNL     1     120.365  55.826  15.541  1.00  0.00     0.071 A
HETATM   28  C3  UNL     1     119.159  56.102  16.114  1.00  0.00     0.073 A
HETATM   29  C2  UNL     1     119.111  56.946  17.187  1.00  0.00     0.071 A
HETATM   30  C30 UNL     1     120.300  57.513  17.681  1.00  0.00     0.050 A
BRANCH  27  31
HETATM   31  O2  UNL     1     120.471  54.966  14.439  1.00  0.00    -0.356 OA
HETATM   32  C5  UNL     1     119.587  53.858  14.370  1.00  0.00     0.210 C
ENDBRANCH  27  31
BRANCH  29  33
HETATM   33  O1  UNL     1     117.893  57.229  17.770  1.00  0.00    -0.356 OA
HETATM   34  C1  UNL     1     117.802  58.083  18.888  1.00  0.00     0.210 C
ENDBRANCH  29  33
ENDBRANCH   1  25
BRANCH   7  35
HETATM   35  C23 UNL     1     124.270  55.764  18.054  1.00  0.00     0.163 C
BRANCH  35  36
HETATM   36  C24 UNL     1     125.090  55.360  16.873  1.00  0.00     0.223 C
HETATM   37  O4  UNL     1     125.921  56.199  16.449  1.00  0.00    -0.273 OA
HETATM   38  N6  UNL     1     124.948  54.098  16.251  1.00  0.00    -0.361 N
ATOM     39  H6  UNL     1     124.266  53.433  16.615  1.00  0.00     0.162 HD
BRANCH  38  40
HETATM   40  C25 UNL     1     125.749  53.738  15.116  1.00  0.00     0.124 C
BRANCH  40  41
HETATM   41  C26 UNL     1     124.986  53.184  13.957  1.00  0.00     0.050 C
BRANCH  41  42
HETATM   42  C27 UNL     1     123.495  53.156  14.205  1.00  0.00     0.273 C
BRANCH  42  43
HETATM   43  N7  UNL     1     122.903  51.878  13.941  1.00  0.00     0.080 N
HETATM   44  C28 UNL     1     123.969  50.904  13.786  1.00  0.00     0.309 C
HETATM   45  C29 UNL     1     122.103  51.850  12.742  1.00  0.00     0.309 C
ENDBRANCH  42  43
ENDBRANCH  41  42
ENDBRANCH  40  41
ENDBRANCH  38  40
ENDBRANCH  35  36
ENDBRANCH   7  35
TORSDOF 13
ENDMDL