MODEL 3
REMARK VINA RESULT: -8.456966044      2.550      8.005
REMARK  15 active torsions:
REMARK  status: ('A' for Active; 'I' for Inactive)
REMARK    1  A    between atoms: C1_2  and  C2_3
REMARK       I    between atoms: C1_2  and  N2_11
REMARK    2  A    between atoms: C2_3  and  C3_4
REMARK    3  A    between atoms: C3_4  and  N1_5
REMARK    4  A    between atoms: N2_11  and  C8_13
REMARK    5  A    between atoms: C9_18  and  C10_19
REMARK    6  A    between atoms: C10_19  and  C11_20
REMARK    7  A    between atoms: C11_20  and  C12_21
REMARK    8  A    between atoms: C12_21  and  C13_22
REMARK    9  A    between atoms: C13_22  and  C14_23
REMARK   10  A    between atoms: C15_28  and  C16_29
REMARK   11  A    between atoms: C16_29  and  C17_30
REMARK   12  A    between atoms: C17_30  and  C18_31
REMARK   13  A    between atoms: C19_32  and  C20_33
REMARK   14  A    between atoms: C20_33  and  O3_34
REMARK   15  A    between atoms: N7_36  and  C21_37
ROOT
HETATM    1  C14 UNL     1     121.493  56.559  16.967  1.00  0.00     0.104 A
HETATM    2  N5  UNL     1     122.260  55.899  16.085  1.00  0.00    -0.287 N
ATOM      3  H5  UNL     1     122.006  55.033  15.608  1.00  0.00     0.188 HD
HETATM    4  N6  UNL     1     123.387  56.550  15.939  1.00  0.00    -0.287 N
ATOM      5  H6  UNL     1     124.163  56.285  15.331  1.00  0.00     0.188 HD
HETATM    6  C15 UNL     1     123.335  57.655  16.753  1.00  0.00     0.105 A
HETATM    7  N7  UNL     1     122.168  57.671  17.393  1.00  0.00    -0.288 N
ENDROOT
BRANCH   1   8
HETATM    8  C13 UNL     1     120.138  56.251  17.460  1.00  0.00     0.078 C
BRANCH   8   9
HETATM    9  C12 UNL     1     119.014  56.699  16.567  1.00  0.00     0.008 C
BRANCH   9  10
HETATM   10  C11 UNL     1     118.893  55.972  15.276  1.00  0.00     0.007 C
BRANCH  10  11
HETATM   11  C10 UNL     1     117.953  54.823  15.249  1.00  0.00     0.066 C
BRANCH  11  12
HETATM   12  C9  UNL     1     118.593  53.480  15.121  1.00  0.00     0.069 A
HETATM   13  N4  UNL     1     119.137  52.673  16.012  1.00  0.00    -0.296 N
HETATM   14  N3  UNL     1     119.632  51.561  15.683  1.00  0.00    -0.279 N
ATOM     15  H4  UNL     1     119.159  52.958  16.991  1.00  0.00     0.187 HD
HETATM   16  C8  UNL     1     119.598  51.193  14.389  1.00  0.00     0.167 A
ATOM     17  H3  UNL     1     120.049  50.951  16.386  1.00  0.00     0.189 HD
HETATM   18  S1  UNL     1     118.818  52.540  13.683  1.00  0.00    -0.038 SA
BRANCH  16  19
HETATM   19  N2  UNL     1     120.060  50.091  13.904  1.00  0.00    -0.306 N
HETATM   20  C1  UNL     1     121.271  50.055  13.201  1.00  0.00     0.225 C
HETATM   21  O1  UNL     1     121.498  48.964  12.569  1.00  0.00    -0.273 OA
ATOM     22  H2  UNL     1     119.532  49.228  14.034  1.00  0.00     0.171 HD
BRANCH  20  23
HETATM   23  C2  UNL     1     122.271  51.139  13.134  1.00  0.00     0.133 C
BRANCH  23  24
HETATM   24  C3  UNL     1     123.492  50.711  13.937  1.00  0.00     0.282 C
BRANCH  24  25
HETATM   25  N1  UNL     1     124.688  51.412  13.561  1.00  0.00     0.093 N
HETATM   26  C4  UNL     1     125.333  51.865  14.767  1.00  0.00     0.298 C
HETATM   27  C5  UNL     1     124.500  52.899  15.460  1.00  0.00     0.198 C
HETATM   28  O2  UNL     1     124.146  53.958  14.610  1.00  0.00    -0.388 OA
HETATM   29  C6  UNL     1     124.831  53.850  13.399  1.00  0.00     0.198 C
HETATM   30  C7  UNL     1     124.441  52.548  12.712  1.00  0.00     0.298 C
ENDBRANCH  24  25
ENDBRANCH  23  24
ENDBRANCH  20  23
ENDBRANCH  16  19
ENDBRANCH  11  12
ENDBRANCH  10  11
ENDBRANCH   9  10
ENDBRANCH   8   9
ENDBRANCH   1   8
BRANCH   7  31
HETATM   31  C21 UNL     1     121.690  58.635  18.288  1.00  0.00     0.044 A
HETATM   32  C22 UNL     1     120.843  59.679  17.966  1.00  0.00     0.031 A
HETATM   33  C23 UNL     1     120.404  60.622  18.864  1.00  0.00     0.016 A
HETATM   34  C24 UNL     1     120.830  60.528  20.180  1.00  0.00    -0.008 A
HETATM   35  C25 UNL     1     120.583  61.292  21.307  1.00  0.00     0.030 A
HETATM   36  C27 UNL     1     121.676  59.498  20.538  1.00  0.00     0.044 A
HETATM   37  C26 UNL     1     121.285  60.713  22.335  1.00  0.00     0.089 A
HETATM   38  N8  UNL     1     121.941  59.636  21.873  1.00  0.00    -0.365 N
ATOM     39  H8  UNL     1     122.539  59.022  22.426  1.00  0.00     0.165 HD
HETATM   40  C28 UNL     1     122.101  58.570  19.621  1.00  0.00     0.060 A
ENDBRANCH   7  31
BRANCH   6  41
HETATM   41  C16 UNL     1     124.443  58.632  16.777  1.00  0.00     0.090 C
BRANCH  41  42
HETATM   42  C17 UNL     1     125.358  58.368  17.909  1.00  0.00     0.101 C
BRANCH  42  43
HETATM   43  C18 UNL     1     125.692  59.475  18.769  1.00  0.00    -0.104 C
HETATM   44  C19 UNL     1     125.951  60.377  19.506  1.00  0.00    -0.081 C
BRANCH  44  45
HETATM   45  C20 UNL     1     126.250  61.487  20.402  1.00  0.00     0.257 C
BRANCH  45  46
HETATM   46  O3  UNL     1     127.205  62.307  19.791  1.00  0.00    -0.389 OA
ATOM     47  H3  UNL     1     127.068  62.283  18.852  1.00  0.00     0.210 HD
ENDBRANCH  45  46
ENDBRANCH  44  45
ENDBRANCH  42  43
ENDBRANCH  41  42
ENDBRANCH   6  41
TORSDOF 15
ENDMDL