MODEL 5
REMARK VINA RESULT: -8.794431373      4.011     10.116
REMARK  15 active torsions:
REMARK  status: ('A' for Active; 'I' for Inactive)
REMARK    1  A    between atoms: O1_2  and  C2_3
REMARK    2  A    between atoms: C4_5  and  C5_6
REMARK    3  A    between atoms: C5_6  and  C6_7
REMARK    4  A    between atoms: C6_7  and  N1_8
REMARK    5  A    between atoms: N1_8  and  C7_10
REMARK    6  A    between atoms: C8_13  and  N3_14
REMARK    7  A    between atoms: N3_14  and  C9_15
REMARK    8  A    between atoms: C12_18  and  C13_19
REMARK    9  A    between atoms: N5_27  and  C19_29
REMARK   10  A    between atoms: C23_33  and  O2_34
REMARK   11  A    between atoms: O2_34  and  C24_35
REMARK   12  A    between atoms: C24_35  and  C25_36
REMARK   13  A    between atoms: C25_36  and  N6_37
REMARK   14  A    between atoms: C30_44  and  O3_45
REMARK   15  A    between atoms: C32_47  and  O4_48
ROOT
HETATM    1  C7  UNL     1     119.329  55.735  16.308  1.00  0.00     0.696 A
HETATM    2  N2  UNL     1     118.865  54.659  15.682  1.00  0.00    -0.148 N
ATOM      3  H2  UNL     1     117.858  54.560  15.558  1.00  0.00     0.188 HD
HETATM    4  C8  UNL     1     119.697  53.666  15.192  1.00  0.00     0.288 A
HETATM    5  N4  UNL     1     121.027  53.891  15.404  1.00  0.00    -0.148 N
ATOM      6  H4  UNL     1     121.680  53.187  15.059  1.00  0.00     0.188 HD
HETATM    7  C18 UNL     1     121.543  54.950  16.024  1.00  0.00     0.700 A
HETATM    8  N5  UNL     1     122.715  55.164  16.215  1.00  0.00    -0.191 N
ATOM      9  H5  UNL     1     122.666  56.055  16.710  1.00  0.00     0.184 HD
HETATM   10  N7  UNL     1     120.620  55.887  16.480  1.00  0.00    -0.022 N
ATOM     11  H7  UNL     1     120.960  56.719  16.964  1.00  0.00     0.203 HD
ENDROOT
BRANCH   1  12
HETATM   12  N1  UNL     1     118.484  56.651  16.753  1.00  0.00    -0.225 N
ATOM     13  H1  UNL     1     117.732  57.011  16.164  1.00  0.00     0.177 HD
BRANCH  12  14
HETATM   14  C6  UNL     1     118.673  57.130  18.130  1.00  0.00     0.142 C
BRANCH  14  15
HETATM   15  C5  UNL     1     118.504  58.634  18.165  1.00  0.00     0.059 C
BRANCH  15  16
HETATM   16  C4  UNL     1     119.700  59.304  18.737  1.00  0.00    -0.051 A
HETATM   17  C3  UNL     1     119.691  60.379  19.575  1.00  0.00     0.047 A
HETATM   18  C2  UNL     1     120.851  60.944  20.117  1.00  0.00     0.104 A
HETATM   19  C32 UNL     1     122.055  60.353  19.767  1.00  0.00     0.135 A
HETATM   20  C30 UNL     1     122.120  59.262  18.927  1.00  0.00     0.104 A
HETATM   21  C29 UNL     1     120.950  58.748  18.420  1.00  0.00     0.047 A
BRANCH  18  22
HETATM   22  O1  UNL     1     120.824  62.043  20.960  1.00  0.00    -0.353 OA
HETATM   23  C1  UNL     1     120.461  61.815  22.319  1.00  0.00     0.210 C
ENDBRANCH  18  22
BRANCH  19  24
HETATM   24  O4  UNL     1     123.238  60.870  20.271  1.00  0.00    -0.351 OA
HETATM   25  C33 UNL     1     123.772  61.966  19.505  1.00  0.00     0.210 C
ENDBRANCH  19  24
BRANCH  20  26
HETATM   26  O3  UNL     1     123.365  58.734  18.633  1.00  0.00    -0.353 OA
HETATM   27  C31 UNL     1     123.659  57.435  19.175  1.00  0.00     0.210 C
ENDBRANCH  20  26
ENDBRANCH  15  16
ENDBRANCH  14  15
ENDBRANCH  12  14
ENDBRANCH   1  12
BRANCH   4  28
HETATM   28  N3  UNL     1     119.332  52.684  14.672  1.00  0.00    -0.370 NA
BRANCH  28  29
HETATM   29  C9  UNL     1     118.920  51.579  14.077  1.00  0.00     0.111 A
HETATM   30  C10 UNL     1     117.795  51.542  13.221  1.00  0.00     0.045 A
HETATM   31  C11 UNL     1     117.382  50.412  12.581  1.00  0.00     0.011 A
HETATM   32  C12 UNL     1     118.066  49.225  12.748  1.00  0.00    -0.054 A
HETATM   33  C16 UNL     1     119.166  49.215  13.572  1.00  0.00     0.011 A
HETATM   34  C17 UNL     1     119.586  50.353  14.220  1.00  0.00     0.045 A
BRANCH  32  35
HETATM   35  C13 UNL     1     117.621  48.010  12.034  1.00  0.00     0.010 C
HETATM   36  C14 UNL     1     117.989  46.722  12.728  1.00  0.00     0.015 C
HETATM   37  C15 UNL     1     118.032  47.982  10.577  1.00  0.00     0.015 C
ENDBRANCH  32  35
ENDBRANCH  28  29
ENDBRANCH   4  28
BRANCH   8  38
HETATM   38  C19 UNL     1     124.012  54.975  16.188  1.00  0.00     0.051 A
HETATM   39  C20 UNL     1     124.618  53.706  16.018  1.00  0.00     0.030 A
HETATM   40  C21 UNL     1     125.970  53.573  16.065  1.00  0.00     0.005 A
HETATM   41  C22 UNL     1     126.799  54.676  16.282  1.00  0.00     0.037 A
HETATM   42  C23 UNL     1     126.241  55.920  16.449  1.00  0.00     0.070 A
HETATM   43  C28 UNL     1     124.874  56.067  16.403  1.00  0.00     0.066 A
BRANCH  42  44
HETATM   44  O2  UNL     1     126.997  57.038  16.673  1.00  0.00    -0.349 OA
BRANCH  44  45
HETATM   45  C24 UNL     1     126.678  58.262  17.208  1.00  0.00     0.206 C
BRANCH  45  46
HETATM   46  C25 UNL     1     127.568  58.773  18.296  1.00  0.00     0.297 C
BRANCH  46  47
HETATM   47  N6  UNL     1     126.771  59.706  19.112  1.00  0.00     0.082 N
HETATM   48  C26 UNL     1     126.453  59.147  20.393  1.00  0.00     0.309 C
HETATM   49  C27 UNL     1     127.438  60.977  19.196  1.00  0.00     0.309 C
ENDBRANCH  46  47
ENDBRANCH  45  46
ENDBRANCH  44  45
ENDBRANCH  42  44
ENDBRANCH   8  38
TORSDOF 15
ENDMDL