MODEL 1
REMARK VINA RESULT: -9.654431234      0.000      0.000
REMARK  12 active torsions:
REMARK  status: ('A' for Active; 'I' for Inactive)
REMARK    1  A    between atoms: C2_2  and  C3_3
REMARK    2  A    between atoms: C3_3  and  N1_4
REMARK    3  A    between atoms: C7_10  and  C8_11
REMARK    4  A    between atoms: C11_14  and  O1_15
REMARK    5  A    between atoms: O1_15  and  C12_16
REMARK    6  A    between atoms: C12_16  and  C13_17
REMARK       I    between atoms: C13_17  and  N3_19
REMARK    7  A    between atoms: N3_19  and  C14_21
REMARK    8  A    between atoms: C17_24  and  O3_25
REMARK    9  A    between atoms: O3_25  and  C18_26
REMARK   10  A    between atoms: C18_26  and  C19_27
REMARK   11  A    between atoms: C23_33  and  C24_34
REMARK   12  A    between atoms: C24_34  and  N5_35
REMARK       I    between atoms: N5_35  and  C25_37
ROOT
HETATM    1  C13 UNL     1     121.988  59.040  18.476  1.00  0.00     0.246 C
HETATM    2  O2  UNL     1     121.383  59.107  19.544  1.00  0.00    -0.271 OA
HETATM    3  N3  UNL     1     123.246  59.561  18.242  1.00  0.00    -0.325 N
ATOM      4  H3  UNL     1     123.637  59.430  17.309  1.00  0.00     0.169 HD
ENDROOT
BRANCH   1   5
HETATM    5  C12 UNL     1     121.297  58.326  17.323  1.00  0.00     0.278 C
BRANCH   5   6
HETATM    6  O1  UNL     1     120.640  57.187  17.781  1.00  0.00    -0.342 OA
BRANCH   6   7
HETATM    7  C11 UNL     1     120.182  56.131  17.049  1.00  0.00     0.069 A
HETATM    8  C10 UNL     1     120.939  54.956  17.070  1.00  0.00     0.037 A
HETATM    9  C9  UNL     1     120.588  53.830  16.380  1.00  0.00     0.015 A
HETATM   10  C8  UNL     1     119.435  53.855  15.628  1.00  0.00    -0.026 A
HETATM   11  C29 UNL     1     118.666  54.996  15.586  1.00  0.00     0.015 A
HETATM   12  C28 UNL     1     119.037  56.143  16.298  1.00  0.00     0.037 A
BRANCH  10  13
HETATM   13  C7  UNL     1     119.027  52.683  14.874  1.00  0.00    -0.024 A
HETATM   14  C6  UNL     1     119.728  51.495  14.877  1.00  0.00     0.042 A
HETATM   15  C5  UNL     1     119.323  50.393  14.157  1.00  0.00     0.049 A
HETATM   16  N2  UNL     1     120.016  49.238  14.169  1.00  0.00    -0.351 N
HETATM   17  C32 UNL     1     118.178  50.442  13.390  1.00  0.00     0.059 A
HETATM   18  C4  UNL     1     119.583  48.169  13.442  1.00  0.00     0.186 A
ATOM     19  H2  UNL     1     120.868  49.162  14.725  1.00  0.00     0.166 HD
HETATM   20  N1  UNL     1     118.469  48.208  12.694  1.00  0.00    -0.306 N
HETATM   21  C33 UNL     1     117.739  49.340  12.646  1.00  0.00     0.261 A
HETATM   22  O5  UNL     1     116.691  49.396  11.950  1.00  0.00    -0.267 OA
HETATM   23  C31 UNL     1     117.458  51.617  13.367  1.00  0.00     0.020 A
HETATM   24  C30 UNL     1     117.872  52.712  14.091  1.00  0.00     0.013 A
BRANCH  20  25
HETATM   25  C3  UNL     1     118.083  47.019  11.953  1.00  0.00     0.159 C
BRANCH  25  26
HETATM   26  C2  UNL     1     118.818  46.921  10.663  1.00  0.00    -0.017 C
HETATM   27  C1  UNL     1     118.193  47.211   9.529  1.00  0.00     0.008 C
ENDBRANCH  25  26
ENDBRANCH  20  25
ENDBRANCH  10  13
ENDBRANCH   6   7
ENDBRANCH   5   6
ENDBRANCH   1   5
BRANCH   3  28
HETATM   28  C14 UNL     1     124.033  60.256  19.179  1.00  0.00     0.035 A
HETATM   29  C15 UNL     1     123.725  61.476  19.729  1.00  0.00     0.032 A
HETATM   30  C16 UNL     1     124.540  62.109  20.676  1.00  0.00     0.039 A
HETATM   31  C17 UNL     1     125.710  61.512  21.099  1.00  0.00     0.069 A
HETATM   32  C26 UNL     1     126.029  60.299  20.561  1.00  0.00     0.039 A
HETATM   33  C27 UNL     1     125.231  59.693  19.643  1.00  0.00     0.032 A
BRANCH  31  34
HETATM   34  O3  UNL     1     126.455  62.162  22.016  1.00  0.00    -0.347 OA
BRANCH  34  35
HETATM   35  C18 UNL     1     126.089  63.121  22.925  1.00  0.00     0.216 C
BRANCH  35  36
HETATM   36  C19 UNL     1     126.170  62.760  24.357  1.00  0.00    -0.010 A
HETATM   37  C20 UNL     1     127.332  62.645  25.083  1.00  0.00     0.012 A
HETATM   38  C21 UNL     1     127.256  62.347  26.417  1.00  0.00     0.018 A
HETATM   39  C22 UNL     1     126.027  62.162  27.039  1.00  0.00     0.088 A
HETATM   40  N4  UNL     1     124.913  62.285  26.289  1.00  0.00    -0.367 N
HETATM   41  C23 UNL     1     124.940  62.572  24.994  1.00  0.00     0.035 A
ATOM     42  H4  UNL     1     124.007  62.150  26.738  1.00  0.00     0.165 HD
BRANCH  41  43
HETATM   43  C24 UNL     1     123.702  62.696  24.222  1.00  0.00     0.181 C
BRANCH  43  44
HETATM   44  N5  UNL     1     123.083  61.402  24.017  1.00  0.00    -0.340 N
HETATM   45  C25 UNL     1     121.973  61.266  23.164  1.00  0.00     0.329 C
HETATM   46  N6  UNL     1     121.331  60.023  22.930  1.00  0.00    -0.040 NA
HETATM   47  O4  UNL     1     121.495  62.277  22.556  1.00  0.00    -0.251 OA
ATOM     48  H5  UNL     1     123.456  60.582  24.496  1.00  0.00     0.164 HD
ENDBRANCH  43  44
ENDBRANCH  41  43
ENDBRANCH  35  36
ENDBRANCH  34  35
ENDBRANCH  31  34
ENDBRANCH   3  28
TORSDOF 12
ENDMDL