MODEL 1
REMARK VINA RESULT: -8.490120815      0.000      0.000
REMARK  16 active torsions:
REMARK  status: ('A' for Active; 'I' for Inactive)
REMARK    1  A    between atoms: O1_2  and  C2_3
REMARK    2  A    between atoms: C6_7  and  C7_8
REMARK    3  A    between atoms: C7_8  and  N1_9
REMARK    4  A    between atoms: N1_9  and  C8_11
REMARK    5  A    between atoms: C8_11  and  O2_12
REMARK    6  A    between atoms: C8_11  and  C9_14
REMARK    7  A    between atoms: C9_14  and  C10_15
REMARK    8  A    between atoms: C10_15  and  C11_16
REMARK    9  A    between atoms: C14_19  and  N2_20
REMARK       I    between atoms: N2_20  and  C15_22
REMARK   10  A    between atoms: C15_22  and  C16_24
REMARK   11  A    between atoms: C16_24  and  N3_25
REMARK       I    between atoms: N3_25  and  C17_27
REMARK   12  A    between atoms: C17_27  and  C18_29
REMARK   13  A    between atoms: C20_32  and  C21_33
REMARK   14  A    between atoms: C23_35  and  O5_36
REMARK   15  A    between atoms: C25_38  and  O6_39
REMARK   16  A    between atoms: C27_41  and  O7_42
ROOT
HETATM    1  C18 UNL     1     118.999  51.993  13.657  1.00  0.00     0.113 C
HETATM    2  C19 UNL     1     118.338  53.254  14.012  1.00  0.00     0.105 C
HETATM    3  N4  UNL     1     117.805  54.240  14.283  1.00  0.00    -0.191 NA
HETATM    4  C20 UNL     1     118.268  50.935  13.656  1.00  0.00     0.040 C
ENDROOT
BRANCH   1   5
HETATM    5  C17 UNL     1     120.398  52.095  13.350  1.00  0.00     0.262 C
HETATM    6  N3  UNL     1     121.351  52.277  14.414  1.00  0.00    -0.348 N
ATOM      7  H3  UNL     1     121.002  52.329  15.372  1.00  0.00     0.163 HD
HETATM    8  O4  UNL     1     120.915  52.040  12.209  1.00  0.00    -0.267 OA
BRANCH   6   9
HETATM    9  C16 UNL     1     122.771  52.388  14.198  1.00  0.00     0.226 C
BRANCH   9  10
HETATM   10  C15 UNL     1     123.347  53.428  15.117  1.00  0.00     0.239 C
HETATM   11  N2  UNL     1     122.522  54.463  15.543  1.00  0.00    -0.326 N
ATOM     12  H2  UNL     1     121.560  54.447  15.206  1.00  0.00     0.169 HD
HETATM   13  O3  UNL     1     124.546  53.340  15.476  1.00  0.00    -0.271 OA
BRANCH  11  14
HETATM   14  C14 UNL     1     122.876  55.531  16.392  1.00  0.00     0.034 A
HETATM   15  C13 UNL     1     122.765  55.346  17.783  1.00  0.00     0.030 A
HETATM   16  C12 UNL     1     123.050  56.289  18.711  1.00  0.00     0.013 A
HETATM   17  C11 UNL     1     123.497  57.568  18.278  1.00  0.00    -0.036 A
HETATM   18  C31 UNL     1     123.612  57.758  16.931  1.00  0.00     0.013 A
HETATM   19  C30 UNL     1     123.307  56.767  15.996  1.00  0.00     0.030 A
BRANCH  17  20
HETATM   20  C10 UNL     1     123.907  58.495  19.266  1.00  0.00     0.015 C
BRANCH  20  21
HETATM   21  C9  UNL     1     124.205  59.720  19.327  1.00  0.00     0.056 C
BRANCH  21  22
HETATM   22  C8  UNL     1     123.562  60.958  19.527  1.00  0.00     0.135 C
BRANCH  22  23
HETATM   23  N1  UNL     1     122.385  61.410  20.128  1.00  0.00    -0.367 N
ATOM     24  H1  UNL     1     122.393  61.723  21.098  1.00  0.00     0.161 HD
BRANCH  23  25
HETATM   25  C7  UNL     1     121.124  61.433  19.353  1.00  0.00     0.160 C
BRANCH  25  26
HETATM   26  C6  UNL     1     120.570  60.071  19.182  1.00  0.00    -0.038 A
HETATM   27  C5  UNL     1     120.191  59.357  20.294  1.00  0.00     0.009 A
HETATM   28  C4  UNL     1     119.674  58.086  20.107  1.00  0.00     0.003 A
HETATM   29  C3  UNL     1     119.531  57.522  18.848  1.00  0.00     0.037 A
HETATM   30  C2  UNL     1     119.913  58.244  17.741  1.00  0.00     0.068 A
HETATM   31  C32 UNL     1     120.428  59.505  17.914  1.00  0.00     0.045 A
BRANCH  30  32
HETATM   32  O1  UNL     1     119.781  57.705  16.481  1.00  0.00    -0.356 OA
HETATM   33  C1  UNL     1     119.270  56.403  16.322  1.00  0.00     0.210 C
ENDBRANCH  30  32
ENDBRANCH  25  26
ENDBRANCH  23  25
ENDBRANCH  22  23
BRANCH  22  34
HETATM   34  O2  UNL     1     124.267  61.978  18.993  1.00  0.00    -0.346 OA
ATOM     35  H2  UNL     1     125.191  61.767  18.932  1.00  0.00     0.219 HD
ENDBRANCH  22  34
ENDBRANCH  21  22
ENDBRANCH  20  21
ENDBRANCH  17  20
ENDBRANCH  11  14
ENDBRANCH   9  10
ENDBRANCH   6   9
ENDBRANCH   1   5
BRANCH   4  36
HETATM   36  C21 UNL     1     118.643  49.570  13.343  1.00  0.00    -0.029 A
HETATM   37  C22 UNL     1     118.011  48.919  12.269  1.00  0.00     0.051 A
HETATM   38  C23 UNL     1     118.374  47.642  11.904  1.00  0.00     0.105 A
HETATM   39  C25 UNL     1     119.360  46.936  12.555  1.00  0.00     0.135 A
HETATM   40  C27 UNL     1     119.990  47.558  13.608  1.00  0.00     0.105 A
HETATM   41  C29 UNL     1     119.624  48.847  13.978  1.00  0.00     0.051 A
BRANCH  38  42
HETATM   42  O5  UNL     1     117.736  47.018  10.837  1.00  0.00    -0.353 OA
HETATM   43  C24 UNL     1     118.073  47.297   9.490  1.00  0.00     0.210 C
ENDBRANCH  38  42
BRANCH  39  44
HETATM   44  O6  UNL     1     119.666  45.662  12.129  1.00  0.00    -0.351 OA
HETATM   45  C26 UNL     1     120.737  45.342  11.269  1.00  0.00     0.210 C
ENDBRANCH  39  44
BRANCH  40  46
HETATM   46  O7  UNL     1     120.977  46.859  14.264  1.00  0.00    -0.353 OA
HETATM   47  C28 UNL     1     122.291  47.378  14.244  1.00  0.00     0.210 C
ENDBRANCH  40  46
ENDBRANCH   4  36
TORSDOF 16
ENDMDL