MODEL 1
REMARK VINA RESULT: -9.604992801      0.000      0.000
REMARK  13 active torsions:
REMARK  status: ('A' for Active; 'I' for Inactive)
REMARK    1  A    between atoms: C1_2  and  C2_4
REMARK    2  A    between atoms: C2_4  and  C3_5
REMARK    3  A    between atoms: C3_5  and  C4_6
REMARK    4  A    between atoms: C3_5  and  C21_40
REMARK    5  A    between atoms: C4_6  and  C5_7
REMARK    6  A    between atoms: C5_7  and  C6_8
REMARK       I    between atoms: C6_8  and  N1_10
REMARK    7  A    between atoms: C8_17  and  C9_18
REMARK    8  A    between atoms: C9_18  and  C10_19
REMARK    9  A    between atoms: C10_19  and  C11_20
REMARK   10  A    between atoms: C11_20  and  C12_21
REMARK   11  A    between atoms: C12_21  and  C13_22
REMARK       I    between atoms: N6_28  and  C15_30
REMARK   12  A    between atoms: C15_30  and  C16_32
REMARK   13  A    between atoms: C16_32  and  C17_33
ROOT
HETATM    1  C6  UNL     1     119.051  53.611  15.359  1.00  0.00     0.223 C
HETATM    2  O3  UNL     1     117.931  54.258  15.331  1.00  0.00    -0.273 OA
HETATM    3  N1  UNL     1     120.242  54.228  15.106  1.00  0.00    -0.306 N
ATOM      4  H1  UNL     1     120.124  55.221  14.904  1.00  0.00     0.171 HD
HETATM    5  C7  UNL     1     121.468  53.869  15.060  1.00  0.00     0.167 A
HETATM    6  N2  UNL     1     122.101  52.712  15.245  1.00  0.00    -0.279 N
ATOM      7  H2  UNL     1     121.571  51.869  15.464  1.00  0.00     0.189 HD
HETATM    8  N3  UNL     1     123.363  52.662  15.149  1.00  0.00    -0.296 N
ATOM      9  H3  UNL     1     123.845  51.775  15.290  1.00  0.00     0.187 HD
HETATM   10  C8  UNL     1     124.063  53.748  14.867  1.00  0.00     0.069 A
HETATM   11  S3  UNL     1     122.835  54.915  14.728  1.00  0.00    -0.038 SA
ENDROOT
BRANCH  10  12
HETATM   12  C9  UNL     1     125.571  53.856  14.732  1.00  0.00     0.066 C
BRANCH  12  13
HETATM   13  C10 UNL     1     126.145  53.774  16.107  1.00  0.00     0.007 C
BRANCH  13  14
HETATM   14  C11 UNL     1     125.613  54.807  17.039  1.00  0.00     0.007 C
BRANCH  14  15
HETATM   15  C12 UNL     1     126.031  56.220  16.613  1.00  0.00     0.066 C
BRANCH  15  16
HETATM   16  C13 UNL     1     125.029  57.139  17.269  1.00  0.00     0.069 A
HETATM   17  N4  UNL     1     124.717  58.397  17.048  1.00  0.00    -0.296 N
HETATM   18  N5  UNL     1     123.823  58.977  17.737  1.00  0.00    -0.279 N
ATOM     19  H4  UNL     1     125.201  58.915  16.314  1.00  0.00     0.187 HD
HETATM   20  C14 UNL     1     123.199  58.289  18.696  1.00  0.00     0.167 A
ATOM     21  H5  UNL     1     123.584  59.952  17.561  1.00  0.00     0.189 HD
HETATM   22  N6  UNL     1     122.256  58.691  19.514  1.00  0.00    -0.306 N
HETATM   23  S2  UNL     1     123.951  56.757  18.572  1.00  0.00    -0.038 SA
HETATM   24  C15 UNL     1     121.739  60.004  19.484  1.00  0.00     0.228 C
ATOM     25  H6  UNL     1     121.883  58.031  20.197  1.00  0.00     0.171 HD
HETATM   26  O4  UNL     1     122.170  60.880  20.291  1.00  0.00    -0.273 OA
BRANCH  24  27
HETATM   27  C16 UNL     1     120.680  60.305  18.475  1.00  0.00     0.149 C
BRANCH  27  28
HETATM   28  C17 UNL     1     119.797  59.096  18.270  1.00  0.00    -0.009 A
HETATM   29  C18 UNL     1     118.731  58.718  19.046  1.00  0.00     0.015 A
HETATM   30  C19 UNL     1     118.076  57.605  18.687  1.00  0.00     0.008 A
HETATM   31  C20 UNL     1     118.522  56.941  17.577  1.00  0.00     0.050 A
HETATM   32  S1  UNL     1     119.846  57.892  17.070  1.00  0.00    -0.106 SA
ENDBRANCH  27  28
ENDBRANCH  24  27
ENDBRANCH  15  16
ENDBRANCH  14  15
ENDBRANCH  13  14
ENDBRANCH  12  13
ENDBRANCH  10  12
BRANCH   1  33
HETATM   33  C5  UNL     1     118.943  52.170  15.684  1.00  0.00     0.104 C
BRANCH  33  34
HETATM   34  C4  UNL     1     118.387  51.409  14.473  1.00  0.00     0.019 C
BRANCH  34  35
HETATM   35  C3  UNL     1     119.518  50.721  13.770  1.00  0.00     0.029 C
BRANCH  35  36
HETATM   36  C2  UNL     1     119.990  51.454  12.572  1.00  0.00     0.122 C
BRANCH  36  37
HETATM   37  C1  UNL     1     121.427  51.383  12.311  1.00  0.00     0.173 C
HETATM   38  O1  UNL     1     122.025  51.989  11.407  1.00  0.00    -0.648 OA
HETATM   39  O2  UNL     1     122.228  50.564  13.141  1.00  0.00    -0.648 OA
ENDBRANCH  36  37
ENDBRANCH  35  36
BRANCH  35  40
HETATM   40  C21 UNL     1     119.070  49.340  13.426  1.00  0.00    -0.053 A
HETATM   41  C22 UNL     1     119.584  48.205  14.005  1.00  0.00     0.007 A
HETATM   42  C23 UNL     1     119.153  46.938  13.655  1.00  0.00     0.001 A
HETATM   43  C24 UNL     1     118.185  46.770  12.702  1.00  0.00     0.000 A
HETATM   44  C25 UNL     1     117.641  47.892  12.093  1.00  0.00     0.001 A
HETATM   45  C26 UNL     1     118.083  49.135  12.457  1.00  0.00     0.007 A
ENDBRANCH  35  40
ENDBRANCH  34  35
ENDBRANCH  33  34
ENDBRANCH   1  33
TORSDOF 13
ENDMDL