MODEL 3
REMARK VINA RESULT: -9.186649081      1.321      1.554
REMARK  14 active torsions:
REMARK  status: ('A' for Active; 'I' for Inactive)
REMARK    1  A    between atoms: N1_2  and  C2_5
REMARK    2  A    between atoms: C2_5  and  C3_6
REMARK    3  A    between atoms: C3_6  and  N2_7
REMARK    4  A    between atoms: N3_10  and  C6_11
REMARK    5  A    between atoms: C6_11  and  C7_12
REMARK    6  A    between atoms: C7_12  and  C8_13
REMARK    7  A    between atoms: C8_13  and  O1_14
REMARK    8  A    between atoms: O1_14  and  C9_15
REMARK    9  A    between atoms: C11_17  and  N4_18
REMARK   10  A    between atoms: N4_18  and  C12_20
REMARK   11  A    between atoms: C13_23  and  C14_24
REMARK   12  A    between atoms: C15_25  and  C16_26
REMARK   13  A    between atoms: C28_42  and  O2_43
REMARK   14  A    between atoms: C30_45  and  O3_46
ROOT
HETATM    1  C9  UNL     1     124.381  58.450  18.446  1.00  0.00     0.107 A
HETATM    2  C10 UNL     1     123.140  58.647  17.883  1.00  0.00     0.070 A
HETATM    3  C11 UNL     1     122.226  59.588  18.315  1.00  0.00     0.060 A
HETATM    4  C26 UNL     1     122.578  60.385  19.380  1.00  0.00     0.002 A
HETATM    5  C27 UNL     1     121.635  61.394  19.865  1.00  0.00     0.054 C
HETATM    6  C28 UNL     1     123.812  60.252  20.004  1.00  0.00     0.112 A
HETATM    7  C30 UNL     1     124.676  59.298  19.529  1.00  0.00     0.135 A
ENDROOT
BRANCH   3   8
HETATM    8  N4  UNL     1     120.962  59.755  17.713  1.00  0.00    -0.191 N
ATOM      9  H4  UNL     1     120.793  60.624  17.206  1.00  0.00     0.184 HD
BRANCH   8  10
HETATM   10  C12 UNL     1     119.995  58.883  17.757  1.00  0.00     0.682 A
HETATM   11  N5  UNL     1     119.902  57.923  16.822  1.00  0.00    -0.192 N
HETATM   12  C13 UNL     1     118.892  57.017  16.881  1.00  0.00     0.050 A
ATOM     13  H5  UNL     1     120.588  57.875  16.069  1.00  0.00     0.184 HD
HETATM   14  C24 UNL     1     117.979  57.095  17.896  1.00  0.00     0.047 A
HETATM   15  C25 UNL     1     118.064  58.092  18.877  1.00  0.00     0.108 A
HETATM   16  N7  UNL     1     119.087  58.953  18.758  1.00  0.00    -0.202 N
ATOM     17  H7  UNL     1     119.184  59.692  19.453  1.00  0.00     0.183 HD
BRANCH  12  18
HETATM   18  C14 UNL     1     118.813  55.993  15.847  1.00  0.00     0.031 C
HETATM   19  C15 UNL     1     119.332  54.794  15.978  1.00  0.00     0.013 C
BRANCH  19  20
HETATM   20  C16 UNL     1     119.275  53.755  14.984  1.00  0.00    -0.035 A
HETATM   21  C17 UNL     1     120.353  53.339  14.243  1.00  0.00     0.013 A
HETATM   22  C18 UNL     1     120.239  52.320  13.290  1.00  0.00     0.031 A
HETATM   23  C19 UNL     1     119.038  51.695  13.060  1.00  0.00     0.042 A
HETATM   24  N6  UNL     1     118.643  50.700  12.219  1.00  0.00    -0.365 N
HETATM   25  C22 UNL     1     117.945  52.097  13.793  1.00  0.00    -0.007 A
HETATM   26  C20 UNL     1     117.347  50.439  12.373  1.00  0.00     0.089 A
ATOM     27  H6  UNL     1     119.256  50.220  11.561  1.00  0.00     0.165 HD
HETATM   28  C21 UNL     1     116.902  51.300  13.347  1.00  0.00     0.030 A
HETATM   29  C23 UNL     1     118.066  53.095  14.723  1.00  0.00     0.025 A
ENDBRANCH  19  20
ENDBRANCH  12  18
ENDBRANCH   8  10
ENDBRANCH   3   8
BRANCH   1  30
HETATM   30  O1  UNL     1     125.313  57.561  18.087  1.00  0.00    -0.348 OA
BRANCH  30  31
HETATM   31  C8  UNL     1     125.927  57.123  16.965  1.00  0.00     0.181 C
BRANCH  31  32
HETATM   32  C7  UNL     1     125.600  55.702  16.592  1.00  0.00     0.071 C
BRANCH  32  33
HETATM   33  C6  UNL     1     124.321  55.577  15.861  1.00  0.00     0.065 C
BRANCH  33  34
HETATM   34  N3  UNL     1     124.060  54.551  14.984  1.00  0.00    -0.367 N
HETATM   35  C5  UNL     1     124.463  54.451  13.669  1.00  0.00     0.107 C
HETATM   36  C4  UNL     1     125.097  53.138  13.240  1.00  0.00     0.102 C
HETATM   37  N2  UNL     1     124.739  51.996  13.968  1.00  0.00    -0.386 N
HETATM   38  C33 UNL     1     124.759  52.234  15.368  1.00  0.00     0.142 C
HETATM   39  C32 UNL     1     123.754  53.321  15.664  1.00  0.00     0.147 C
BRANCH  37  40
HETATM   40  C3  UNL     1     123.721  51.152  13.462  1.00  0.00     0.149 C
BRANCH  40  41
HETATM   41  C2  UNL     1     123.986  49.714  13.767  1.00  0.00     0.251 C
BRANCH  41  42
HETATM   42  N1  UNL     1     122.703  49.014  13.930  1.00  0.00    -0.077 N
HETATM   43  C1  UNL     1     122.992  47.664  14.406  1.00  0.00     0.267 C
ATOM     44  H12 UNL     1     122.136  49.023  13.082  1.00  0.00     0.276 HD
ATOM     45  H11 UNL     1     122.051  49.516  14.531  1.00  0.00     0.276 HD
ENDBRANCH  41  42
ENDBRANCH  40  41
ENDBRANCH  37  40
ENDBRANCH  33  34
ENDBRANCH  32  33
ENDBRANCH  31  32
ENDBRANCH  30  31
ENDBRANCH   1  30
BRANCH   6  46
HETATM   46  O2  UNL     1     124.149  61.068  21.078  1.00  0.00    -0.352 OA
HETATM   47  C29 UNL     1     124.922  62.226  20.806  1.00  0.00     0.210 C
ENDBRANCH   6  46
BRANCH   7  48
HETATM   48  O3  UNL     1     125.905  59.158  20.145  1.00  0.00    -0.351 OA
HETATM   49  C31 UNL     1     127.124  59.618  19.604  1.00  0.00     0.210 C
ENDBRANCH   7  48
TORSDOF 14
ENDMDL