MODEL 3
REMARK VINA RESULT: -8.396447168      1.009      2.440
REMARK  16 active torsions:
REMARK  status: ('A' for Active; 'I' for Inactive)
REMARK    1  A    between atoms: O1_2  and  C2_3
REMARK    2  A    between atoms: C4_5  and  C5_6
REMARK    3  A    between atoms: C5_6  and  C6_7
REMARK    4  A    between atoms: C6_7  and  C18_30
REMARK    5  A    between atoms: N1_8  and  N2_10
REMARK    6  A    between atoms: N2_10  and  C7_12
REMARK    7  A    between atoms: C7_12  and  N3_14
REMARK    8  A    between atoms: N3_14  and  C8_16
REMARK    9  A    between atoms: C8_16  and  C9_17
REMARK   10  A    between atoms: C9_17  and  C10_18
REMARK   11  A    between atoms: C10_18  and  N4_19
REMARK   12  A    between atoms: N4_19  and  C11_21
REMARK   13  A    between atoms: C20_32  and  O2_33
REMARK   14  A    between atoms: C22_35  and  O3_36
REMARK   15  A    between atoms: C24_38  and  O4_39
REMARK   16  A    between atoms: C28_43  and  O5_44
ROOT
HETATM    1  C6  UNL     1     123.695  57.150  17.688  1.00  0.00     0.059 C
HETATM    2  N1  UNL     1     124.345  57.010  16.650  1.00  0.00    -0.298 N
ATOM      3  H1  UNL     1     124.968  57.809  16.529  1.00  0.00     0.187 HD
ENDROOT
BRANCH   1   4
HETATM    4  C5  UNL     1     122.703  56.236  18.218  1.00  0.00     0.043 C
BRANCH   4   5
HETATM    5  C4  UNL     1     121.354  56.259  17.701  1.00  0.00    -0.029 A
HETATM    6  C3  UNL     1     120.992  55.473  16.620  1.00  0.00     0.048 A
HETATM    7  C2  UNL     1     119.704  55.476  16.083  1.00  0.00     0.071 A
HETATM    8  C30 UNL     1     118.763  56.310  16.673  1.00  0.00     0.073 A
HETATM    9  C28 UNL     1     119.096  57.109  17.757  1.00  0.00     0.071 A
HETATM   10  C27 UNL     1     120.383  57.075  18.257  1.00  0.00     0.048 A
BRANCH   7  11
HETATM   11  O1  UNL     1     119.434  54.657  15.001  1.00  0.00    -0.356 OA
HETATM   12  C1  UNL     1     118.103  54.284  14.753  1.00  0.00     0.210 C
ENDBRANCH   7  11
BRANCH   9  13
HETATM   13  O5  UNL     1     118.145  57.944  18.343  1.00  0.00    -0.356 OA
HETATM   14  C29 UNL     1     118.440  58.531  19.610  1.00  0.00     0.210 C
ENDBRANCH   9  13
ENDBRANCH   4   5
ENDBRANCH   1   4
BRANCH   1  15
HETATM   15  C18 UNL     1     123.990  58.386  18.475  1.00  0.00    -0.003 A
HETATM   16  C19 UNL     1     123.077  58.928  19.326  1.00  0.00     0.053 A
HETATM   17  C20 UNL     1     123.344  60.067  20.048  1.00  0.00     0.105 A
HETATM   18  C22 UNL     1     124.578  60.698  19.917  1.00  0.00     0.135 A
HETATM   19  C24 UNL     1     125.522  60.152  19.048  1.00  0.00     0.105 A
HETATM   20  C26 UNL     1     125.208  58.996  18.338  1.00  0.00     0.053 A
BRANCH  17  21
HETATM   21  O2  UNL     1     122.388  60.584  20.901  1.00  0.00    -0.353 OA
HETATM   22  C21 UNL     1     121.515  59.690  21.555  1.00  0.00     0.210 C
ENDBRANCH  17  21
BRANCH  18  23
HETATM   23  O3  UNL     1     124.871  61.842  20.630  1.00  0.00    -0.351 OA
HETATM   24  C23 UNL     1     125.518  61.869  21.877  1.00  0.00     0.210 C
ENDBRANCH  18  23
BRANCH  19  25
HETATM   25  O4  UNL     1     126.756  60.766  18.906  1.00  0.00    -0.353 OA
HETATM   26  C25 UNL     1     127.912  59.963  18.907  1.00  0.00     0.210 C
ENDBRANCH  19  25
ENDBRANCH   1  15
BRANCH   2  27
HETATM   27  N2  UNL     1     124.508  56.154  15.624  1.00  0.00    -0.276 N
ATOM     28  H2  UNL     1     124.374  56.505  14.676  1.00  0.00     0.189 HD
BRANCH  27  29
HETATM   29  C7  UNL     1     124.864  54.758  15.798  1.00  0.00     0.186 C
HETATM   30  S1  UNL     1     126.328  54.334  16.353  1.00  0.00    -0.040 SA
BRANCH  29  31
HETATM   31  N3  UNL     1     123.924  53.770  15.461  1.00  0.00    -0.366 N
ATOM     32  H3  UNL     1     122.931  53.942  15.620  1.00  0.00     0.161 HD
BRANCH  31  33
HETATM   33  C8  UNL     1     124.349  52.525  14.897  1.00  0.00     0.123 C
BRANCH  33  34
HETATM   34  C9  UNL     1     123.605  52.047  13.702  1.00  0.00     0.039 C
BRANCH  34  35
HETATM   35  C10 UNL     1     122.136  52.458  13.929  1.00  0.00     0.123 C
BRANCH  35  36
HETATM   36  N4  UNL     1     121.428  52.187  12.714  1.00  0.00    -0.376 N
ATOM     37  H4  UNL     1     121.651  52.714  11.870  1.00  0.00     0.161 HD
BRANCH  36  38
HETATM   38  C11 UNL     1     120.516  51.286  12.678  1.00  0.00     0.101 A
HETATM   39  C12 UNL     1     119.210  51.624  12.877  1.00  0.00     0.054 A
HETATM   40  C13 UNL     1     118.174  50.698  12.852  1.00  0.00    -0.057 A
HETATM   41  C14 UNL     1     116.773  51.148  13.081  1.00  0.00     0.048 C
HETATM   42  C15 UNL     1     118.515  49.390  12.615  1.00  0.00     0.031 A
HETATM   43  C16 UNL     1     119.837  49.025  12.411  1.00  0.00     0.007 A
HETATM   44  C17 UNL     1     120.231  47.598  12.149  1.00  0.00     0.068 C
HETATM   45  N5  UNL     1     120.791  49.981  12.448  1.00  0.00    -0.347 N
ATOM     46  H5  UNL     1     121.762  49.707  12.297  1.00  0.00     0.167 HD
ENDBRANCH  36  38
ENDBRANCH  35  36
ENDBRANCH  34  35
ENDBRANCH  33  34
ENDBRANCH  31  33
ENDBRANCH  29  31
ENDBRANCH  27  29
ENDBRANCH   2  27
TORSDOF 16
ENDMDL