MODEL 2
REMARK VINA RESULT: -9.582952808      2.337      9.262
REMARK  15 active torsions:
REMARK  status: ('A' for Active; 'I' for Inactive)
REMARK       I    between atoms: C1_2  and  N1_3
REMARK    1  A    between atoms: C1_2  and  C27_37
REMARK    2  A    between atoms: N1_3  and  N2_5
REMARK    3  A    between atoms: C2_7  and  C3_8
REMARK    4  A    between atoms: C6_11  and  O2_12
REMARK    5  A    between atoms: O2_12  and  C7_13
REMARK    6  A    between atoms: C7_13  and  C8_14
REMARK    7  A    between atoms: C8_14  and  C9_15
REMARK    8  A    between atoms: C9_15  and  C10_16
REMARK    9  A    between atoms: C10_16  and  C11_17
REMARK   10  A    between atoms: C11_17  and  C12_18
REMARK   11  A    between atoms: C12_18  and  N3_19
REMARK   12  A    between atoms: N5_40  and  C30_41
REMARK   13  A    between atoms: C30_41  and  C31_42
REMARK   14  A    between atoms: C31_42  and  O4_43
REMARK   15  A    between atoms: C32_45  and  O5_46
ROOT
HETATM    1  C3  UNL     1     125.544  58.255  18.208  1.00  0.00    -0.019 A
HETATM    2  C4  UNL     1     124.529  57.420  18.572  1.00  0.00     0.015 A
HETATM    3  C5  UNL     1     123.473  57.849  19.323  1.00  0.00     0.037 A
HETATM    4  C6  UNL     1     123.359  59.151  19.767  1.00  0.00     0.068 A
HETATM    5  C25 UNL     1     124.391  60.026  19.406  1.00  0.00     0.037 A
HETATM    6  C26 UNL     1     125.440  59.586  18.655  1.00  0.00     0.015 A
ENDROOT
BRANCH   4   7
HETATM    7  O2  UNL     1     122.366  59.593  20.484  1.00  0.00    -0.351 OA
BRANCH   7   8
HETATM    8  C7  UNL     1     121.391  60.025  21.190  1.00  0.00     0.175 C
BRANCH   8   9
HETATM    9  C8  UNL     1     120.006  60.153  20.529  1.00  0.00     0.027 C
BRANCH   9  10
HETATM   10  C9  UNL     1     120.145  60.971  19.298  1.00  0.00     0.002 C
BRANCH  10  11
HETATM   11  C10 UNL     1     119.642  60.270  18.054  1.00  0.00     0.002 C
BRANCH  11  12
HETATM   12  C11 UNL     1     119.626  58.768  18.192  1.00  0.00     0.020 C
BRANCH  12  13
HETATM   13  C12 UNL     1     120.633  58.118  17.270  1.00  0.00     0.133 C
BRANCH  13  14
HETATM   14  N3  UNL     1     120.182  56.898  16.681  1.00  0.00    -0.310 N
HETATM   15  C13 UNL     1     119.291  56.859  15.682  1.00  0.00     0.186 A
HETATM   16  N4  UNL     1     118.855  55.732  15.113  1.00  0.00    -0.351 N
HETATM   17  C14 UNL     1     119.309  54.543  15.535  1.00  0.00     0.060 A
ATOM     18  H4  UNL     1     118.176  55.776  14.354  1.00  0.00     0.166 HD
HETATM   19  C15 UNL     1     120.232  54.518  16.568  1.00  0.00     0.060 A
HETATM   20  C23 UNL     1     118.836  53.418  14.923  1.00  0.00     0.002 A
HETATM   21  C16 UNL     1     120.683  53.299  16.982  1.00  0.00     0.020 A
HETATM   22  C24 UNL     1     120.659  55.724  17.131  1.00  0.00     0.261 A
HETATM   23  C17 UNL     1     120.226  52.139  16.385  1.00  0.00     0.013 A
HETATM   24  C18 UNL     1     119.298  52.194  15.350  1.00  0.00    -0.024 A
HETATM   25  C19 UNL     1     118.824  51.047  14.735  1.00  0.00     0.012 A
HETATM   26  C20 UNL     1     117.898  51.137  13.704  1.00  0.00     0.001 A
HETATM   27  C21 UNL     1     117.429  52.356  13.268  1.00  0.00     0.001 A
HETATM   28  C22 UNL     1     117.905  53.496  13.887  1.00  0.00     0.014 A
HETATM   29  O3  UNL     1     121.497  55.627  18.063  1.00  0.00    -0.267 OA
ENDBRANCH  13  14
ENDBRANCH  12  13
ENDBRANCH  11  12
ENDBRANCH  10  11
ENDBRANCH   9  10
ENDBRANCH   8   9
ENDBRANCH   7   8
ENDBRANCH   4   7
BRANCH   1  30
HETATM   30  C2  UNL     1     126.676  57.862  17.405  1.00  0.00     0.118 C
HETATM   31  N2  UNL     1     126.771  57.024  16.501  1.00  0.00    -0.308 N
ATOM     32  H2  UNL     1     127.713  56.967  16.113  1.00  0.00     0.186 HD
BRANCH  31  33
HETATM   33  N1  UNL     1     125.915  56.174  15.918  1.00  0.00    -0.266 N
HETATM   34  C1  UNL     1     126.134  54.779  15.897  1.00  0.00     0.270 C
HETATM   35  O1  UNL     1     127.178  54.329  16.445  1.00  0.00    -0.266 OA
ATOM     36  H1  UNL     1     125.076  56.548  15.475  1.00  0.00     0.190 HD
BRANCH  34  37
HETATM   37  C27 UNL     1     125.177  53.896  15.256  1.00  0.00     0.039 A
HETATM   38  C28 UNL     1     123.860  54.201  15.026  1.00  0.00     0.034 A
HETATM   39  C29 UNL     1     123.004  53.284  14.400  1.00  0.00     0.094 A
HETATM   40  N5  UNL     1     123.426  52.076  14.000  1.00  0.00    -0.336 N
HETATM   41  C32 UNL     1     124.713  51.763  14.219  1.00  0.00     0.142 A
HETATM   42  C33 UNL     1     125.592  52.627  14.828  1.00  0.00     0.073 A
BRANCH  40  43
HETATM   43  C30 UNL     1     122.488  51.176  13.365  1.00  0.00     0.156 C
BRANCH  43  44
HETATM   44  C31 UNL     1     121.519  51.990  12.502  1.00  0.00     0.184 C
BRANCH  44  45
HETATM   45  O4  UNL     1     122.056  51.999  11.204  1.00  0.00    -0.399 OA
ATOM     46  H4  UNL     1     121.325  52.141  10.613  1.00  0.00     0.209 HD
ENDBRANCH  44  45
ENDBRANCH  43  44
ENDBRANCH  40  43
BRANCH  41  47
HETATM   47  O5  UNL     1     125.154  50.521  13.808  1.00  0.00    -0.346 OA
ATOM     48  H5  UNL     1     125.904  50.487  13.226  1.00  0.00     0.219 HD
ENDBRANCH  41  47
ENDBRANCH  34  37
ENDBRANCH  31  33
ENDBRANCH   1  30
TORSDOF 15
ENDMDL