MODEL 1
REMARK VINA RESULT: -9.251074406      0.000      0.000
REMARK  13 active torsions:
REMARK  status: ('A' for Active; 'I' for Inactive)
REMARK    1  A    between atoms: O1_2  and  C2_3
REMARK    2  A    between atoms: C5_6  and  C6_7
REMARK    3  A    between atoms: C6_7  and  C7_8
REMARK    4  A    between atoms: C7_8  and  N1_9
REMARK    5  A    between atoms: C7_8  and  C21_32
REMARK       I    between atoms: N1_9  and  C8_11
REMARK    6  A    between atoms: C8_11  and  C9_13
REMARK    7  A    between atoms: C9_13  and  N2_14
REMARK    8  A    between atoms: C9_13  and  C18_25
REMARK       I    between atoms: N2_14  and  C10_16
REMARK    9  A    between atoms: C10_16  and  C11_18
REMARK   10  A    between atoms: C23_34  and  O4_35
REMARK   11  A    between atoms: C25_37  and  O5_38
REMARK   12  A    between atoms: C27_40  and  O6_41
REMARK   13  A    between atoms: C31_45  and  O7_46
ROOT
HETATM    1  C7  UNL     1     120.609  53.981  16.074  1.00  0.00     0.122 C
ENDROOT
BRANCH   1   2
HETATM    2  C6  UNL     1     119.653  52.906  16.402  1.00  0.00     0.068 C
BRANCH   2   3
HETATM    3  C5  UNL     1     119.106  52.152  15.250  1.00  0.00    -0.053 A
HETATM    4  C4  UNL     1     118.010  52.700  14.558  1.00  0.00     0.010 A
HETATM    5  C3  UNL     1     117.448  52.107  13.459  1.00  0.00     0.040 A
HETATM    6  C2  UNL     1     117.957  50.912  12.980  1.00  0.00     0.101 A
HETATM    7  C31 UNL     1     119.031  50.362  13.646  1.00  0.00     0.102 A
HETATM    8  C30 UNL     1     119.602  50.962  14.762  1.00  0.00     0.046 A
BRANCH   6   9
HETATM    9  O1  UNL     1     117.391  50.294  11.852  1.00  0.00    -0.353 OA
HETATM   10  C1  UNL     1     116.570  49.139  12.012  1.00  0.00     0.210 C
ENDBRANCH   6   9
BRANCH   7  11
HETATM   11  O7  UNL     1     119.521  49.166  13.146  1.00  0.00    -0.353 OA
HETATM   12  C32 UNL     1     119.592  48.025  13.951  1.00  0.00     0.210 C
ENDBRANCH   7  11
ENDBRANCH   2   3
ENDBRANCH   1   2
BRANCH   1  13
HETATM   13  N1  UNL     1     121.966  53.487  15.854  1.00  0.00    -0.350 N
HETATM   14  C8  UNL     1     122.488  53.276  14.574  1.00  0.00     0.248 C
HETATM   15  O2  UNL     1     121.775  53.511  13.575  1.00  0.00    -0.271 OA
ATOM     16  H1  UNL     1     122.554  53.288  16.664  1.00  0.00     0.163 HD
BRANCH  14  17
HETATM   17  C9  UNL     1     123.864  52.780  14.382  1.00  0.00     0.245 C
BRANCH  17  18
HETATM   18  N2  UNL     1     123.945  51.364  14.731  1.00  0.00    -0.337 N
HETATM   19  C10 UNL     1     124.450  50.441  13.804  1.00  0.00     0.252 C
HETATM   20  O3  UNL     1     124.833  50.884  12.666  1.00  0.00    -0.268 OA
ATOM     21  H2  UNL     1     123.633  51.046  15.649  1.00  0.00     0.164 HD
BRANCH  19  22
HETATM   22  C11 UNL     1     124.579  49.012  14.021  1.00  0.00     0.032 A
HETATM   23  C12 UNL     1     125.781  48.396  13.752  1.00  0.00     0.017 A
HETATM   24  C13 UNL     1     125.914  47.020  13.977  1.00  0.00     0.002 A
HETATM   25  C14 UNL     1     124.876  46.273  14.458  1.00  0.00     0.007 A
HETATM   26  C15 UNL     1     123.665  46.887  14.729  1.00  0.00    -0.061 A
HETATM   27  C16 UNL     1     122.522  46.104  15.256  1.00  0.00     0.048 C
HETATM   28  C17 UNL     1     123.535  48.243  14.509  1.00  0.00     0.023 A
ENDBRANCH  19  22
ENDBRANCH  17  18
BRANCH  17  29
HETATM   29  C18 UNL     1     124.805  53.599  15.141  1.00  0.00     0.113 A
HETATM   30  N3  UNL     1     125.530  53.117  16.188  1.00  0.00    -0.352 N
HETATM   31  C19 UNL     1     126.285  54.111  16.652  1.00  0.00     0.106 A
ATOM     32  H3  UNL     1     125.499  52.165  16.552  1.00  0.00     0.166 HD
HETATM   33  C20 UNL     1     126.023  55.211  15.886  1.00  0.00     0.106 A
HETATM   34  N4  UNL     1     125.102  54.888  14.947  1.00  0.00    -0.352 N
ATOM     35  H4  UNL     1     124.712  55.505  14.235  1.00  0.00     0.166 HD
ENDBRANCH  17  29
ENDBRANCH  14  17
ENDBRANCH   1  13
BRANCH   1  36
HETATM   36  C21 UNL     1     120.722  55.136  16.952  1.00  0.00    -0.030 A
HETATM   37  C22 UNL     1     119.770  56.118  17.128  1.00  0.00     0.049 A
HETATM   38  C23 UNL     1     119.973  57.183  17.972  1.00  0.00     0.104 A
HETATM   39  C25 UNL     1     121.110  57.344  18.690  1.00  0.00     0.135 A
HETATM   40  C27 UNL     1     122.101  56.367  18.542  1.00  0.00     0.104 A
HETATM   41  C29 UNL     1     121.901  55.306  17.700  1.00  0.00     0.049 A
BRANCH  38  42
HETATM   42  O4  UNL     1     118.979  58.148  18.108  1.00  0.00    -0.353 OA
HETATM   43  C24 UNL     1     117.956  58.025  19.088  1.00  0.00     0.210 C
ENDBRANCH  38  42
BRANCH  39  44
HETATM   44  O5  UNL     1     121.325  58.392  19.530  1.00  0.00    -0.351 OA
HETATM   45  C26 UNL     1     121.825  59.645  19.165  1.00  0.00     0.210 C
ENDBRANCH  39  44
BRANCH  40  46
HETATM   46  O6  UNL     1     123.274  56.528  19.285  1.00  0.00    -0.353 OA
HETATM   47  C28 UNL     1     124.425  56.968  18.582  1.00  0.00     0.210 C
ENDBRANCH  40  46
ENDBRANCH   1  36
TORSDOF 13
ENDMDL