MODEL 5
REMARK VINA RESULT: -8.770569615      2.045      5.614
REMARK  16 active torsions:
REMARK  status: ('A' for Active; 'I' for Inactive)
REMARK    1  A    between atoms: O1_1  and  N1_3
REMARK    2  A    between atoms: C5_8  and  C6_9
REMARK    3  A    between atoms: C6_9  and  O2_10
REMARK    4  A    between atoms: O2_10  and  C7_11
REMARK    5  A    between atoms: C9_13  and  O3_14
REMARK    6  A    between atoms: C10_16  and  O4_17
REMARK    7  A    between atoms: C11_19  and  O5_20
REMARK    8  A    between atoms: O5_20  and  C12_21
REMARK    9  A    between atoms: C12_21  and  C13_22
REMARK   10  A    between atoms: C16_25  and  O6_26
REMARK   11  A    between atoms: C19_30  and  O7_31
REMARK   12  A    between atoms: O7_31  and  C20_32
REMARK   13  A    between atoms: C20_32  and  C21_33
REMARK   14  A    between atoms: C27_39  and  O8_40
REMARK   15  A    between atoms: O8_40  and  C28_41
REMARK   16  A    between atoms: C28_41  and  C29_42
ROOT
HETATM    1  C7  UNL     1     122.270  55.055  15.513  1.00  0.00     0.156 C
HETATM    2  C8  UNL     1     123.458  54.359  14.880  1.00  0.00     0.069 C
HETATM    3  C9  UNL     1     124.758  54.638  15.551  1.00  0.00     0.152 C
HETATM    4  C10 UNL     1     124.668  54.723  17.050  1.00  0.00     0.178 C
HETATM    5  C11 UNL     1     124.559  56.179  17.413  1.00  0.00     0.184 C
HETATM    6  C19 UNL     1     123.062  56.516  17.311  1.00  0.00     0.184 C
HETATM    7  C27 UNL     1     122.591  56.492  15.874  1.00  0.00     0.182 C
ENDROOT
BRANCH   1   8
HETATM    8  O2  UNL     1     121.229  54.975  14.598  1.00  0.00    -0.377 OA
BRANCH   8   9
HETATM    9  C6  UNL     1     121.321  53.756  13.938  1.00  0.00     0.228 C
BRANCH   9  10
HETATM   10  C5  UNL     1     120.004  53.082  13.829  1.00  0.00     0.063 A
HETATM   11  N1  UNL     1     119.760  52.115  12.928  1.00  0.00    -0.238 N
HETATM   12  C1  UNL     1     118.535  51.564  12.905  1.00  0.00     0.123 A
HETATM   13  C2  UNL     1     117.524  51.942  13.757  1.00  0.00     0.020 A
HETATM   14  C3  UNL     1     117.761  52.934  14.689  1.00  0.00     0.003 A
HETATM   15  C4  UNL     1     119.021  53.500  14.712  1.00  0.00     0.030 A
BRANCH  11  16
HETATM   16  O1  UNL     1     120.767  51.742  12.082  1.00  0.00    -0.283 OA
ATOM     17  H1  UNL     1     121.677  51.679  12.349  1.00  0.00     0.245 HD
ENDBRANCH  11  16
ENDBRANCH   9  10
ENDBRANCH   8   9
ENDBRANCH   1   8
BRANCH   7  18
HETATM   18  O8  UNL     1     121.510  57.339  15.686  1.00  0.00    -0.376 OA
BRANCH  18  19
HETATM   19  C28 UNL     1     120.315  56.733  16.030  1.00  0.00     0.207 C
BRANCH  19  20
HETATM   20  C29 UNL     1     119.575  57.520  17.041  1.00  0.00    -0.035 A
HETATM   21  C30 UNL     1     119.639  58.896  17.056  1.00  0.00     0.009 A
HETATM   22  C31 UNL     1     118.950  59.652  17.996  1.00  0.00     0.001 A
HETATM   23  C32 UNL     1     118.178  59.013  18.945  1.00  0.00     0.000 A
HETATM   24  C33 UNL     1     118.090  57.637  18.961  1.00  0.00     0.001 A
HETATM   25  C34 UNL     1     118.794  56.925  18.004  1.00  0.00     0.009 A
ENDBRANCH  19  20
ENDBRANCH  18  19
ENDBRANCH   7  18
BRANCH   3  26
HETATM   26  O3  UNL     1     125.642  53.592  15.203  1.00  0.00    -0.393 OA
ATOM     27  H3  UNL     1     125.628  53.515  14.257  1.00  0.00     0.210 HD
ENDBRANCH   3  26
BRANCH   6  28
HETATM   28  O7  UNL     1     122.772  57.691  17.956  1.00  0.00    -0.376 OA
BRANCH  28  29
HETATM   29  C20 UNL     1     122.336  57.448  19.237  1.00  0.00     0.207 C
BRANCH  29  30
HETATM   30  C21 UNL     1     121.829  58.665  19.913  1.00  0.00    -0.035 A
HETATM   31  C22 UNL     1     122.183  59.912  19.434  1.00  0.00     0.009 A
HETATM   32  C23 UNL     1     121.740  61.078  20.028  1.00  0.00     0.001 A
HETATM   33  C24 UNL     1     120.916  61.041  21.134  1.00  0.00     0.000 A
HETATM   34  C25 UNL     1     120.555  59.791  21.622  1.00  0.00     0.001 A
HETATM   35  C26 UNL     1     121.007  58.627  21.018  1.00  0.00     0.009 A
ENDBRANCH  29  30
ENDBRANCH  28  29
ENDBRANCH   6  28
BRANCH   4  36
HETATM   36  O4  UNL     1     125.746  54.093  17.678  1.00  0.00    -0.390 OA
ATOM     37  H4  UNL     1     126.543  54.609  17.623  1.00  0.00     0.210 HD
ENDBRANCH   4  36
BRANCH   5  38
HETATM   38  O5  UNL     1     125.274  57.010  16.576  1.00  0.00    -0.376 OA
BRANCH  38  39
HETATM   39  C12 UNL     1     126.505  57.289  17.110  1.00  0.00     0.207 C
BRANCH  39  40
HETATM   40  C13 UNL     1     126.564  58.534  17.881  1.00  0.00    -0.034 A
HETATM   41  C14 UNL     1     127.825  59.062  18.160  1.00  0.00     0.012 A
HETATM   42  C15 UNL     1     128.032  60.212  18.863  1.00  0.00     0.037 A
HETATM   43  C16 UNL     1     126.927  60.907  19.334  1.00  0.00     0.065 A
HETATM   44  C17 UNL     1     125.667  60.403  19.071  1.00  0.00     0.037 A
HETATM   45  C18 UNL     1     125.472  59.229  18.352  1.00  0.00     0.012 A
BRANCH  43  46
HETATM   46  O6  UNL     1     127.170  62.065  20.040  1.00  0.00    -0.361 OA
ATOM     47  H6  UNL     1     127.143  62.008  20.987  1.00  0.00     0.217 HD
ENDBRANCH  43  46
ENDBRANCH  39  40
ENDBRANCH  38  39
ENDBRANCH   5  38
TORSDOF 16
ENDMDL