MODEL 4
REMARK VINA RESULT: -10.361255043      1.322      1.727
REMARK  14 active torsions:
REMARK  status: ('A' for Active; 'I' for Inactive)
REMARK    1  A    between atoms: C1_2  and  C2_3
REMARK       I    between atoms: C1_2  and  N4_35
REMARK    2  A    between atoms: C2_3  and  C3_4
REMARK    3  A    between atoms: C3_4  and  C4_5
REMARK       I    between atoms: C4_5  and  N1_7
REMARK    4  A    between atoms: N1_7  and  N2_9
REMARK    5  A    between atoms: C5_11  and  C6_12
REMARK    6  A    between atoms: C5_11  and  C14_22
REMARK    7  A    between atoms: C6_12  and  C7_13
REMARK    8  A    between atoms: C7_13  and  O4_15
REMARK    9  A    between atoms: O4_15  and  C8_16
REMARK       I    between atoms: C14_22  and  N3_24
REMARK   10  A    between atoms: N3_24  and  C15_26
REMARK   11  A    between atoms: C15_26  and  C16_27
REMARK   12  A    between atoms: C16_27  and  C17_29
REMARK   13  A    between atoms: N4_35  and  N5_37
REMARK   14  A    between atoms: C23_39  and  C24_40
ROOT
HETATM    1  N2  UNL     1     125.839  56.664  16.467  1.00  0.00    -0.296 N
ATOM      2  H2  UNL     1     126.758  57.070  16.644  1.00  0.00     0.187 HD
HETATM    3  C5  UNL     1     124.868  57.250  17.032  1.00  0.00     0.102 C
ENDROOT
BRANCH   1   4
HETATM    4  N1  UNL     1     125.832  55.556  15.649  1.00  0.00    -0.270 N
HETATM    5  C4  UNL     1     126.036  54.230  16.127  1.00  0.00     0.236 C
HETATM    6  O2  UNL     1     126.233  54.120  17.375  1.00  0.00    -0.272 OA
ATOM      7  H1  UNL     1     125.673  55.692  14.651  1.00  0.00     0.190 HD
BRANCH   5   8
HETATM    8  C3  UNL     1     126.023  53.046  15.236  1.00  0.00     0.114 C
BRANCH   8   9
HETATM    9  C2  UNL     1     125.337  53.300  13.939  1.00  0.00     0.114 C
BRANCH   9  10
HETATM   10  C1  UNL     1     123.867  53.109  14.072  1.00  0.00     0.236 C
HETATM   11  O1  UNL     1     123.098  54.064  14.434  1.00  0.00    -0.272 OA
HETATM   12  N4  UNL     1     123.264  51.857  13.802  1.00  0.00    -0.270 N
ATOM     13  H4  UNL     1     123.847  51.072  13.510  1.00  0.00     0.190 HD
BRANCH  12  14
HETATM   14  N5  UNL     1     121.899  51.677  13.927  1.00  0.00    -0.308 N
HETATM   15  C23 UNL     1     121.075  51.567  12.990  1.00  0.00     0.119 C
ATOM     16  H5  UNL     1     121.526  51.630  14.875  1.00  0.00     0.186 HD
BRANCH  15  17
HETATM   17  C24 UNL     1     119.654  51.380  12.978  1.00  0.00    -0.008 A
HETATM   18  C25 UNL     1     118.824  52.460  13.371  1.00  0.00     0.014 A
HETATM   19  C26 UNL     1     117.466  52.369  13.386  1.00  0.00     0.002 A
HETATM   20  C27 UNL     1     116.841  51.212  13.015  1.00  0.00     0.012 A
HETATM   21  C28 UNL     1     117.593  50.129  12.622  1.00  0.00    -0.025 A
HETATM   22  C29 UNL     1     116.944  48.951  12.244  1.00  0.00     0.012 A
HETATM   23  C33 UNL     1     118.993  50.219  12.606  1.00  0.00    -0.014 A
HETATM   24  C30 UNL     1     117.702  47.874  11.854  1.00  0.00     0.001 A
HETATM   25  C31 UNL     1     119.076  47.951  11.834  1.00  0.00     0.001 A
HETATM   26  C32 UNL     1     119.727  49.125  12.211  1.00  0.00     0.013 A
ENDBRANCH  15  17
ENDBRANCH  12  14
ENDBRANCH   9  10
ENDBRANCH   8   9
ENDBRANCH   5   8
ENDBRANCH   1   4
BRANCH   3  27
HETATM   27  C6  UNL     1     123.488  56.774  16.867  1.00  0.00     0.175 C
BRANCH  27  28
HETATM   28  C7  UNL     1     123.149  55.707  17.872  1.00  0.00     0.269 C
HETATM   29  O3  UNL     1     123.793  55.547  18.940  1.00  0.00    -0.265 OA
BRANCH  28  30
HETATM   30  O4  UNL     1     122.088  54.837  17.657  1.00  0.00    -0.279 OA
BRANCH  30  31
HETATM   31  C8  UNL     1     120.846  55.297  17.181  1.00  0.00     0.079 A
HETATM   32  C9  UNL     1     120.169  54.683  16.166  1.00  0.00     0.037 A
HETATM   33  C10 UNL     1     118.944  55.231  15.780  1.00  0.00     0.003 A
HETATM   34  C11 UNL     1     118.415  56.341  16.380  1.00  0.00     0.000 A
HETATM   35  C12 UNL     1     119.104  56.944  17.394  1.00  0.00     0.003 A
HETATM   36  C13 UNL     1     120.313  56.418  17.786  1.00  0.00     0.037 A
ENDBRANCH  30  31
ENDBRANCH  28  30
ENDBRANCH  27  28
ENDBRANCH   3  27
BRANCH   3  37
HETATM   37  C14 UNL     1     125.167  58.399  17.881  1.00  0.00     0.266 C
HETATM   38  O5  UNL     1     126.369  58.639  18.230  1.00  0.00    -0.266 OA
HETATM   39  N3  UNL     1     124.168  59.284  18.347  1.00  0.00    -0.349 N
ATOM     40  H3  UNL     1     123.198  59.113  18.082  1.00  0.00     0.163 HD
BRANCH  39  41
HETATM   41  C15 UNL     1     124.469  60.413  19.180  1.00  0.00     0.206 C
BRANCH  41  42
HETATM   42  C16 UNL     1     123.293  61.130  19.697  1.00  0.00     0.177 C
HETATM   43  O6  UNL     1     123.379  62.323  20.019  1.00  0.00    -0.291 OA
BRANCH  42  44
HETATM   44  C17 UNL     1     121.987  60.476  19.851  1.00  0.00     0.011 A
HETATM   45  C18 UNL     1     121.794  59.541  20.852  1.00  0.00     0.015 A
HETATM   46  C19 UNL     1     120.558  58.922  21.001  1.00  0.00     0.001 A
HETATM   47  C20 UNL     1     119.534  59.257  20.137  1.00  0.00     0.000 A
HETATM   48  C21 UNL     1     119.697  60.183  19.134  1.00  0.00     0.001 A
HETATM   49  C22 UNL     1     120.937  60.771  19.021  1.00  0.00     0.015 A
ENDBRANCH  42  44
ENDBRANCH  41  42
ENDBRANCH  39  41
ENDBRANCH   3  37
TORSDOF 14
ENDMDL