MODEL 5
REMARK VINA RESULT: -7.606090015      2.412      7.777
REMARK  16 active torsions:
REMARK  status: ('A' for Active; 'I' for Inactive)
REMARK    1  A    between atoms: C2_2  and  C3_3
REMARK    2  A    between atoms: C3_3  and  O1_4
REMARK    3  A    between atoms: C3_3  and  C4_6
REMARK    4  A    between atoms: C4_6  and  N1_7
REMARK    5  A    between atoms: N2_9  and  C6_10
REMARK    6  A    between atoms: C6_10  and  O2_11
REMARK    7  A    between atoms: C6_10  and  C7_13
REMARK    8  A    between atoms: C7_13  and  N3_14
REMARK    9  A    between atoms: N3_14  and  C8_16
REMARK   10  A    between atoms: C8_16  and  C9_17
REMARK   11  A    between atoms: C9_17  and  C10_18
REMARK   12  A    between atoms: C10_18  and  O4_20
REMARK   13  A    between atoms: O4_20  and  C11_21
REMARK   14  A    between atoms: C22_32  and  N4_33
REMARK       I    between atoms: N4_33  and  C23_35
REMARK   15  A    between atoms: C23_35  and  O6_37
REMARK   16  A    between atoms: O6_37  and  C24_38
ROOT
HETATM    1  N1  UNL     1      72.270  56.809  17.942  1.00  0.00    -0.331 N
HETATM    2  C5  UNL     1      70.830  57.087  18.109  1.00  0.00     0.255 C
HETATM    3  N2  UNL     1      70.216  57.143  16.787  1.00  0.00    -0.335 N
HETATM    4  C13 UNL     1      69.720  55.880  16.190  1.00  0.00     0.038 C
HETATM    5  C14 UNL     1      68.662  55.398  17.202  1.00  0.00     0.032 C
HETATM    6  C15 UNL     1      67.331  55.155  16.560  1.00  0.00     0.011 C
HETATM    7  C16 UNL     1      67.388  54.198  15.416  1.00  0.00    -0.048 C
HETATM    8  C17 UNL     1      67.664  52.776  15.839  1.00  0.00     0.015 C
HETATM    9  C18 UNL     1      65.999  54.189  14.769  1.00  0.00     0.015 C
HETATM   10  C19 UNL     1      68.442  54.646  14.464  1.00  0.00     0.011 C
HETATM   11  C20 UNL     1      69.081  55.980  14.883  1.00  0.00     0.032 C
HETATM   12  C21 UNL     1      70.837  54.850  16.275  1.00  0.00     0.066 C
HETATM   13  C22 UNL     1      72.153  55.388  15.781  1.00  0.00     0.181 C
HETATM   14  C28 UNL     1      72.867  56.162  16.833  1.00  0.00     0.244 C
HETATM   15  O7  UNL     1      74.114  56.230  16.693  1.00  0.00    -0.271 OA
ENDROOT
BRANCH   3  16
HETATM   16  C6  UNL     1      70.130  58.352  16.143  1.00  0.00     0.155 C
BRANCH  16  17
HETATM   17  O2  UNL     1      70.991  58.613  15.164  1.00  0.00    -0.345 OA
ATOM     18  H2  UNL     1      70.722  58.453  14.268  1.00  0.00     0.219 HD
ENDBRANCH  16  17
BRANCH  16  19
HETATM   19  C7  UNL     1      69.245  59.499  16.299  1.00  0.00     0.139 C
BRANCH  19  20
HETATM   20  N3  UNL     1      69.337  60.375  17.395  1.00  0.00    -0.395 N
ATOM     21  H3  UNL     1      69.946  61.192  17.448  1.00  0.00     0.159 HD
BRANCH  20  22
HETATM   22  C8  UNL     1      68.415  59.931  18.456  1.00  0.00     0.129 C
BRANCH  22  23
HETATM   23  C9  UNL     1      68.845  60.484  19.773  1.00  0.00     0.130 C
BRANCH  23  24
HETATM   24  C10 UNL     1      69.790  61.629  19.560  1.00  0.00     0.260 C
HETATM   25  O3  UNL     1      69.338  62.752  19.219  1.00  0.00    -0.265 OA
BRANCH  24  26
HETATM   26  O4  UNL     1      71.133  61.369  19.759  1.00  0.00    -0.322 OA
BRANCH  26  27
HETATM   27  C11 UNL     1      72.105  62.359  19.514  1.00  0.00     0.174 C
HETATM   28  C12 UNL     1      73.097  62.399  20.642  1.00  0.00     0.034 C
ENDBRANCH  26  27
ENDBRANCH  24  26
ENDBRANCH  23  24
ENDBRANCH  22  23
ENDBRANCH  20  22
ENDBRANCH  19  20
ENDBRANCH  16  19
ENDBRANCH   3  16
BRANCH   1  29
HETATM   29  C4  UNL     1      73.119  57.223  18.996  1.00  0.00     0.163 C
BRANCH  29  30
HETATM   30  C3  UNL     1      73.401  58.699  19.071  1.00  0.00     0.158 C
BRANCH  30  31
HETATM   31  C2  UNL     1      74.857  58.981  18.979  1.00  0.00    -0.004 C
HETATM   32  C1  UNL     1      75.626  58.715  20.010  1.00  0.00     0.009 C
ENDBRANCH  30  31
BRANCH  30  33
HETATM   33  O1  UNL     1      73.001  59.100  20.372  1.00  0.00    -0.390 OA
ATOM     34  H1  UNL     1      72.488  59.891  20.259  1.00  0.00     0.210 HD
ENDBRANCH  30  33
ENDBRANCH  29  30
ENDBRANCH   1  29
BRANCH  13  35
HETATM   35  N4  UNL     1      72.977  54.240  15.473  1.00  0.00    -0.324 N
HETATM   36  C23 UNL     1      72.513  52.965  15.146  1.00  0.00     0.362 C
HETATM   37  O5  UNL     1      71.265  52.771  15.110  1.00  0.00    -0.238 OA
ATOM     38  H4  UNL     1      73.988  54.374  15.495  1.00  0.00     0.165 HD
BRANCH  36  39
HETATM   39  O6  UNL     1      73.334  51.899  14.859  1.00  0.00    -0.294 OA
BRANCH  39  40
HETATM   40  C24 UNL     1      73.148  51.173  13.677  1.00  0.00     0.061 C
HETATM   41  C25 UNL     1      74.216  50.097  13.505  1.00  0.00     0.046 C
HETATM   42  C26 UNL     1      73.361  52.171  12.529  1.00  0.00     0.046 C
HETATM   43  C27 UNL     1      71.790  50.562  13.526  1.00  0.00     0.046 C
ENDBRANCH  39  40
ENDBRANCH  36  39
ENDBRANCH  13  35
TORSDOF 16
ENDMDL