MODEL 2
REMARK VINA RESULT: -8.818550061      2.905      8.440
REMARK  13 active torsions:
REMARK  status: ('A' for Active; 'I' for Inactive)
REMARK    1  A    between atoms: C2_2  and  N1_3
REMARK    2  A    between atoms: N1_3  and  C3_4
REMARK       I    between atoms: N1_3  and  C5_6
REMARK    3  A    between atoms: C5_6  and  C6_8
REMARK    4  A    between atoms: N3_11  and  C7_12
REMARK    5  A    between atoms: C10_15  and  N4_16
REMARK    6  A    between atoms: N4_16  and  C11_18
REMARK    7  A    between atoms: C11_18  and  C12_19
REMARK    8  A    between atoms: C19_30  and  N7_31
REMARK    9  A    between atoms: N7_31  and  C20_33
REMARK   10  A    between atoms: C20_33  and  C21_34
REMARK   11  A    between atoms: C21_34  and  N8_35
REMARK   12  A    between atoms: N8_35  and  C22_38
REMARK   13  A    between atoms: C22_38  and  C23_39
ROOT
HETATM    1  C6  UNL     1      68.725  55.778  15.961  1.00  0.00     0.146 A
HETATM    2  N2  UNL     1      68.606  56.408  17.117  1.00  0.00    -0.291 N
ATOM      3  H2  UNL     1      67.718  56.545  17.601  1.00  0.00     0.187 HD
HETATM    4  N3  UNL     1      69.777  56.844  17.578  1.00  0.00    -0.286 N
HETATM    5  C9  UNL     1      70.706  56.481  16.680  1.00  0.00     0.124 A
HETATM    6  C10 UNL     1      72.082  56.680  16.655  1.00  0.00     0.148 A
HETATM    7  N6  UNL     1      72.775  56.209  15.620  1.00  0.00    -0.175 N
ATOM      8  H6  UNL     1      73.785  56.345  15.584  1.00  0.00     0.186 HD
HETATM    9  C19 UNL     1      72.138  55.541  14.600  1.00  0.00     0.680 A
HETATM   10  N10 UNL     1      70.825  55.350  14.621  1.00  0.00    -0.187 N
ATOM     11  H10 UNL     1      70.371  54.853  13.854  1.00  0.00     0.184 HD
HETATM   12  C29 UNL     1      70.086  55.815  15.657  1.00  0.00     0.115 A
ENDROOT
BRANCH   9  13
HETATM   13  N7  UNL     1      72.840  55.098  13.618  1.00  0.00    -0.224 N
ATOM     14  H7  UNL     1      72.962  55.717  12.817  1.00  0.00     0.177 HD
BRANCH  13  15
HETATM   15  C20 UNL     1      73.465  53.816  13.551  1.00  0.00     0.165 C
BRANCH  15  16
HETATM   16  C21 UNL     1      73.196  52.905  14.706  1.00  0.00     0.252 C
BRANCH  16  17
HETATM   17  N8  UNL     1      72.236  51.863  14.476  1.00  0.00    -0.073 N
ATOM     18  H82 UNL     1      71.925  51.435  15.348  1.00  0.00     0.277 HD
ATOM     19  H81 UNL     1      71.340  52.235  14.162  1.00  0.00     0.277 HD
BRANCH  17  20
HETATM   20  C22 UNL     1      72.770  50.869  13.543  1.00  0.00     0.237 C
BRANCH  20  21
HETATM   21  C23 UNL     1      73.335  49.653  14.245  1.00  0.00     0.014 C
HETATM   22  C24 UNL     1      72.337  48.506  14.190  1.00  0.00     0.036 C
HETATM   23  C25 UNL     1      72.669  47.499  13.111  1.00  0.00     0.272 C
HETATM   24  N9  UNL     1      73.942  46.848  13.372  1.00  0.00     0.084 N
HETATM   25  C26 UNL     1      73.833  45.886  14.454  1.00  0.00     0.309 C
HETATM   26  C27 UNL     1      74.973  47.805  13.698  1.00  0.00     0.272 C
HETATM   27  C28 UNL     1      74.574  49.234  13.503  1.00  0.00     0.036 C
ENDBRANCH  20  21
ENDBRANCH  17  20
ENDBRANCH  16  17
ENDBRANCH  15  16
ENDBRANCH  13  15
ENDBRANCH   9  13
BRANCH   6  28
HETATM   28  N4  UNL     1      72.640  57.295  17.616  1.00  0.00    -0.368 N
ATOM     29  H4  UNL     1      72.313  57.079  18.557  1.00  0.00     0.161 HD
BRANCH  28  30
HETATM   30  C11 UNL     1      73.675  58.254  17.497  1.00  0.00     0.178 C
BRANCH  30  31
HETATM   31  C12 UNL     1      73.582  59.341  18.522  1.00  0.00     0.033 A
HETATM   32  N5  UNL     1      72.502  60.126  18.501  1.00  0.00    -0.367 N
HETATM   33  C13 UNL     1      72.325  61.122  19.394  1.00  0.00     0.095 A
ATOM     34  H5  UNL     1      71.789  59.968  17.789  1.00  0.00     0.165 HD
HETATM   35  C14 UNL     1      73.288  61.349  20.368  1.00  0.00    -0.046 A
HETATM   36  C15 UNL     1      73.075  62.441  21.327  1.00  0.00     0.049 C
HETATM   37  C16 UNL     1      74.421  60.554  20.417  1.00  0.00     0.017 A
HETATM   38  C17 UNL     1      74.548  59.551  19.479  1.00  0.00    -0.037 A
HETATM   39  C18 UNL     1      75.750  58.667  19.478  1.00  0.00     0.050 C
ENDBRANCH  30  31
ENDBRANCH  28  30
ENDBRANCH   6  28
BRANCH   1  40
HETATM   40  C5  UNL     1      67.700  55.129  15.148  1.00  0.00     0.274 C
HETATM   41  N1  UNL     1      67.626  53.750  14.874  1.00  0.00    -0.347 N
HETATM   42  O1  UNL     1      66.773  55.837  14.621  1.00  0.00    -0.266 OA
BRANCH  41  43
HETATM   43  C2  UNL     1      68.572  52.762  15.355  1.00  0.00     0.121 C
HETATM   44  C1  UNL     1      68.047  52.159  16.630  1.00  0.00     0.026 C
ENDBRANCH  41  43
BRANCH  41  45
HETATM   45  C3  UNL     1      66.515  53.286  14.038  1.00  0.00     0.121 C
HETATM   46  C4  UNL     1      67.010  52.347  12.967  1.00  0.00     0.026 C
ENDBRANCH  41  45
ENDBRANCH   1  40
BRANCH   4  47
HETATM   47  C7  UNL     1      69.870  57.544  18.827  1.00  0.00     0.145 C
HETATM   48  C8  UNL     1      68.517  58.063  19.219  1.00  0.00     0.028 C
ENDBRANCH   4  47
TORSDOF 13
ENDMDL