MODEL 4
REMARK VINA RESULT: -8.377253165      1.379      1.715
REMARK  12 active torsions:
REMARK  status: ('A' for Active; 'I' for Inactive)
REMARK    1  A    between atoms: C2_2  and  C3_3
REMARK    2  A    between atoms: C4_4  and  O1_5
REMARK    3  A    between atoms: C8_11  and  C9_12
REMARK    4  A    between atoms: C9_12  and  N2_13
REMARK    5  A    between atoms: N2_13  and  C10_15
REMARK    6  A    between atoms: C13_22  and  C14_23
REMARK       I    between atoms: C14_23  and  N5_25
REMARK    7  A    between atoms: N5_25  and  C15_27
REMARK    8  A    between atoms: C15_27  and  C16_28
REMARK    9  A    between atoms: C16_28  and  C17_29
REMARK   10  A    between atoms: C17_29  and  N6_30
REMARK   11  A    between atoms: N7_33  and  C20_34
REMARK   12  A    between atoms: C25_39  and  C26_40
ROOT
HETATM    1  C10 UNL     1      72.565  55.351  15.421  1.00  0.00     0.119 A
HETATM    2  N3  UNL     1      73.646  55.183  14.634  1.00  0.00    -0.338 N
ATOM      3  H3  UNL     1      74.478  55.758  14.761  1.00  0.00     0.168 HD
HETATM    4  C11 UNL     1      73.599  54.232  13.669  1.00  0.00     0.181 A
HETATM    5  N4  UNL     1      72.483  53.497  13.531  1.00  0.00    -0.361 N
ATOM      6  H4  UNL     1      72.468  52.788  12.798  1.00  0.00     0.166 HD
HETATM    7  C12 UNL     1      71.404  53.629  14.282  1.00  0.00     0.109 A
HETATM    8  C13 UNL     1      71.410  54.602  15.297  1.00  0.00     0.091 A
ENDROOT
BRANCH   1   9
HETATM    9  N2  UNL     1      72.545  56.300  16.285  1.00  0.00    -0.370 N
ATOM     10  H2  UNL     1      72.945  56.138  17.210  1.00  0.00     0.161 HD
BRANCH   9  11
HETATM   11  C9  UNL     1      71.975  57.588  15.985  1.00  0.00     0.178 C
BRANCH  11  12
HETATM   12  C8  UNL     1      72.292  58.504  17.150  1.00  0.00     0.028 A
HETATM   13  N1  UNL     1      71.334  59.214  17.759  1.00  0.00    -0.357 N
HETATM   14  C7  UNL     1      71.630  60.036  18.810  1.00  0.00     0.047 A
ATOM     15  H1  UNL     1      70.371  59.141  17.433  1.00  0.00     0.166 HD
HETATM   16  C6  UNL     1      70.596  60.743  19.385  1.00  0.00     0.067 A
HETATM   17  C27 UNL     1      72.941  60.164  19.284  1.00  0.00     0.014 A
HETATM   18  C4  UNL     1      70.891  61.566  20.424  1.00  0.00     0.077 A
HETATM   19  C3  UNL     1      72.166  61.712  20.910  1.00  0.00    -0.018 A
HETATM   20  C28 UNL     1      73.241  61.007  20.342  1.00  0.00    -0.039 A
HETATM   21  C29 UNL     1      74.581  61.286  20.873  1.00  0.00     0.050 C
HETATM   22  C25 UNL     1      73.901  59.439  18.663  1.00  0.00     0.055 A
HETATM   23  C24 UNL     1      73.585  58.587  17.569  1.00  0.00     0.046 A
BRANCH  18  24
HETATM   24  O1  UNL     1      69.861  62.308  21.044  1.00  0.00    -0.355 OA
HETATM   25  C5  UNL     1      68.760  61.657  21.656  1.00  0.00     0.210 C
ENDBRANCH  18  24
BRANCH  19  26
HETATM   26  C2  UNL     1      72.415  62.629  22.095  1.00  0.00     0.037 C
HETATM   27  C1  UNL     1      71.971  62.034  23.384  1.00  0.00     0.010 C
ENDBRANCH  19  26
BRANCH  22  28
HETATM   28  C26 UNL     1      75.268  59.363  19.114  1.00  0.00     0.210 C
HETATM   29  O3  UNL     1      76.117  60.117  18.601  1.00  0.00    -0.644 OA
HETATM   30  O4  UNL     1      75.662  58.479  20.076  1.00  0.00    -0.644 OA
ENDBRANCH  22  28
ENDBRANCH  11  12
ENDBRANCH   9  11
ENDBRANCH   1   9
BRANCH   8  31
HETATM   31  C14 UNL     1      70.247  54.732  16.164  1.00  0.00     0.256 C
HETATM   32  O2  UNL     1      70.414  54.458  17.396  1.00  0.00    -0.267 OA
HETATM   33  N5  UNL     1      69.001  55.148  15.656  1.00  0.00    -0.356 N
ATOM     34  H5  UNL     1      68.879  55.387  14.672  1.00  0.00     0.162 HD
BRANCH  33  35
HETATM   35  C15 UNL     1      67.901  55.220  16.594  1.00  0.00     0.128 C
BRANCH  35  36
HETATM   36  C16 UNL     1      66.662  54.520  16.153  1.00  0.00     0.064 C
BRANCH  36  37
HETATM   37  C17 UNL     1      66.899  54.005  14.729  1.00  0.00     0.065 C
BRANCH  37  38
HETATM   38  N6  UNL     1      66.878  52.638  14.568  1.00  0.00    -0.370 N
HETATM   39  C18 UNL     1      67.946  51.807  14.873  1.00  0.00     0.093 C
HETATM   40  C19 UNL     1      68.594  51.249  13.610  1.00  0.00     0.317 C
HETATM   41  N7  UNL     1      67.658  50.834  12.615  1.00  0.00     0.094 N
HETATM   42  C22 UNL     1      66.541  51.724  12.415  1.00  0.00     0.293 C
HETATM   43  C23 UNL     1      65.883  52.035  13.763  1.00  0.00     0.157 C
BRANCH  41  44
HETATM   44  C20 UNL     1      67.248  49.451  12.726  1.00  0.00     0.268 C
HETATM   45  C21 UNL     1      66.137  49.110  11.742  1.00  0.00     0.037 C
ENDBRANCH  41  44
ENDBRANCH  37  38
ENDBRANCH  36  37
ENDBRANCH  35  36
ENDBRANCH  33  35
ENDBRANCH   8  31
TORSDOF 12
ENDMDL