MODEL 5
REMARK VINA RESULT: -8.335556245      2.330      4.310
REMARK  14 active torsions:
REMARK  status: ('A' for Active; 'I' for Inactive)
REMARK    1  A    between atoms: N1_2  and  C2_4
REMARK    2  A    between atoms: C3_7  and  N3_8
REMARK    3  A    between atoms: N3_8  and  C4_10
REMARK    4  A    between atoms: C8_16  and  N5_17
REMARK    5  A    between atoms: N5_17  and  C9_18
REMARK    6  A    between atoms: C9_18  and  C10_19
REMARK    7  A    between atoms: C10_19  and  C11_20
REMARK    8  A    between atoms: C11_20  and  N6_21
REMARK    9  A    between atoms: C17_29  and  O1_30
REMARK   10  A    between atoms: O1_30  and  C18_31
REMARK   11  A    between atoms: C18_31  and  C19_32
REMARK   12  A    between atoms: C22_35  and  C23_36
REMARK   13  A    between atoms: C23_36  and  N8_38
REMARK   14  A    between atoms: C28_42  and  O2_43
ROOT
HETATM    1  C2  UNL     1      71.345  57.846  16.696  1.00  0.00     0.681 A
HETATM    2  N2  UNL     1      71.098  59.026  17.259  1.00  0.00    -0.177 N
ATOM      3  H2  UNL     1      71.834  59.732  17.286  1.00  0.00     0.186 HD
HETATM    4  C3  UNL     1      69.873  59.310  17.803  1.00  0.00     0.126 A
HETATM    5  C16 UNL     1      68.938  58.330  17.733  1.00  0.00     0.105 A
HETATM    6  C17 UNL     1      69.160  57.066  17.146  1.00  0.00     0.161 A
HETATM    7  N9  UNL     1      70.434  56.895  16.633  1.00  0.00    -0.171 N
ATOM      8  H9  UNL     1      70.675  56.007  16.192  1.00  0.00     0.186 HD
ENDROOT
BRANCH   4   9
HETATM    9  N3  UNL     1      69.669  60.556  18.433  1.00  0.00    -0.328 N
ATOM     10  H3  UNL     1      69.195  61.297  17.916  1.00  0.00     0.169 HD
BRANCH   9  11
HETATM   11  C4  UNL     1      70.060  60.792  19.641  1.00  0.00     0.111 A
HETATM   12  C5  UNL     1      69.483  60.210  20.742  1.00  0.00     0.073 A
HETATM   13  C6  UNL     1      69.993  60.410  22.022  1.00  0.00     0.013 A
HETATM   14  C7  UNL     1      69.352  59.777  23.190  1.00  0.00     0.068 C
HETATM   15  N4  UNL     1      71.064  61.186  22.161  1.00  0.00    -0.320 N
HETATM   16  C8  UNL     1      71.675  61.792  21.092  1.00  0.00     0.260 A
ATOM     17  H4  UNL     1      71.446  61.334  23.095  1.00  0.00     0.169 HD
HETATM   18  N7  UNL     1      71.128  61.562  19.838  1.00  0.00    -0.302 N
ATOM     19  H7  UNL     1      71.564  62.003  19.029  1.00  0.00     0.171 HD
BRANCH  16  20
HETATM   20  N5  UNL     1      72.683  62.454  21.250  1.00  0.00    -0.388 NA
BRANCH  20  21
HETATM   21  C9  UNL     1      73.964  62.808  21.467  1.00  0.00     0.161 C
BRANCH  21  22
HETATM   22  C10 UNL     1      74.939  62.486  20.367  1.00  0.00     0.089 C
BRANCH  22  23
HETATM   23  C11 UNL     1      75.560  61.155  20.371  1.00  0.00     0.278 C
BRANCH  23  24
HETATM   24  N6  UNL     1      75.441  60.449  19.118  1.00  0.00     0.088 N
HETATM   25  C12 UNL     1      76.103  59.139  19.204  1.00  0.00     0.272 C
HETATM   26  C13 UNL     1      75.169  58.394  20.152  1.00  0.00     0.032 C
HETATM   27  C14 UNL     1      73.789  58.990  19.951  1.00  0.00     0.032 C
HETATM   28  C15 UNL     1      74.074  60.005  18.861  1.00  0.00     0.272 C
ENDBRANCH  23  24
ENDBRANCH  22  23
ENDBRANCH  21  22
ENDBRANCH  20  21
ENDBRANCH  16  20
ENDBRANCH   9  11
ENDBRANCH   4   9
BRANCH   1  29
HETATM   29  N1  UNL     1      72.550  57.643  16.218  1.00  0.00    -0.230 N
HETATM   30  C1  UNL     1      73.489  56.795  16.943  1.00  0.00     0.165 C
ATOM     31  H1  UNL     1      72.830  58.077  15.338  1.00  0.00     0.177 HD
ENDBRANCH   1  29
BRANCH   6  32
HETATM   32  O1  UNL     1      68.316  56.105  17.053  1.00  0.00    -0.331 OA
BRANCH  32  33
HETATM   33  C18 UNL     1      67.476  55.159  16.961  1.00  0.00     0.218 C
BRANCH  33  34
HETATM   34  C19 UNL     1      67.533  54.154  15.842  1.00  0.00    -0.001 A
HETATM   35  C20 UNL     1      66.498  53.903  14.991  1.00  0.00     0.013 A
HETATM   36  C21 UNL     1      66.657  52.986  13.955  1.00  0.00     0.013 A
HETATM   37  C22 UNL     1      67.801  52.286  13.705  1.00  0.00    -0.017 A
HETATM   38  C27 UNL     1      68.855  52.563  14.602  1.00  0.00     0.050 A
HETATM   39  C28 UNL     1      68.714  53.464  15.629  1.00  0.00     0.077 A
BRANCH  37  40
HETATM   40  C23 UNL     1      68.007  51.349  12.597  1.00  0.00    -0.007 C
HETATM   41  C24 UNL     1      69.430  51.105  12.190  1.00  0.00     0.062 C
BRANCH  40  42
HETATM   42  N8  UNL     1      67.202  50.187  12.654  1.00  0.00    -0.295 NA
HETATM   43  C25 UNL     1      66.078  50.082  11.806  1.00  0.00     0.116 C
HETATM   44  C26 UNL     1      68.006  48.960  12.680  1.00  0.00     0.116 C
ENDBRANCH  40  42
ENDBRANCH  37  40
BRANCH  39  45
HETATM   45  O2  UNL     1      69.749  53.734  16.507  1.00  0.00    -0.355 OA
HETATM   46  C29 UNL     1      71.101  53.761  16.186  1.00  0.00     0.210 C
ENDBRANCH  39  45
ENDBRANCH  33  34
ENDBRANCH  32  33
ENDBRANCH   6  32
TORSDOF 14
ENDMDL