MODEL 2
REMARK VINA RESULT: -8.238713157      3.632     11.309
REMARK  13 active torsions:
REMARK  status: ('A' for Active; 'I' for Inactive)
REMARK    1  A    between atoms: C2_2  and  N1_3
REMARK    2  A    between atoms: C4_6  and  C5_7
REMARK    3  A    between atoms: C4_6  and  C7_9
REMARK    4  A    between atoms: C12_16  and  N3_17
REMARK    5  A    between atoms: N3_17  and  C13_19
REMARK    6  A    between atoms: C17_25  and  N5_26
REMARK       I    between atoms: N5_26  and  C19_28
REMARK    7  A    between atoms: C19_28  and  C20_30
REMARK    8  A    between atoms: C20_30  and  C21_31
REMARK    9  A    between atoms: C21_31  and  C22_32
REMARK   10  A    between atoms: C22_32  and  C23_33
REMARK   11  A    between atoms: C23_33  and  N6_34
REMARK   12  A    between atoms: C23_33  and  C24_38
REMARK   13  A    between atoms: C25_41  and  O5_42
ROOT
HETATM    1  C13 UNL     1      69.731  57.969  16.333  1.00  0.00     0.157 A
HETATM    2  N4  UNL     1      68.664  57.154  16.307  1.00  0.00    -0.344 N
ATOM      3  H4  UNL     1      67.745  57.539  16.525  1.00  0.00     0.167 HD
HETATM    4  C14 UNL     1      68.767  55.839  16.001  1.00  0.00     0.009 A
HETATM    5  C15 UNL     1      67.541  54.964  15.985  1.00  0.00     0.068 C
HETATM    6  C16 UNL     1      69.997  55.265  15.696  1.00  0.00     0.057 A
HETATM    7  C17 UNL     1      71.126  56.084  15.713  1.00  0.00     0.076 A
HETATM    8  C25 UNL     1      70.972  57.417  16.030  1.00  0.00     0.140 A
ENDROOT
BRANCH   1   9
HETATM    9  N3  UNL     1      69.670  59.332  16.642  1.00  0.00    -0.173 N
ATOM     10  H3  UNL     1      69.830  59.988  15.877  1.00  0.00     0.186 HD
BRANCH   9  11
HETATM   11  C12 UNL     1      69.428  59.840  17.812  1.00  0.00     0.685 A
HETATM   12  N2  UNL     1      68.155  60.001  18.213  1.00  0.00    -0.201 N
HETATM   13  C11 UNL     1      67.802  60.512  19.399  1.00  0.00     0.117 A
ATOM     14  H2  UNL     1      67.413  59.716  17.575  1.00  0.00     0.183 HD
HETATM   15  C10 UNL     1      68.808  60.911  20.291  1.00  0.00     0.004 A
HETATM   16  C9  UNL     1      68.439  61.482  21.599  1.00  0.00     0.063 C
HETATM   17  C27 UNL     1      70.108  60.742  19.871  1.00  0.00     0.133 A
HETATM   18  C4  UNL     1      69.544  61.268  22.626  1.00  0.00     0.045 C
HETATM   19  C3  UNL     1      70.828  61.667  22.018  1.00  0.00     0.234 C
HETATM   20  N1  UNL     1      71.183  61.124  20.738  1.00  0.00    -0.303 N
HETATM   21  O1  UNL     1      71.589  62.455  22.594  1.00  0.00    -0.272 OA
HETATM   22  N7  UNL     1      70.411  60.214  18.647  1.00  0.00    -0.176 N
ATOM     23  H7  UNL     1      71.386  60.104  18.367  1.00  0.00     0.186 HD
BRANCH  18  24
HETATM   24  C5  UNL     1      69.634  59.816  23.028  1.00  0.00     0.015 C
HETATM   25  C6  UNL     1      69.439  59.720  24.519  1.00  0.00     0.006 C
ENDBRANCH  18  24
BRANCH  18  26
HETATM   26  C7  UNL     1      69.210  62.072  23.856  1.00  0.00     0.015 C
HETATM   27  C8  UNL     1      68.153  63.115  23.638  1.00  0.00     0.006 C
ENDBRANCH  18  26
BRANCH  20  28
HETATM   28  C2  UNL     1      72.560  60.977  20.364  1.00  0.00     0.129 C
HETATM   29  C1  UNL     1      73.135  62.152  19.642  1.00  0.00     0.027 C
ENDBRANCH  20  28
ENDBRANCH   9  11
ENDBRANCH   1   9
BRANCH   8  30
HETATM   30  O5  UNL     1      72.121  58.204  16.038  1.00  0.00    -0.350 OA
HETATM   31  C26 UNL     1      72.952  58.401  17.141  1.00  0.00     0.210 C
ENDBRANCH   8  30
BRANCH   7  32
HETATM   32  N5  UNL     1      72.365  55.471  15.396  1.00  0.00    -0.320 N
HETATM   33  C18 UNL     1      72.801  55.495  14.023  1.00  0.00     0.159 C
HETATM   34  C19 UNL     1      73.182  54.840  16.370  1.00  0.00     0.224 C
HETATM   35  O2  UNL     1      72.772  54.830  17.555  1.00  0.00    -0.273 OA
BRANCH  34  36
HETATM   36  C20 UNL     1      74.460  54.218  16.023  1.00  0.00     0.103 C
BRANCH  36  37
HETATM   37  C21 UNL     1      74.422  52.835  15.520  1.00  0.00     0.012 C
BRANCH  37  38
HETATM   38  C22 UNL     1      73.137  52.161  15.273  1.00  0.00     0.044 C
BRANCH  38  39
HETATM   39  C23 UNL     1      73.042  51.173  14.173  1.00  0.00     0.283 C
BRANCH  39  40
HETATM   40  N6  UNL     1      72.519  49.888  14.609  1.00  0.00    -0.065 N
ATOM     41  H63 UNL     1      72.684  49.169  13.905  1.00  0.00     0.275 HD
ATOM     42  H62 UNL     1      73.079  49.506  15.371  1.00  0.00     0.275 HD
ATOM     43  H61 UNL     1      71.532  49.927  14.866  1.00  0.00     0.275 HD
ENDBRANCH  39  40
BRANCH  39  44
HETATM   44  C24 UNL     1      72.407  51.614  12.958  1.00  0.00     0.204 C
HETATM   45  O3  UNL     1      71.222  51.266  12.620  1.00  0.00    -0.646 OA
HETATM   46  O4  UNL     1      73.073  52.465  12.061  1.00  0.00    -0.646 OA
ENDBRANCH  39  44
ENDBRANCH  38  39
ENDBRANCH  37  38
ENDBRANCH  36  37
ENDBRANCH  34  36
ENDBRANCH   7  32
TORSDOF 13
ENDMDL