MODEL 5
REMARK VINA RESULT: -8.335931491      1.796      7.500
REMARK  13 active torsions:
REMARK  status: ('A' for Active; 'I' for Inactive)
REMARK    1  A    between atoms: C2_2  and  C3_3
REMARK    2  A    between atoms: C3_3  and  N1_4
REMARK    3  A    between atoms: N2_7  and  C6_8
REMARK    4  A    between atoms: C6_8  and  C7_9
REMARK    5  A    between atoms: C7_9  and  C8_10
REMARK    6  A    between atoms: C8_10  and  C9_11
REMARK    7  A    between atoms: C9_11  and  N3_12
REMARK    8  A    between atoms: N3_12  and  C10_14
REMARK    9  A    between atoms: C11_17  and  N5_18
REMARK   10  A    between atoms: C16_24  and  O1_25
REMARK   11  A    between atoms: C19_33  and  C20_34
REMARK   12  A    between atoms: C20_34  and  C21_35
REMARK   13  A    between atoms: C24_38  and  O2_39
ROOT
HETATM    1  C10 UNL     1      69.180  56.003  16.846  1.00  0.00     0.131 A
HETATM    2  N4  UNL     1      69.114  56.903  17.854  1.00  0.00    -0.176 N
ATOM      3  H4  UNL     1      68.496  56.695  18.639  1.00  0.00     0.186 HD
HETATM    4  C11 UNL     1      69.805  58.045  17.888  1.00  0.00     0.685 A
HETATM    5  N7  UNL     1      70.608  58.319  16.871  1.00  0.00    -0.175 N
ATOM      6  H7  UNL     1      71.147  59.185  16.870  1.00  0.00     0.186 HD
HETATM    7  C17 UNL     1      70.715  57.465  15.842  1.00  0.00     0.135 A
HETATM    8  N8  UNL     1      71.448  57.549  14.700  1.00  0.00    -0.350 N
ATOM      9  H8  UNL     1      72.069  58.320  14.457  1.00  0.00     0.166 HD
HETATM   10  C18 UNL     1      71.233  56.470  13.944  1.00  0.00     0.098 A
HETATM   11  C19 UNL     1      70.316  55.624  14.608  1.00  0.00    -0.021 A
HETATM   12  C27 UNL     1      70.014  56.262  15.767  1.00  0.00     0.061 A
ENDROOT
BRANCH   1  13
HETATM   13  N3  UNL     1      68.470  54.955  16.823  1.00  0.00    -0.375 N
ATOM     14  H3  UNL     1      68.965  54.075  16.973  1.00  0.00     0.161 HD
BRANCH  13  15
HETATM   15  C9  UNL     1      67.051  54.856  16.611  1.00  0.00     0.121 C
BRANCH  15  16
HETATM   16  C8  UNL     1      66.710  54.636  15.154  1.00  0.00     0.021 C
BRANCH  16  17
HETATM   17  C7  UNL     1      66.779  53.163  14.849  1.00  0.00     0.032 C
BRANCH  17  18
HETATM   18  C6  UNL     1      66.446  52.838  13.435  1.00  0.00     0.272 C
BRANCH  18  19
HETATM   19  N2  UNL     1      67.080  51.636  12.951  1.00  0.00     0.091 N
HETATM   20  C5  UNL     1      67.759  51.027  14.062  1.00  0.00     0.302 C
HETATM   21  C4  UNL     1      68.466  49.792  13.565  1.00  0.00     0.302 C
HETATM   22  N1  UNL     1      67.429  48.877  13.131  1.00  0.00     0.091 N
HETATM   23  C29 UNL     1      66.749  49.417  12.006  1.00  0.00     0.302 C
HETATM   24  C28 UNL     1      66.145  50.747  12.300  1.00  0.00     0.302 C
BRANCH  22  25
HETATM   25  C3  UNL     1      67.959  47.579  12.969  1.00  0.00     0.272 C
BRANCH  25  26
HETATM   26  C2  UNL     1      67.365  46.526  13.856  1.00  0.00     0.026 C
HETATM   27  C1  UNL     1      68.434  45.875  14.712  1.00  0.00     0.007 C
ENDBRANCH  25  26
ENDBRANCH  22  25
ENDBRANCH  18  19
ENDBRANCH  17  18
ENDBRANCH  16  17
ENDBRANCH  15  16
ENDBRANCH  13  15
ENDBRANCH   1  13
BRANCH   4  28
HETATM   28  N5  UNL     1      69.676  58.936  18.988  1.00  0.00    -0.188 N
HETATM   29  C12 UNL     1      68.562  58.746  19.904  1.00  0.00     0.174 C
HETATM   30  C13 UNL     1      68.297  59.970  20.745  1.00  0.00     0.292 C
HETATM   31  N6  UNL     1      69.452  60.443  21.437  1.00  0.00     0.090 N
HETATM   32  C14 UNL     1      69.509  60.002  22.816  1.00  0.00     0.310 C
HETATM   33  C15 UNL     1      70.683  60.287  20.741  1.00  0.00     0.326 C
HETATM   34  C16 UNL     1      70.569  60.017  19.265  1.00  0.00     0.265 C
BRANCH  34  35
HETATM   35  O1  UNL     1      70.054  61.184  18.659  1.00  0.00    -0.374 OA
ATOM     36  H1  UNL     1      69.658  60.940  17.831  1.00  0.00     0.212 HD
ENDBRANCH  34  35
ENDBRANCH   4  28
BRANCH  11  37
HETATM   37  C20 UNL     1      69.905  54.295  14.131  1.00  0.00     0.081 C
BRANCH  37  38
HETATM   38  C21 UNL     1      71.000  53.330  14.222  1.00  0.00    -0.038 A
HETATM   39  C22 UNL     1      71.954  53.272  15.180  1.00  0.00     0.013 A
HETATM   40  C23 UNL     1      72.962  52.326  15.186  1.00  0.00     0.056 A
HETATM   41  C24 UNL     1      72.987  51.407  14.168  1.00  0.00     0.141 A
HETATM   42  N9  UNL     1      72.053  51.430  13.191  1.00  0.00    -0.346 N
HETATM   43  C26 UNL     1      71.075  52.365  13.201  1.00  0.00     0.097 A
ATOM     44  H9  UNL     1      72.086  50.740  12.441  1.00  0.00     0.167 HD
BRANCH  41  45
HETATM   45  O2  UNL     1      73.986  50.455  14.160  1.00  0.00    -0.341 OA
HETATM   46  C25 UNL     1      73.699  49.178  13.628  1.00  0.00     0.211 C
ENDBRANCH  41  45
ENDBRANCH  37  38
ENDBRANCH  11  37
TORSDOF 13
ENDMDL