MODEL 5
REMARK VINA RESULT: -8.860329269      0.711      4.281
REMARK  13 active torsions:
REMARK  status: ('A' for Active; 'I' for Inactive)
REMARK    1  A    between atoms: C2_2  and  C3_3
REMARK    2  A    between atoms: C3_3  and  C4_4
REMARK    3  A    between atoms: C4_4  and  N1_5
REMARK    4  A    between atoms: N1_5  and  C5_7
REMARK    5  A    between atoms: C6_10  and  N3_11
REMARK    6  A    between atoms: N7_24  and  C12_25
REMARK    7  A    between atoms: N8_28  and  C15_29
REMARK    8  A    between atoms: C15_29  and  C16_30
REMARK    9  A    between atoms: C16_30  and  N9_31
REMARK   10  A    between atoms: C19_34  and  C20_35
REMARK   11  A    between atoms: C26_41  and  N10_42
REMARK   12  A    between atoms: N10_42  and  C27_43
REMARK   13  A    between atoms: C27_43  and  C28_44
ROOT
HETATM    1  N3  UNL     1      72.269  51.713  12.853  1.00  0.00    -0.326 N
ATOM      2  H3  UNL     1      72.977  51.487  12.154  1.00  0.00     0.169 HD
HETATM    3  C7  UNL     1      72.374  52.821  13.434  1.00  0.00     0.139 A
HETATM    4  N4  UNL     1      73.404  53.654  13.109  1.00  0.00    -0.337 N
ATOM      5  H4  UNL     1      74.083  53.384  12.398  1.00  0.00     0.168 HD
HETATM    6  C8  UNL     1      73.508  54.821  13.729  1.00  0.00     0.183 A
HETATM    7  N5  UNL     1      72.659  55.252  14.673  1.00  0.00    -0.336 N
ATOM      8  H5  UNL     1      72.796  56.162  15.112  1.00  0.00     0.168 HD
HETATM    9  C9  UNL     1      71.612  54.460  15.040  1.00  0.00     0.140 A
HETATM   10  C10 UNL     1      71.494  53.248  14.404  1.00  0.00     0.122 A
HETATM   11  N6  UNL     1      70.390  52.669  14.948  1.00  0.00    -0.346 N
ATOM     12  H6  UNL     1      70.019  51.753  14.696  1.00  0.00     0.167 HD
HETATM   13  C11 UNL     1      69.868  53.485  15.860  1.00  0.00     0.185 A
HETATM   14  N7  UNL     1      70.624  54.612  15.927  1.00  0.00    -0.322 N
ENDROOT
BRANCH   1  15
HETATM   15  C6  UNL     1      71.272  50.760  13.079  1.00  0.00     0.127 A
HETATM   16  N2  UNL     1      70.000  51.048  12.682  1.00  0.00    -0.176 N
HETATM   17  C5  UNL     1      68.972  50.210  12.868  1.00  0.00     0.682 A
ATOM     18  H2  UNL     1      69.823  51.942  12.223  1.00  0.00     0.186 HD
HETATM   19  N11 UNL     1      69.209  49.042  13.467  1.00  0.00    -0.164 N
HETATM   20  C26 UNL     1      70.444  48.640  13.908  1.00  0.00     0.196 A
ATOM     21  H11 UNL     1      68.422  48.407  13.605  1.00  0.00     0.187 HD
HETATM   22  C25 UNL     1      71.475  49.549  13.690  1.00  0.00     0.113 A
BRANCH  17  23
HETATM   23  N1  UNL     1      67.752  50.506  12.481  1.00  0.00    -0.226 N
ATOM     24  H1  UNL     1      67.191  49.773  12.048  1.00  0.00     0.177 HD
BRANCH  23  25
HETATM   25  C4  UNL     1      67.175  51.795  12.635  1.00  0.00     0.142 C
BRANCH  25  26
HETATM   26  C3  UNL     1      66.782  52.067  14.091  1.00  0.00     0.046 C
BRANCH  26  27
HETATM   27  C2  UNL     1      66.040  53.377  14.178  1.00  0.00    -0.035 C
HETATM   28  C1  UNL     1      66.641  54.424  14.695  1.00  0.00     0.007 C
ENDBRANCH  26  27
ENDBRANCH  25  26
ENDBRANCH  23  25
ENDBRANCH  17  23
BRANCH  20  29
HETATM   29  N10 UNL     1      70.630  47.588  14.429  1.00  0.00    -0.403 NA
BRANCH  29  30
HETATM   30  C27 UNL     1      71.134  46.646  15.262  1.00  0.00     0.162 C
BRANCH  30  31
HETATM   31  C28 UNL     1      72.437  47.032  15.984  1.00  0.00     0.038 A
HETATM   32  C29 UNL     1      73.675  46.902  15.144  1.00  0.00     0.011 A
HETATM   33  C30 UNL     1      73.391  45.955  16.315  1.00  0.00     0.011 A
ENDBRANCH  30  31
ENDBRANCH  29  30
ENDBRANCH  20  29
ENDBRANCH   1  15
BRANCH  14  34
HETATM   34  C12 UNL     1      70.354  55.735  16.810  1.00  0.00     0.098 C
HETATM   35  C13 UNL     1      71.578  56.082  17.629  1.00  0.00     0.046 C
HETATM   36  C14 UNL     1      71.222  57.164  18.601  1.00  0.00     0.129 C
HETATM   37  N8  UNL     1      70.605  58.307  17.975  1.00  0.00    -0.372 N
HETATM   38  C23 UNL     1      69.526  58.004  17.128  1.00  0.00     0.065 C
HETATM   39  C24 UNL     1      69.924  56.983  16.083  1.00  0.00     0.070 C
BRANCH  37  40
HETATM   40  C15 UNL     1      70.573  59.470  18.766  1.00  0.00     0.082 C
BRANCH  40  41
HETATM   41  C16 UNL     1      71.555  59.522  19.896  1.00  0.00     0.161 C
BRANCH  41  42
HETATM   42  N9  UNL     1      72.662  60.369  19.621  1.00  0.00    -0.408 N
HETATM   43  C17 UNL     1      73.049  61.289  20.626  1.00  0.00     0.117 C
HETATM   44  C18 UNL     1      74.448  61.742  20.233  1.00  0.00     0.026 C
HETATM   45  C19 UNL     1      74.896  60.811  19.141  1.00  0.00     0.004 C
HETATM   46  C22 UNL     1      73.800  59.765  19.021  1.00  0.00     0.121 C
BRANCH  45  47
HETATM   47  C20 UNL     1      76.198  60.159  19.603  1.00  0.00     0.002 C
HETATM   48  C21 UNL     1      75.998  58.734  20.017  1.00  0.00     0.005 C
ENDBRANCH  45  47
ENDBRANCH  41  42
ENDBRANCH  40  41
ENDBRANCH  37  40
ENDBRANCH  14  34
TORSDOF 13
ENDMDL