MODEL 5
REMARK VINA RESULT: -7.444271392      1.081      1.520
REMARK  21 active torsions:
REMARK  status: ('A' for Active; 'I' for Inactive)
REMARK    1  A    between atoms: C2_2  and  C3_3
REMARK    2  A    between atoms: C3_3  and  C4_4
REMARK    3  A    between atoms: C4_4  and  C5_5
REMARK    4  A    between atoms: C5_5  and  N1_6
REMARK    5  A    between atoms: C5_5  and  C21_39
REMARK    6  A    between atoms: N1_6  and  C6_8
REMARK    7  A    between atoms: C6_8  and  O1_9
REMARK    8  A    between atoms: C6_8  and  C7_11
REMARK    9  A    between atoms: C9_15  and  N3_16
REMARK   10  A    between atoms: N3_16  and  C10_17
REMARK   11  A    between atoms: C10_17  and  O2_18
REMARK   12  A    between atoms: C10_17  and  C11_20
REMARK   13  A    between atoms: C11_20  and  N4_21
REMARK   14  A    between atoms: N4_21  and  C12_22
REMARK   15  A    between atoms: N4_21  and  C14_24
REMARK   16  A    between atoms: C16_28  and  N6_29
REMARK   17  A    between atoms: N6_29  and  C17_30
REMARK   18  A    between atoms: C17_30  and  O3_31
REMARK   19  A    between atoms: C17_30  and  C18_33
REMARK   20  A    between atoms: C21_39  and  O5_41
REMARK   21  A    between atoms: O5_41  and  C22_42
ROOT
HETATM    1  C7  UNL     1      71.573  55.274  16.123  1.00  0.00     0.128 A
HETATM    2  N2  UNL     1      71.102  56.055  17.034  1.00  0.00    -0.341 N
ATOM      3  H2  UNL     1      70.149  55.904  17.366  1.00  0.00     0.167 HD
HETATM    4  C8  UNL     1      71.819  57.060  17.564  1.00  0.00     0.126 A
HETATM    5  C9  UNL     1      71.328  57.867  18.581  1.00  0.00     0.215 A
HETATM    6  N5  UNL     1      72.240  58.817  19.074  1.00  0.00    -0.289 N
ATOM      7  H5  UNL     1      71.923  59.417  19.835  1.00  0.00     0.172 HD
HETATM    8  C16 UNL     1      73.494  58.999  18.627  1.00  0.00     0.264 A
HETATM    9  N7  UNL     1      73.884  58.214  17.634  1.00  0.00    -0.308 N
ATOM     10  H7  UNL     1      74.820  58.330  17.246  1.00  0.00     0.170 HD
HETATM   11  C20 UNL     1      73.048  57.238  17.110  1.00  0.00     0.111 A
HETATM   12  S1  UNL     1      73.203  56.008  15.949  1.00  0.00    -0.048 SA
ENDROOT
BRANCH   1  13
HETATM   13  C6  UNL     1      71.208  54.098  15.335  1.00  0.00     0.175 C
BRANCH  13  14
HETATM   14  N1  UNL     1      71.440  53.842  13.941  1.00  0.00    -0.333 N
ATOM     15  H1  UNL     1      71.677  54.571  13.268  1.00  0.00     0.168 HD
BRANCH  14  16
HETATM   16  C5  UNL     1      71.305  52.458  13.592  1.00  0.00     0.087 C
BRANCH  16  17
HETATM   17  C4  UNL     1      72.406  51.624  13.238  1.00  0.00     0.063 C
BRANCH  17  18
HETATM   18  C3  UNL     1      73.219  51.039  14.380  1.00  0.00     0.006 C
BRANCH  18  19
HETATM   19  C2  UNL     1      73.243  49.483  14.309  1.00  0.00    -0.004 C
HETATM   20  C1  UNL     1      74.541  49.143  13.545  1.00  0.00     0.005 C
ENDBRANCH  18  19
ENDBRANCH  17  18
ENDBRANCH  16  17
BRANCH  16  21
HETATM   21  C21 UNL     1      70.030  52.298  12.699  1.00  0.00     0.306 C
HETATM   22  O4  UNL     1      70.008  51.701  11.698  1.00  0.00    -0.258 OA
BRANCH  21  23
HETATM   23  O5  UNL     1      68.953  52.947  13.208  1.00  0.00    -0.306 OA
BRANCH  23  24
HETATM   24  C22 UNL     1      67.813  52.597  13.822  1.00  0.00     0.060 C
HETATM   25  C23 UNL     1      67.923  51.304  14.598  1.00  0.00     0.046 C
HETATM   26  C24 UNL     1      66.687  52.333  12.795  1.00  0.00     0.046 C
HETATM   27  C25 UNL     1      67.320  53.735  14.688  1.00  0.00     0.046 C
ENDBRANCH  23  24
ENDBRANCH  21  23
ENDBRANCH  16  21
ENDBRANCH  14  16
ENDBRANCH  13  14
BRANCH  13  28
HETATM   28  O1  UNL     1      70.552  53.213  16.027  1.00  0.00    -0.344 OA
ATOM     29  H1  UNL     1      70.585  52.305  15.748  1.00  0.00     0.219 HD
ENDBRANCH  13  28
ENDBRANCH   1  13
BRANCH   5  30
HETATM   30  N3  UNL     1      70.239  58.186  18.967  1.00  0.00    -0.363 NA
BRANCH  30  31
HETATM   31  C10 UNL     1      69.101  58.578  19.412  1.00  0.00     0.210 C
BRANCH  31  32
HETATM   32  O2  UNL     1      68.221  57.505  18.927  1.00  0.00    -0.338 OA
ATOM     33  H2  UNL     1      67.703  57.969  18.280  1.00  0.00     0.220 HD
ENDBRANCH  31  32
BRANCH  31  34
HETATM   34  C11 UNL     1      68.222  59.481  20.093  1.00  0.00     0.221 C
BRANCH  34  35
HETATM   35  N4  UNL     1      69.141  60.465  20.730  1.00  0.00    -0.386 N
BRANCH  35  36
HETATM   36  C12 UNL     1      69.735  60.032  21.939  1.00  0.00     0.118 C
HETATM   37  C13 UNL     1      69.251  60.836  23.093  1.00  0.00     0.026 C
ENDBRANCH  35  36
BRANCH  35  38
HETATM   38  C14 UNL     1      69.112  61.787  20.368  1.00  0.00     0.054 C
HETATM   39  C15 UNL     1      68.927  62.214  18.965  1.00  0.00     0.054 C
ENDBRANCH  35  38
ENDBRANCH  34  35
ENDBRANCH  31  34
ENDBRANCH  30  31
ENDBRANCH   5  30
BRANCH   8  40
HETATM   40  N6  UNL     1      74.227  59.818  19.156  1.00  0.00    -0.350 NA
BRANCH  40  41
HETATM   41  C17 UNL     1      74.911  60.878  19.404  1.00  0.00     0.193 C
BRANCH  41  42
HETATM   42  O3  UNL     1      75.978  61.252  18.742  1.00  0.00    -0.339 OA
ATOM     43  H3  UNL     1      76.821  60.815  18.778  1.00  0.00     0.220 HD
ENDBRANCH  41  42
BRANCH  41  44
HETATM   44  C18 UNL     1      74.501  61.805  20.527  1.00  0.00     0.096 C
HETATM   45  C19 UNL     1      73.047  62.225  20.228  1.00  0.00     0.014 C
ENDBRANCH  41  44
ENDBRANCH  40  41
ENDBRANCH   8  40
TORSDOF 21
ENDMDL