MODEL 1
REMARK VINA RESULT: -8.264016374      0.000      0.000
REMARK  17 active torsions:
REMARK  status: ('A' for Active; 'I' for Inactive)
REMARK    1  A    between atoms: C2_2  and  C3_3
REMARK    2  A    between atoms: C3_3  and  C4_4
REMARK    3  A    between atoms: C4_4  and  C5_5
REMARK    4  A    between atoms: C5_5  and  C6_6
REMARK    5  A    between atoms: C6_6  and  C7_7
REMARK    6  A    between atoms: C7_7  and  C8_8
REMARK    7  A    between atoms: C8_8  and  C9_9
REMARK    8  A    between atoms: C8_8  and  N1_12
REMARK    9  A    between atoms: C9_9  and  O1_10
REMARK   10  A    between atoms: N1_12  and  C10_14
REMARK   11  A    between atoms: C12_20  and  N4_21
REMARK   12  A    between atoms: N5_24  and  C15_25
REMARK   13  A    between atoms: C15_25  and  O2_26
REMARK   14  A    between atoms: C15_25  and  N6_28
REMARK   15  A    between atoms: C22_38  and  N8_39
REMARK   16  A    between atoms: N8_39  and  C23_40
REMARK   17  A    between atoms: C23_40  and  C24_41
ROOT
HETATM    1  C10 UNL     1      70.690  58.792  19.370  1.00  0.00     0.679 A
HETATM    2  N2  UNL     1      69.776  57.972  18.770  1.00  0.00    -0.175 N
ATOM      3  H2  UNL     1      68.787  58.133  18.960  1.00  0.00     0.186 HD
HETATM    4  C11 UNL     1      70.106  56.970  17.948  1.00  0.00     0.153 A
HETATM    5  N3  UNL     1      69.181  56.180  17.372  1.00  0.00    -0.175 N
ATOM      6  H3  UNL     1      68.198  56.360  17.578  1.00  0.00     0.186 HD
HETATM    7  C12 UNL     1      69.480  55.165  16.540  1.00  0.00     0.684 A
HETATM    8  N7  UNL     1      70.786  54.950  16.286  1.00  0.00    -0.163 N
ATOM      9  H7  UNL     1      71.040  54.187  15.659  1.00  0.00     0.187 HD
HETATM   10  C22 UNL     1      71.776  55.700  16.825  1.00  0.00     0.207 A
HETATM   11  C26 UNL     1      71.422  56.748  17.689  1.00  0.00     0.084 A
HETATM   12  C27 UNL     1      72.376  57.547  18.269  1.00  0.00     0.126 A
HETATM   13  N9  UNL     1      71.975  58.559  19.104  1.00  0.00    -0.201 N
ATOM     14  H9  UNL     1      72.684  59.153  19.534  1.00  0.00     0.183 HD
ENDROOT
BRANCH   7  15
HETATM   15  N4  UNL     1      68.471  54.351  15.956  1.00  0.00    -0.214 N
HETATM   16  C13 UNL     1      67.787  54.846  14.769  1.00  0.00     0.161 C
HETATM   17  C14 UNL     1      66.602  53.945  14.469  1.00  0.00     0.147 C
HETATM   18  N5  UNL     1      66.993  52.537  14.424  1.00  0.00    -0.344 N
HETATM   19  C20 UNL     1      67.988  52.082  15.339  1.00  0.00     0.147 C
HETATM   20  C21 UNL     1      68.105  53.077  16.500  1.00  0.00     0.161 C
BRANCH  18  21
HETATM   21  C15 UNL     1      66.313  51.759  13.447  1.00  0.00     0.217 C
BRANCH  21  22
HETATM   22  O2  UNL     1      65.214  52.266  12.962  1.00  0.00    -0.333 OA
ATOM     23  H2  UNL     1      64.698  51.700  12.400  1.00  0.00     0.220 HD
ENDBRANCH  21  22
BRANCH  21  24
HETATM   24  N6  UNL     1      66.650  50.517  12.919  1.00  0.00    -0.344 N
HETATM   25  C16 UNL     1      65.829  49.993  11.801  1.00  0.00     0.152 C
HETATM   26  C17 UNL     1      65.797  48.503  11.819  1.00  0.00     0.187 C
HETATM   27  O3  UNL     1      66.935  47.859  12.212  1.00  0.00    -0.388 OA
HETATM   28  C18 UNL     1      68.010  48.732  12.216  1.00  0.00     0.187 C
HETATM   29  C19 UNL     1      67.755  49.728  13.384  1.00  0.00     0.152 C
ENDBRANCH  21  24
ENDBRANCH  18  21
ENDBRANCH   7  15
BRANCH  10  30
HETATM   30  N8  UNL     1      72.920  55.484  16.573  1.00  0.00    -0.402 NA
BRANCH  30  31
HETATM   31  C23 UNL     1      74.194  55.239  16.262  1.00  0.00     0.157 C
BRANCH  31  32
HETATM   32  C24 UNL     1      74.551  53.804  15.868  1.00  0.00     0.055 C
HETATM   33  C25 UNL     1      73.702  53.464  14.659  1.00  0.00     0.011 C
ENDBRANCH  31  32
ENDBRANCH  30  31
ENDBRANCH  10  30
BRANCH   1  34
HETATM   34  N1  UNL     1      70.303  59.734  20.142  1.00  0.00    -0.219 N
ATOM     35  H1  UNL     1      69.718  59.487  20.940  1.00  0.00     0.178 HD
BRANCH  34  36
HETATM   36  C8  UNL     1      70.647  61.155  19.955  1.00  0.00     0.122 C
BRANCH  36  37
HETATM   37  C7  UNL     1      71.372  61.522  21.198  1.00  0.00     0.028 C
BRANCH  37  38
HETATM   38  C6  UNL     1      72.760  62.013  21.130  1.00  0.00     0.002 C
BRANCH  38  39
HETATM   39  C5  UNL     1      73.606  61.743  19.974  1.00  0.00     0.000 C
BRANCH  39  40
HETATM   40  C4  UNL     1      75.065  61.810  20.190  1.00  0.00     0.000 C
BRANCH  40  41
HETATM   41  C3  UNL     1      75.963  60.936  19.461  1.00  0.00    -0.000 C
BRANCH  41  42
HETATM   42  C2  UNL     1      75.521  59.625  18.989  1.00  0.00    -0.005 C
HETATM   43  C1  UNL     1      75.584  58.655  20.206  1.00  0.00     0.005 C
ENDBRANCH  41  42
ENDBRANCH  40  41
ENDBRANCH  39  40
ENDBRANCH  38  39
ENDBRANCH  37  38
ENDBRANCH  36  37
BRANCH  36  44
HETATM   44  C9  UNL     1      69.377  61.875  19.744  1.00  0.00     0.189 C
BRANCH  44  45
HETATM   45  O1  UNL     1      68.867  62.316  20.957  1.00  0.00    -0.399 OA
ATOM     46  H1  UNL     1      68.145  62.916  20.812  1.00  0.00     0.209 HD
ENDBRANCH  44  45
ENDBRANCH  36  44
ENDBRANCH  34  36
ENDBRANCH   1  34
TORSDOF 17
ENDMDL