MODEL 4
REMARK VINA RESULT: -8.739645419      0.829      2.452
REMARK  15 active torsions:
REMARK  status: ('A' for Active; 'I' for Inactive)
REMARK    1  A    between atoms: O1_2  and  C2_3
REMARK    2  A    between atoms: C4_5  and  C5_6
REMARK    3  A    between atoms: C5_6  and  N1_7
REMARK    4  A    between atoms: C5_6  and  N4_26
REMARK       I    between atoms: N1_7  and  C6_8
REMARK    5  A    between atoms: C6_8  and  C7_10
REMARK    6  A    between atoms: C7_10  and  C8_11
REMARK    7  A    between atoms: C8_11  and  C9_12
REMARK    8  A    between atoms: C12_15  and  O3_16
REMARK    9  A    between atoms: O3_16  and  C13_17
REMARK   10  A    between atoms: C13_17  and  C14_18
REMARK   11  A    between atoms: C14_18  and  N2_19
REMARK   12  A    between atoms: N4_26  and  C19_28
REMARK   13  A    between atoms: C23_34  and  N6_35
REMARK   14  A    between atoms: C25_41  and  O4_42
REMARK   15  A    between atoms: C27_44  and  O5_45
ROOT
HETATM    1  C5  UNL     1      71.540  58.062  18.580  1.00  0.00     0.195 C
ENDROOT
BRANCH   1   2
HETATM    2  C4  UNL     1      71.878  59.339  19.260  1.00  0.00     0.028 A
HETATM    3  C3  UNL     1      71.002  59.988  20.091  1.00  0.00     0.056 A
HETATM    4  C2  UNL     1      71.361  61.188  20.726  1.00  0.00     0.105 A
HETATM    5  C27 UNL     1      72.599  61.759  20.545  1.00  0.00     0.135 A
HETATM    6  C25 UNL     1      73.485  61.108  19.709  1.00  0.00     0.105 A
HETATM    7  C24 UNL     1      73.126  59.925  19.084  1.00  0.00     0.056 A
BRANCH   4   8
HETATM    8  O1  UNL     1      70.478  61.851  21.569  1.00  0.00    -0.353 OA
HETATM    9  C1  UNL     1      69.102  61.545  21.447  1.00  0.00     0.210 C
ENDBRANCH   4   8
BRANCH   5  10
HETATM   10  O5  UNL     1      72.976  62.945  21.165  1.00  0.00    -0.351 OA
HETATM   11  C28 UNL     1      73.705  62.960  22.383  1.00  0.00     0.210 C
ENDBRANCH   5  10
BRANCH   6  12
HETATM   12  O4  UNL     1      74.723  61.678  19.527  1.00  0.00    -0.353 OA
HETATM   13  C26 UNL     1      75.949  61.026  19.429  1.00  0.00     0.210 C
ENDBRANCH   6  12
ENDBRANCH   1   2
BRANCH   1  14
HETATM   14  N1  UNL     1      70.493  57.510  18.434  1.00  0.00    -0.351 NA
HETATM   15  C6  UNL     1      69.198  57.271  18.337  1.00  0.00     0.293 C
HETATM   16  O2  UNL     1      68.330  57.793  19.127  1.00  0.00    -0.257 OA
BRANCH  15  17
HETATM   17  C7  UNL     1      68.660  56.340  17.259  1.00  0.00     0.125 C
BRANCH  17  18
HETATM   18  C8  UNL     1      69.541  55.135  17.180  1.00  0.00     0.067 C
BRANCH  18  19
HETATM   19  C9  UNL     1      69.148  54.350  15.987  1.00  0.00     0.010 A
HETATM   20  C10 UNL     1      70.047  53.600  15.260  1.00  0.00     0.028 A
HETATM   21  C11 UNL     1      69.649  52.877  14.149  1.00  0.00     0.040 A
HETATM   22  C12 UNL     1      68.328  52.906  13.761  1.00  0.00     0.090 A
HETATM   23  C17 UNL     1      67.452  53.658  14.499  1.00  0.00     0.039 A
HETATM   24  C18 UNL     1      66.017  53.708  14.100  1.00  0.00     0.071 C
HETATM   25  N3  UNL     1      67.873  54.350  15.575  1.00  0.00    -0.361 N
ATOM     26  H3  UNL     1      67.191  54.898  16.100  1.00  0.00     0.165 HD
BRANCH  22  27
HETATM   27  O3  UNL     1      67.964  52.167  12.640  1.00  0.00    -0.347 OA
BRANCH  27  28
HETATM   28  C13 UNL     1      68.414  50.840  12.447  1.00  0.00     0.206 C
BRANCH  28  29
HETATM   29  C14 UNL     1      67.369  49.906  13.017  1.00  0.00     0.297 C
BRANCH  29  30
HETATM   30  N2  UNL     1      67.613  48.535  12.662  1.00  0.00     0.082 N
HETATM   31  C15 UNL     1      67.998  47.693  13.757  1.00  0.00     0.309 C
HETATM   32  C16 UNL     1      66.389  47.983  12.100  1.00  0.00     0.309 C
ENDBRANCH  29  30
ENDBRANCH  28  29
ENDBRANCH  27  28
ENDBRANCH  22  27
ENDBRANCH  18  19
ENDBRANCH  17  18
ENDBRANCH  15  17
ENDBRANCH   1  14
BRANCH   1  33
HETATM   33  N4  UNL     1      72.712  57.390  18.006  1.00  0.00    -0.316 N
ATOM     34  H4  UNL     1      73.586  57.355  18.531  1.00  0.00     0.170 HD
BRANCH  33  35
HETATM   35  C19 UNL     1      72.637  56.841  16.835  1.00  0.00     0.125 A
HETATM   36  C20 UNL     1      73.443  55.731  16.645  1.00  0.00     0.074 A
HETATM   37  C21 UNL     1      73.394  55.112  15.403  1.00  0.00     0.026 A
HETATM   38  C22 UNL     1      74.237  53.907  15.132  1.00  0.00     0.069 C
HETATM   39  N5  UNL     1      72.585  55.598  14.448  1.00  0.00    -0.196 N
HETATM   40  C23 UNL     1      71.805  56.676  14.635  1.00  0.00     0.677 A
ATOM     41  H5  UNL     1      72.562  55.130  13.542  1.00  0.00     0.184 HD
HETATM   42  N7  UNL     1      71.866  57.263  15.843  1.00  0.00    -0.177 N
ATOM     43  H7  UNL     1      71.282  58.084  16.007  1.00  0.00     0.185 HD
BRANCH  40  44
HETATM   44  N6  UNL     1      71.045  57.106  13.688  1.00  0.00    -0.234 N
ATOM     45  H62 UNL     1      70.101  56.753  13.533  1.00  0.00     0.174 HD
ATOM     46  H61 UNL     1      71.374  57.830  13.049  1.00  0.00     0.174 HD
ENDBRANCH  40  44
ENDBRANCH  33  35
ENDBRANCH   1  33
TORSDOF 15
ENDMDL