MODEL 2
REMARK VINA RESULT: -9.305684812      1.725      1.954
REMARK  14 active torsions:
REMARK  status: ('A' for Active; 'I' for Inactive)
REMARK    1  A    between atoms: C2_2  and  C3_3
REMARK    2  A    between atoms: C3_3  and  C4_4
REMARK    3  A    between atoms: C4_4  and  C5_5
REMARK    4  A    between atoms: C5_5  and  C6_6
REMARK       I    between atoms: C6_6  and  N1_8
REMARK    5  A    between atoms: N1_8  and  C7_10
REMARK    6  A    between atoms: C9_14  and  C10_15
REMARK    7  A    between atoms: C10_15  and  C11_16
REMARK       I    between atoms: C11_16  and  N3_18
REMARK    8  A    between atoms: N3_18  and  C12_20
REMARK    9  A    between atoms: C13_25  and  C14_26
REMARK   10  A    between atoms: C14_26  and  C15_27
REMARK   11  A    between atoms: C15_27  and  C16_28
REMARK   12  A    between atoms: C16_28  and  C17_29
REMARK   13  A    between atoms: C17_29  and  C18_30
REMARK       I    between atoms: N8_36  and  C20_38
REMARK   14  A    between atoms: C20_38  and  C21_40
ROOT
HETATM    1  C12 UNL     1      72.335  56.289  17.063  1.00  0.00     0.167 A
HETATM    2  N4  UNL     1      71.996  55.905  18.297  1.00  0.00    -0.279 N
ATOM      3  H4  UNL     1      72.649  55.375  18.874  1.00  0.00     0.189 HD
HETATM    4  N5  UNL     1      70.846  56.211  18.739  1.00  0.00    -0.296 N
ATOM      5  H5  UNL     1      70.575  55.923  19.680  1.00  0.00     0.187 HD
HETATM    6  C13 UNL     1      69.996  56.896  17.999  1.00  0.00     0.069 A
HETATM    7  S2  UNL     1      70.906  57.118  16.570  1.00  0.00    -0.038 SA
ENDROOT
BRANCH   1   8
HETATM    8  N3  UNL     1      73.445  56.107  16.397  1.00  0.00    -0.306 N
HETATM    9  C11 UNL     1      73.743  54.785  15.993  1.00  0.00     0.228 C
HETATM   10  O2  UNL     1      73.900  53.932  16.933  1.00  0.00    -0.273 OA
ATOM     11  H3  UNL     1      74.069  56.885  16.179  1.00  0.00     0.171 HD
BRANCH   9  12
HETATM   12  C10 UNL     1      73.873  54.390  14.568  1.00  0.00     0.150 C
BRANCH  12  13
HETATM   13  C9  UNL     1      72.591  53.693  14.180  1.00  0.00     0.010 A
HETATM   14  C8  UNL     1      71.303  54.153  14.263  1.00  0.00     0.105 A
HETATM   15  N2  UNL     1      70.349  53.358  13.866  1.00  0.00    -0.345 N
HETATM   16  C7  UNL     1      70.672  52.151  13.405  1.00  0.00     0.151 A
ATOM     17  H2  UNL     1      69.374  53.656  13.907  1.00  0.00     0.167 HD
HETATM   18  S3  UNL     1      72.371  52.129  13.533  1.00  0.00    -0.057 SA
BRANCH  16  19
HETATM   19  N1  UNL     1      69.860  51.214  12.964  1.00  0.00    -0.307 N
HETATM   20  C6  UNL     1      68.486  51.411  13.231  1.00  0.00     0.223 C
HETATM   21  O1  UNL     1      67.713  51.766  12.319  1.00  0.00    -0.273 OA
ATOM     22  H1  UNL     1      70.202  50.397  12.460  1.00  0.00     0.171 HD
BRANCH  20  23
HETATM   23  C5  UNL     1      67.972  51.194  14.592  1.00  0.00     0.103 C
BRANCH  23  24
HETATM   24  C4  UNL     1      67.210  52.406  15.035  1.00  0.00     0.009 C
BRANCH  24  25
HETATM   25  C3  UNL     1      67.740  53.031  16.291  1.00  0.00     0.000 C
BRANCH  25  26
HETATM   26  C2  UNL     1      67.220  54.424  16.512  1.00  0.00    -0.005 C
HETATM   27  C1  UNL     1      67.666  55.271  15.325  1.00  0.00     0.005 C
ENDBRANCH  25  26
ENDBRANCH  24  25
ENDBRANCH  23  24
ENDBRANCH  20  23
ENDBRANCH  16  19
ENDBRANCH  12  13
ENDBRANCH   9  12
ENDBRANCH   1   8
BRANCH   6  28
HETATM   28  C14 UNL     1      68.622  57.344  18.352  1.00  0.00     0.066 C
BRANCH  28  29
HETATM   29  C15 UNL     1      68.465  58.792  18.579  1.00  0.00     0.007 C
BRANCH  29  30
HETATM   30  C16 UNL     1      68.565  59.287  19.972  1.00  0.00     0.007 C
BRANCH  30  31
HETATM   31  C17 UNL     1      69.001  60.730  20.069  1.00  0.00     0.066 C
BRANCH  31  32
HETATM   32  C18 UNL     1      70.472  60.857  19.754  1.00  0.00     0.069 A
HETATM   33  N6  UNL     1      71.127  61.954  19.406  1.00  0.00    -0.296 N
HETATM   34  N7  UNL     1      72.370  61.910  19.168  1.00  0.00    -0.279 N
ATOM     35  H6  UNL     1      70.627  62.840  19.328  1.00  0.00     0.187 HD
HETATM   36  C19 UNL     1      73.005  60.741  19.276  1.00  0.00     0.167 A
ATOM     37  H7  UNL     1      72.878  62.753  18.900  1.00  0.00     0.189 HD
HETATM   38  N8  UNL     1      74.282  60.517  19.066  1.00  0.00    -0.306 N
HETATM   39  S1  UNL     1      71.729  59.700  19.736  1.00  0.00    -0.038 SA
HETATM   40  C20 UNL     1      74.789  59.222  19.224  1.00  0.00     0.227 C
ATOM     41  H8  UNL     1      74.899  61.281  18.790  1.00  0.00     0.171 HD
HETATM   42  O3  UNL     1      74.249  58.224  18.719  1.00  0.00    -0.273 OA
BRANCH  40  43
HETATM   43  C21 UNL     1      76.029  59.032  20.032  1.00  0.00     0.070 C
HETATM   44  C22 UNL     1      75.696  58.518  21.421  1.00  0.00     0.019 C
HETATM   45  C23 UNL     1      76.662  60.415  20.188  1.00  0.00     0.019 C
ENDBRANCH  40  43
ENDBRANCH  31  32
ENDBRANCH  30  31
ENDBRANCH  29  30
ENDBRANCH  28  29
ENDBRANCH   6  28
TORSDOF 14
ENDMDL