MODEL 5
REMARK VINA RESULT: -8.158628395      1.013      1.384
REMARK  14 active torsions:
REMARK  status: ('A' for Active; 'I' for Inactive)
REMARK    1  A    between atoms: C2_2  and  C3_3
REMARK    2  A    between atoms: C5_5  and  C6_6
REMARK    3  A    between atoms: C9_10  and  C10_11
REMARK    4  A    between atoms: C10_11  and  C11_13
REMARK    5  A    between atoms: C11_13  and  C12_14
REMARK    6  A    between atoms: C12_14  and  C13_15
REMARK    7  A    between atoms: C14_16  and  C15_17
REMARK    8  A    between atoms: N1_19  and  C17_20
REMARK    9  A    between atoms: C17_20  and  C18_21
REMARK       I    between atoms: C18_21  and  N2_23
REMARK   10  A    between atoms: N2_23  and  C19_25
REMARK   11  A    between atoms: C19_25  and  C20_26
REMARK   12  A    between atoms: C20_26  and  N3_27
REMARK       I    between atoms: N4_33  and  C24_35
REMARK       I    between atoms: C24_35  and  N5_37
REMARK   13  A    between atoms: N5_37  and  C25_39
REMARK   14  A    between atoms: C29_43  and  O7_44
ROOT
HETATM    1  C12 UNL     1      70.133  59.534  19.824  1.00  0.00     0.020 C
HETATM    2  N4  UNL     1      71.137  60.229  20.137  1.00  0.00    -0.312 N
ATOM      3  H4  UNL     1      70.990  61.002  20.786  1.00  0.00     0.170 HD
HETATM    4  C24 UNL     1      72.440  60.023  19.661  1.00  0.00     0.321 C
HETATM    5  O6  UNL     1      72.711  59.918  18.455  1.00  0.00    -0.247 OA
HETATM    6  N5  UNL     1      73.523  59.925  20.581  1.00  0.00    -0.335 N
ATOM      7  H5  UNL     1      73.315  60.005  21.577  1.00  0.00     0.165 HD
ENDROOT
BRANCH   1   8
HETATM    8  C11 UNL     1      68.809  59.860  20.398  1.00  0.00     0.138 C
BRANCH   8   9
HETATM    9  C10 UNL     1      68.720  61.193  21.017  1.00  0.00     0.163 C
HETATM   10  O2  UNL     1      68.891  62.191  20.378  1.00  0.00    -0.295 OA
BRANCH   9  11
HETATM   11  C9  UNL     1      68.414  61.366  22.472  1.00  0.00     0.222 C
HETATM   12  O1  UNL     1      69.222  60.586  23.265  1.00  0.00    -0.365 OA
HETATM   13  C5  UNL     1      70.039  61.458  23.990  1.00  0.00     0.165 C
HETATM   14  C3  UNL     1      69.145  62.656  24.281  1.00  0.00     0.032 C
HETATM   15  C4  UNL     1      69.902  63.895  24.609  1.00  0.00     0.025 C
HETATM   16  C29 UNL     1      68.491  62.799  22.924  1.00  0.00     0.169 C
BRANCH  13  17
HETATM   17  C6  UNL     1      70.526  60.768  25.188  1.00  0.00    -0.063 C
HETATM   18  C7  UNL     1      69.972  59.644  25.619  1.00  0.00     0.016 C
HETATM   19  C8  UNL     1      71.673  61.284  26.010  1.00  0.00     0.045 C
ENDBRANCH  13  17
BRANCH  14  20
HETATM   20  C2  UNL     1      68.120  62.288  25.289  1.00  0.00    -0.022 C
HETATM   21  C1  UNL     1      67.937  62.965  26.393  1.00  0.00     0.008 C
ENDBRANCH  14  20
BRANCH  16  22
HETATM   22  O7  UNL     1      67.237  63.394  23.012  1.00  0.00    -0.391 OA
ATOM     23  H7  UNL     1      67.147  63.915  23.801  1.00  0.00     0.210 HD
ENDBRANCH  16  22
ENDBRANCH   9  11
ENDBRANCH   8   9
ENDBRANCH   1   8
BRANCH   1  24
HETATM   24  C13 UNL     1      70.189  58.377  18.927  1.00  0.00     0.026 C
HETATM   25  C14 UNL     1      69.345  58.284  17.929  1.00  0.00     0.021 C
BRANCH  25  26
HETATM   26  C15 UNL     1      69.381  57.146  17.030  1.00  0.00     0.059 A
HETATM   27  C16 UNL     1      68.627  56.002  17.027  1.00  0.00     0.135 A
HETATM   28  N1  UNL     1      69.043  55.262  15.991  1.00  0.00    -0.251 N
HETATM   29  O4  UNL     1      70.000  55.868  15.360  1.00  0.00    -0.192 OA
HETATM   30  C23 UNL     1      70.243  56.999  15.938  1.00  0.00     0.316 A
HETATM   31  O5  UNL     1      71.111  57.837  15.581  1.00  0.00    -0.257 OA
BRANCH  28  32
HETATM   32  C17 UNL     1      68.451  53.967  15.639  1.00  0.00     0.258 C
BRANCH  32  33
HETATM   33  C18 UNL     1      69.427  53.251  14.724  1.00  0.00     0.241 C
HETATM   34  O3  UNL     1      68.930  52.913  13.630  1.00  0.00    -0.271 OA
HETATM   35  N2  UNL     1      70.745  53.015  15.118  1.00  0.00    -0.338 N
ATOM     36  H2  UNL     1      70.994  53.347  16.050  1.00  0.00     0.167 HD
BRANCH  35  37
HETATM   37  C19 UNL     1      71.777  52.382  14.400  1.00  0.00     0.093 C
BRANCH  37  38
HETATM   38  C20 UNL     1      73.085  52.134  15.032  1.00  0.00     0.315 C
BRANCH  38  39
HETATM   39  N3  UNL     1      74.060  53.169  14.936  1.00  0.00     0.084 N
HETATM   40  C21 UNL     1      73.576  54.103  13.883  1.00  0.00     0.309 C
HETATM   41  C22 UNL     1      73.964  53.976  16.195  1.00  0.00     0.309 C
ENDBRANCH  38  39
ENDBRANCH  37  38
ENDBRANCH  35  37
ENDBRANCH  32  33
ENDBRANCH  28  32
ENDBRANCH  25  26
ENDBRANCH   1  24
BRANCH   6  42
HETATM   42  C25 UNL     1      74.892  59.720  20.191  1.00  0.00     0.023 C
HETATM   43  C26 UNL     1      75.809  59.517  21.363  1.00  0.00     0.037 C
HETATM   44  C27 UNL     1      75.388  60.939  19.438  1.00  0.00     0.037 C
HETATM   45  C28 UNL     1      74.941  58.484  19.317  1.00  0.00     0.037 C
ENDBRANCH   6  42
TORSDOF 14
ENDMDL