MODEL 1
REMARK VINA RESULT: -9.095212321      0.000      0.000
REMARK  15 active torsions:
REMARK  status: ('A' for Active; 'I' for Inactive)
REMARK    1  A    between atoms: C2_2  and  C4_4
REMARK    2  A    between atoms: C4_4  and  C5_5
REMARK       I    between atoms: C5_5  and  N1_7
REMARK    3  A    between atoms: N1_7  and  C6_9
REMARK    4  A    between atoms: C7_14  and  C8_15
REMARK    5  A    between atoms: C8_15  and  C9_16
REMARK    6  A    between atoms: C9_16  and  C10_17
REMARK    7  A    between atoms: C10_17  and  C11_18
REMARK    8  A    between atoms: C11_18  and  C12_19
REMARK       I    between atoms: N6_25  and  C14_27
REMARK    9  A    between atoms: C14_27  and  C15_29
REMARK   10  A    between atoms: C15_29  and  C16_30
REMARK   11  A    between atoms: C15_29  and  N7_36
REMARK   12  A    between atoms: C16_30  and  C17_31
REMARK   13  A    between atoms: C17_31  and  C18_32
REMARK       I    between atoms: N7_36  and  C22_38
REMARK       I    between atoms: C22_38  and  N8_40
REMARK   14  A    between atoms: N8_40  and  N9_42
REMARK   15  A    between atoms: N9_42  and  O4_44
ROOT
HETATM    1  C12 UNL     1      72.694  55.002  14.990  1.00  0.00     0.069 A
HETATM    2  N4  UNL     1      72.977  55.256  16.264  1.00  0.00    -0.296 N
ATOM      3  H4  UNL     1      73.733  54.748  16.725  1.00  0.00     0.187 HD
HETATM    4  N5  UNL     1      72.321  56.118  16.908  1.00  0.00    -0.279 N
ATOM      5  H5  UNL     1      72.546  56.305  17.885  1.00  0.00     0.189 HD
HETATM    6  C13 UNL     1      71.338  56.784  16.317  1.00  0.00     0.167 A
HETATM    7  N6  UNL     1      70.565  57.735  16.819  1.00  0.00    -0.304 N
ATOM      8  H6  UNL     1      69.827  58.187  16.279  1.00  0.00     0.171 HD
HETATM    9  C14 UNL     1      70.844  58.073  18.158  1.00  0.00     0.246 C
HETATM   10  O2  UNL     1      70.531  57.169  19.018  1.00  0.00    -0.271 OA
HETATM   11  S1  UNL     1      71.384  56.105  14.746  1.00  0.00    -0.038 SA
ENDROOT
BRANCH   9  12
HETATM   12  C15 UNL     1      71.440  59.295  18.683  1.00  0.00     0.178 C
BRANCH  12  13
HETATM   13  C16 UNL     1      72.910  59.458  18.524  1.00  0.00     0.035 C
BRANCH  13  14
HETATM   14  C17 UNL     1      73.776  58.579  19.360  1.00  0.00     0.011 C
BRANCH  14  15
HETATM   15  C18 UNL     1      74.905  59.374  20.012  1.00  0.00    -0.051 C
HETATM   16  C19 UNL     1      75.972  59.583  18.967  1.00  0.00     0.014 C
HETATM   17  C20 UNL     1      74.446  60.713  20.511  1.00  0.00     0.014 C
HETATM   18  C21 UNL     1      75.504  58.577  21.157  1.00  0.00     0.014 C
ENDBRANCH  14  15
ENDBRANCH  13  14
ENDBRANCH  12  13
BRANCH  12  19
HETATM   19  N7  UNL     1      70.968  59.622  20.010  1.00  0.00    -0.328 N
HETATM   20  C22 UNL     1      69.893  60.458  20.343  1.00  0.00     0.338 C
HETATM   21  O3  UNL     1      69.224  61.011  19.441  1.00  0.00    -0.245 OA
HETATM   22  N8  UNL     1      69.528  60.706  21.700  1.00  0.00    -0.228 N
HETATM   23  C23 UNL     1      68.412  61.576  21.975  1.00  0.00     0.185 C
ATOM     24  H7  UNL     1      71.473  59.199  20.788  1.00  0.00     0.165 HD
BRANCH  22  25
HETATM   25  N9  UNL     1      70.274  60.096  22.728  1.00  0.00    -0.204 N
ATOM     26  H9  UNL     1      71.285  60.220  22.784  1.00  0.00     0.216 HD
BRANCH  25  27
HETATM   27  O4  UNL     1      69.674  59.407  23.561  1.00  0.00    -0.274 OA
ATOM     28  H4  UNL     1      70.121  58.657  23.935  1.00  0.00     0.246 HD
ENDBRANCH  25  27
ENDBRANCH  22  25
ENDBRANCH  12  19
ENDBRANCH   9  12
BRANCH   1  29
HETATM   29  C11 UNL     1      73.320  54.050  14.039  1.00  0.00     0.066 C
BRANCH  29  30
HETATM   30  C10 UNL     1      74.009  52.941  14.748  1.00  0.00     0.007 C
BRANCH  30  31
HETATM   31  C9  UNL     1      73.388  51.596  14.518  1.00  0.00     0.007 C
BRANCH  31  32
HETATM   32  C8  UNL     1      72.559  51.561  13.250  1.00  0.00     0.066 C
BRANCH  32  33
HETATM   33  C7  UNL     1      71.097  51.375  13.570  1.00  0.00     0.069 A
HETATM   34  N3  UNL     1      70.407  50.245  13.636  1.00  0.00    -0.296 N
HETATM   35  N2  UNL     1      69.168  50.267  13.904  1.00  0.00    -0.279 N
ATOM     36  H3  UNL     1      70.875  49.355  13.470  1.00  0.00     0.187 HD
HETATM   37  C6  UNL     1      68.568  51.437  14.119  1.00  0.00     0.167 A
ATOM     38  H2  UNL     1      68.636  49.398  13.954  1.00  0.00     0.189 HD
HETATM   39  S2  UNL     1      69.883  52.530  13.917  1.00  0.00    -0.038 SA
BRANCH  37  40
HETATM   40  N1  UNL     1      67.322  51.705  14.403  1.00  0.00    -0.306 N
HETATM   41  C5  UNL     1      66.662  52.689  13.663  1.00  0.00     0.224 C
HETATM   42  O1  UNL     1      66.550  52.567  12.414  1.00  0.00    -0.273 OA
ATOM     43  H1  UNL     1      66.840  51.205  15.150  1.00  0.00     0.171 HD
BRANCH  41  44
HETATM   44  C4  UNL     1      66.105  53.869  14.393  1.00  0.00     0.107 C
BRANCH  44  45
HETATM   45  C2  UNL     1      67.047  54.377  15.468  1.00  0.00    -0.014 C
HETATM   46  C1  UNL     1      67.747  55.633  15.064  1.00  0.00     0.010 C
HETATM   47  C3  UNL     1      66.367  54.484  16.810  1.00  0.00     0.010 C
ENDBRANCH  44  45
ENDBRANCH  41  44
ENDBRANCH  37  40
ENDBRANCH  32  33
ENDBRANCH  31  32
ENDBRANCH  30  31
ENDBRANCH  29  30
ENDBRANCH   1  29
TORSDOF 15
ENDMDL