MODEL 5
REMARK VINA RESULT: -9.287001779      1.149      1.333
REMARK  13 active torsions:
REMARK  status: ('A' for Active; 'I' for Inactive)
REMARK       I    between atoms: C2_2  and  N1_4
REMARK    1  A    between atoms: N1_4  and  C3_6
REMARK    2  A    between atoms: C3_6  and  C4_7
REMARK       I    between atoms: C4_7  and  N2_9
REMARK    3  A    between atoms: N2_9  and  C5_11
REMARK    4  A    between atoms: C6_16  and  C7_17
REMARK    5  A    between atoms: C7_17  and  C8_18
REMARK    6  A    between atoms: C8_18  and  C9_19
REMARK    7  A    between atoms: C9_19  and  C10_20
REMARK    8  A    between atoms: C10_20  and  C11_21
REMARK       I    between atoms: N7_27  and  C13_29
REMARK    9  A    between atoms: C13_29  and  C14_31
REMARK   10  A    between atoms: C14_31  and  C15_32
REMARK   11  A    between atoms: C21_38  and  O4_39
REMARK   12  A    between atoms: O4_39  and  C22_40
REMARK   13  A    between atoms: C22_40  and  C23_41
ROOT
HETATM    1  C11 UNL     1      72.374  55.101  15.024  1.00  0.00     0.069 A
HETATM    2  N5  UNL     1      71.329  55.867  14.777  1.00  0.00    -0.296 N
ATOM      3  H5  UNL     1      71.047  56.036  13.812  1.00  0.00     0.187 HD
HETATM    4  N6  UNL     1      70.671  56.394  15.721  1.00  0.00    -0.279 N
ATOM      5  H6  UNL     1      69.865  56.985  15.517  1.00  0.00     0.189 HD
HETATM    6  C12 UNL     1      71.039  56.171  16.981  1.00  0.00     0.167 A
HETATM    7  N7  UNL     1      70.527  56.599  18.092  1.00  0.00    -0.306 N
ATOM      8  H7  UNL     1      70.941  56.325  18.983  1.00  0.00     0.171 HD
HETATM    9  C13 UNL     1      69.398  57.441  18.069  1.00  0.00     0.228 C
HETATM   10  O3  UNL     1      68.273  56.899  18.306  1.00  0.00    -0.273 OA
HETATM   11  S1  UNL     1      72.410  55.142  16.749  1.00  0.00    -0.038 SA
ENDROOT
BRANCH   1  12
HETATM   12  C10 UNL     1      73.308  54.375  14.093  1.00  0.00     0.066 C
BRANCH  12  13
HETATM   13  C9  UNL     1      74.127  53.348  14.798  1.00  0.00     0.007 C
BRANCH  13  14
HETATM   14  C8  UNL     1      73.255  52.169  15.143  1.00  0.00     0.007 C
BRANCH  14  15
HETATM   15  C7  UNL     1      73.236  51.161  14.043  1.00  0.00     0.066 C
BRANCH  15  16
HETATM   16  C6  UNL     1      71.799  50.900  13.652  1.00  0.00     0.069 A
HETATM   17  N4  UNL     1      71.074  49.831  13.921  1.00  0.00    -0.296 N
HETATM   18  N3  UNL     1      69.885  49.724  13.534  1.00  0.00    -0.279 N
ATOM     19  H4  UNL     1      71.492  49.072  14.458  1.00  0.00     0.187 HD
HETATM   20  C5  UNL     1      69.345  50.753  12.815  1.00  0.00     0.167 A
ATOM     21  H3  UNL     1      69.337  48.890  13.749  1.00  0.00     0.189 HD
HETATM   22  S2  UNL     1      70.681  51.830  12.770  1.00  0.00    -0.038 SA
BRANCH  20  23
HETATM   23  N2  UNL     1      68.148  50.792  12.348  1.00  0.00    -0.305 N
HETATM   24  C4  UNL     1      67.067  51.289  13.056  1.00  0.00     0.241 C
HETATM   25  O2  UNL     1      65.931  51.298  12.461  1.00  0.00    -0.271 OA
ATOM     26  H2  UNL     1      67.986  50.437  11.406  1.00  0.00     0.171 HD
BRANCH  24  27
HETATM   27  C3  UNL     1      67.101  51.808  14.433  1.00  0.00     0.225 C
BRANCH  27  28
HETATM   28  N1  UNL     1      66.837  53.212  14.512  1.00  0.00    -0.353 N
HETATM   29  C2  UNL     1      67.794  54.109  15.010  1.00  0.00     0.213 C
HETATM   30  C1  UNL     1      67.449  55.564  15.072  1.00  0.00     0.117 C
HETATM   31  O1  UNL     1      68.922  53.788  15.408  1.00  0.00    -0.274 OA
ATOM     32  H1  UNL     1      65.934  53.568  14.199  1.00  0.00     0.162 HD
ENDBRANCH  27  28
ENDBRANCH  24  27
ENDBRANCH  20  23
ENDBRANCH  15  16
ENDBRANCH  14  15
ENDBRANCH  13  14
ENDBRANCH  12  13
ENDBRANCH   1  12
BRANCH   9  33
HETATM   33  C14 UNL     1      69.419  58.878  17.798  1.00  0.00     0.144 C
BRANCH  33  34
HETATM   34  C15 UNL     1      69.867  59.691  18.935  1.00  0.00    -0.015 A
HETATM   35  C16 UNL     1      68.991  60.233  19.829  1.00  0.00     0.017 A
HETATM   36  C17 UNL     1      69.422  60.995  20.897  1.00  0.00    -0.061 A
HETATM   37  C18 UNL     1      68.472  61.585  21.877  1.00  0.00     0.048 C
HETATM   38  C19 UNL     1      70.784  61.207  21.050  1.00  0.00     0.009 A
HETATM   39  C20 UNL     1      71.700  60.672  20.160  1.00  0.00     0.038 A
HETATM   40  C21 UNL     1      71.262  59.902  19.083  1.00  0.00     0.075 A
BRANCH  40  41
HETATM   41  O4  UNL     1      72.018  59.321  18.144  1.00  0.00    -0.347 OA
BRANCH  41  42
HETATM   42  C22 UNL     1      73.312  58.934  18.076  1.00  0.00     0.203 C
BRANCH  42  43
HETATM   43  C23 UNL     1      74.000  58.542  19.334  1.00  0.00     0.001 C
HETATM   44  C24 UNL     1      75.059  59.105  19.858  1.00  0.00    -0.089 C
HETATM   45  C25 UNL     1      75.603  58.559  21.140  1.00  0.00     0.042 C
HETATM   46  C26 UNL     1      75.778  60.246  19.242  1.00  0.00     0.042 C
ENDBRANCH  42  43
ENDBRANCH  41  42
ENDBRANCH  40  41
ENDBRANCH  33  34
ENDBRANCH   9  33
TORSDOF 13
ENDMDL