MODEL 3
REMARK VINA RESULT: -8.025336629      2.251     10.373
REMARK  16 active torsions:
REMARK  status: ('A' for Active; 'I' for Inactive)
REMARK    1  A    between atoms: C2_2  and  C3_3
REMARK    2  A    between atoms: C3_3  and  N1_4
REMARK    3  A    between atoms: C3_3  and  C5_7
REMARK    4  A    between atoms: C5_7  and  O1_8
REMARK    5  A    between atoms: C5_7  and  N2_10
REMARK    6  A    between atoms: N2_10  and  C6_11
REMARK    7  A    between atoms: C7_14  and  C8_15
REMARK    8  A    between atoms: C8_15  and  C10_17
REMARK    9  A    between atoms: C10_17  and  C11_18
REMARK   10  A    between atoms: C11_18  and  C12_20
REMARK       I    between atoms: C12_20  and  N4_22
REMARK   11  A    between atoms: N4_22  and  C13_23
REMARK   12  A    between atoms: N4_22  and  C20_33
REMARK   13  A    between atoms: C13_23  and  C14_24
REMARK       I    between atoms: C14_24  and  N5_26
REMARK   14  A    between atoms: N5_26  and  C15_28
REMARK   15  A    between atoms: C15_28  and  C16_29
REMARK   16  A    between atoms: C20_33  and  C21_34
ROOT
HETATM    1  C11 UNL     1      69.432  57.349  18.561  1.00  0.00     0.217 C
HETATM    2  O2  UNL     1      68.595  57.457  19.549  1.00  0.00    -0.287 OA
ENDROOT
BRANCH   1   3
HETATM    3  C10 UNL     1      69.825  58.653  17.975  1.00  0.00     0.099 C
BRANCH   3   4
HETATM    4  C8  UNL     1      69.186  59.833  18.611  1.00  0.00     0.040 C
HETATM    5  C9  UNL     1      68.810  60.879  17.569  1.00  0.00     0.017 C
BRANCH   4   6
HETATM    6  C7  UNL     1      70.210  60.489  19.566  1.00  0.00     0.029 A
HETATM    7  N3  UNL     1      71.471  60.505  19.391  1.00  0.00    -0.327 N
HETATM    8  C6  UNL     1      72.278  61.084  20.341  1.00  0.00     0.225 A
ATOM      9  H3  UNL     1      71.879  60.092  18.551  1.00  0.00     0.169 HD
HETATM   10  S2  UNL     1      71.077  61.596  21.487  1.00  0.00    -0.042 SA
HETATM   11  C25 UNL     1      69.683  61.054  20.703  1.00  0.00     0.006 A
HETATM   12  C26 UNL     1      68.267  61.176  21.165  1.00  0.00     0.058 C
BRANCH   8  13
HETATM   13  N2  UNL     1      73.507  61.144  20.334  1.00  0.00    -0.358 NA
BRANCH  13  14
HETATM   14  C5  UNL     1      74.794  61.207  20.330  1.00  0.00     0.215 C
BRANCH  14  15
HETATM   15  C3  UNL     1      75.710  60.486  21.251  1.00  0.00     0.166 C
BRANCH  15  16
HETATM   16  C2  UNL     1      75.708  58.993  21.038  1.00  0.00     0.030 C
HETATM   17  C1  UNL     1      75.856  58.595  19.605  1.00  0.00     0.007 C
ENDBRANCH  15  16
BRANCH  15  18
HETATM   18  N1  UNL     1      75.330  60.671  22.644  1.00  0.00    -0.414 N
HETATM   19  C4  UNL     1      75.338  61.985  23.145  1.00  0.00     0.140 C
ATOM     20  H1  UNL     1      75.068  59.880  23.232  1.00  0.00     0.153 HD
ENDBRANCH  15  18
ENDBRANCH  14  15
BRANCH  14  21
HETATM   21  O1  UNL     1      75.419  61.947  19.457  1.00  0.00    -0.337 OA
ATOM     22  H1  UNL     1      74.935  62.727  19.211  1.00  0.00     0.220 HD
ENDBRANCH  14  21
ENDBRANCH  13  14
ENDBRANCH   8  13
ENDBRANCH   4   6
ENDBRANCH   3   4
ENDBRANCH   1   3
BRANCH   1  23
HETATM   23  C12 UNL     1      69.906  56.062  18.117  1.00  0.00     0.290 C
HETATM   24  O3  UNL     1      70.814  55.509  18.792  1.00  0.00    -0.264 OA
HETATM   25  N4  UNL     1      69.455  55.344  16.991  1.00  0.00    -0.331 N
BRANCH  25  26
HETATM   26  C13 UNL     1      68.368  55.823  16.198  1.00  0.00     0.229 C
BRANCH  26  27
HETATM   27  C14 UNL     1      67.397  54.780  15.832  1.00  0.00     0.235 C
HETATM   28  O4  UNL     1      66.493  54.350  16.551  1.00  0.00    -0.272 OA
HETATM   29  N5  UNL     1      67.503  54.192  14.513  1.00  0.00    -0.359 N
ATOM     30  H5  UNL     1      68.235  54.514  13.880  1.00  0.00     0.162 HD
BRANCH  29  31
HETATM   31  C15 UNL     1      66.595  53.163  14.079  1.00  0.00     0.131 C
BRANCH  31  32
HETATM   32  C16 UNL     1      67.396  51.932  13.725  1.00  0.00    -0.035 C
HETATM   33  C17 UNL     1      67.665  51.153  14.991  1.00  0.00     0.016 C
HETATM   34  C18 UNL     1      66.707  51.080  12.693  1.00  0.00     0.016 C
HETATM   35  C19 UNL     1      68.726  52.448  13.157  1.00  0.00     0.016 C
ENDBRANCH  31  32
ENDBRANCH  29  31
ENDBRANCH  26  27
ENDBRANCH  25  26
BRANCH  25  36
HETATM   36  C20 UNL     1      70.078  54.059  16.636  1.00  0.00     0.184 C
BRANCH  36  37
HETATM   37  C21 UNL     1      71.387  54.255  15.908  1.00  0.00     0.034 A
HETATM   38  C22 UNL     1      71.408  54.662  14.585  1.00  0.00     0.078 A
HETATM   39  S1  UNL     1      73.086  54.720  14.269  1.00  0.00    -0.087 SA
HETATM   40  C23 UNL     1      73.654  54.234  15.799  1.00  0.00     0.047 A
HETATM   41  C24 UNL     1      75.075  54.058  16.275  1.00  0.00     0.076 C
HETATM   42  N6  UNL     1      72.531  54.052  16.472  1.00  0.00    -0.356 N
ATOM     43  H6  UNL     1      72.569  53.749  17.446  1.00  0.00     0.166 HD
ENDBRANCH  36  37
ENDBRANCH  25  36
ENDBRANCH   1  23
TORSDOF 16
ENDMDL