MODEL 1
REMARK VINA RESULT: -9.515151430      0.000      0.000
REMARK  12 active torsions:
REMARK  status: ('A' for Active; 'I' for Inactive)
REMARK    1  A    between atoms: O1_2  and  C2_3
REMARK    2  A    between atoms: C2_3  and  C3_4
REMARK    3  A    between atoms: N1_6  and  C5_7
REMARK    4  A    between atoms: C5_7  and  C6_8
REMARK    5  A    between atoms: C7_9  and  C8_10
REMARK    6  A    between atoms: C9_18  and  C10_19
REMARK    7  A    between atoms: C10_19  and  C11_20
REMARK    8  A    between atoms: C11_20  and  C12_21
REMARK    9  A    between atoms: C12_21  and  C13_22
REMARK   10  A    between atoms: C13_22  and  C14_23
REMARK       I    between atoms: N7_29  and  C16_31
REMARK   11  A    between atoms: C16_31  and  C17_33
REMARK   12  A    between atoms: C17_33  and  C18_34
ROOT
HETATM    1  C10 UNL     1      73.995  59.005  18.421  1.00  0.00     0.048 C
ENDROOT
BRANCH   1   2
HETATM    2  C9  UNL     1      74.320  59.725  19.678  1.00  0.00     0.010 A
HETATM    3  C6  UNL     1      73.836  60.847  20.304  1.00  0.00     0.005 A
HETATM    4  C7  UNL     1      74.463  61.225  21.438  1.00  0.00     0.088 A
HETATM    5  N4  UNL     1      75.499  60.446  21.848  1.00  0.00    -0.323 N
HETATM    6  S1  UNL     1      75.622  59.249  20.724  1.00  0.00    -0.018 SA
ATOM      7  H4  UNL     1      76.077  60.576  22.678  1.00  0.00     0.174 HD
BRANCH   3   8
HETATM    8  C5  UNL     1      72.566  61.497  19.780  1.00  0.00     0.170 C
BRANCH   8   9
HETATM    9  N1  UNL     1      71.342  60.847  20.119  1.00  0.00    -0.359 N
HETATM   10  C4  UNL     1      70.619  60.013  19.374  1.00  0.00     0.118 A
HETATM   11  C3  UNL     1      69.480  59.334  19.789  1.00  0.00     0.048 A
HETATM   12  N8  UNL     1      69.069  59.533  21.050  1.00  0.00    -0.365 N
HETATM   13  C27 UNL     1      69.779  60.379  21.853  1.00  0.00     0.105 A
ATOM     14  H8  UNL     1      68.238  59.058  21.405  1.00  0.00     0.165 HD
HETATM   15  C26 UNL     1      70.890  61.019  21.393  1.00  0.00     0.107 A
BRANCH  11  16
HETATM   16  C2  UNL     1      68.761  58.428  18.859  1.00  0.00     0.225 C
BRANCH  16  17
HETATM   17  O1  UNL     1      69.213  57.128  18.898  1.00  0.00    -0.390 OA
HETATM   18  C1  UNL     1      69.017  56.606  17.599  1.00  0.00     0.201 C
ENDBRANCH  16  17
ENDBRANCH  11  16
ENDBRANCH   8   9
ENDBRANCH   3   8
BRANCH   4  19
HETATM   19  C8  UNL     1      74.265  62.461  22.246  1.00  0.00     0.138 C
HETATM   20  N2  UNL     1      74.705  63.608  22.026  1.00  0.00    -0.386 N
ATOM     21  H22 UNL     1      75.269  63.671  21.178  1.00  0.00     0.157 HD
ATOM     22  H21 UNL     1      74.570  64.455  22.579  1.00  0.00     0.157 HD
HETATM   23  N3  UNL     1      73.453  62.370  23.466  1.00  0.00    -0.081 NA
ENDBRANCH   4  19
ENDBRANCH   1   2
BRANCH   1  24
HETATM   24  C11 UNL     1      73.344  57.654  18.664  1.00  0.00     0.006 C
BRANCH  24  25
HETATM   25  C12 UNL     1      72.664  57.126  17.442  1.00  0.00     0.007 C
BRANCH  25  26
HETATM   26  C13 UNL     1      73.651  56.392  16.590  1.00  0.00     0.066 C
BRANCH  26  27
HETATM   27  C14 UNL     1      73.009  55.242  15.852  1.00  0.00     0.069 A
HETATM   28  N5  UNL     1      72.109  55.320  14.890  1.00  0.00    -0.296 N
HETATM   29  N6  UNL     1      71.646  54.269  14.350  1.00  0.00    -0.279 N
ATOM     30  H5  UNL     1      71.783  56.233  14.576  1.00  0.00     0.187 HD
HETATM   31  C15 UNL     1      72.072  53.074  14.761  1.00  0.00     0.167 A
ATOM     32  H6  UNL     1      70.952  54.338  13.605  1.00  0.00     0.189 HD
HETATM   33  N7  UNL     1      71.784  51.874  14.407  1.00  0.00    -0.306 N
HETATM   34  S2  UNL     1      73.205  53.557  15.998  1.00  0.00    -0.038 SA
HETATM   35  C16 UNL     1      70.938  51.349  13.478  1.00  0.00     0.227 C
ATOM     36  H7  UNL     1      72.296  51.164  14.931  1.00  0.00     0.171 HD
HETATM   37  O2  UNL     1      70.902  50.067  13.380  1.00  0.00    -0.273 OA
BRANCH  35  38
HETATM   38  C17 UNL     1      70.043  52.066  12.553  1.00  0.00     0.141 C
BRANCH  38  39
HETATM   39  C18 UNL     1      68.648  52.154  13.058  1.00  0.00    -0.048 A
HETATM   40  C19 UNL     1      67.646  51.324  12.596  1.00  0.00     0.014 A
HETATM   41  C20 UNL     1      66.335  51.409  13.071  1.00  0.00    -0.061 A
HETATM   42  C21 UNL     1      65.291  50.493  12.539  1.00  0.00     0.048 C
HETATM   43  C22 UNL     1      66.019  52.345  14.033  1.00  0.00     0.013 A
HETATM   44  C23 UNL     1      67.002  53.188  14.514  1.00  0.00    -0.061 A
HETATM   45  C24 UNL     1      66.698  54.208  15.548  1.00  0.00     0.048 C
HETATM   46  C25 UNL     1      68.277  53.079  14.027  1.00  0.00     0.014 A
ENDBRANCH  38  39
ENDBRANCH  35  38
ENDBRANCH  26  27
ENDBRANCH  25  26
ENDBRANCH  24  25
ENDBRANCH   1  24
TORSDOF 12
ENDMDL