MODEL 2
REMARK VINA RESULT: -8.949142982      1.517      1.998
REMARK  12 active torsions:
REMARK  status: ('A' for Active; 'I' for Inactive)
REMARK    1  A    between atoms: O1_2  and  C2_3
REMARK    2  A    between atoms: C2_3  and  C3_4
REMARK    3  A    between atoms: C3_4  and  N1_5
REMARK    4  A    between atoms: N1_5  and  C4_6
REMARK    5  A    between atoms: N1_5  and  C26_43
REMARK    6  A    between atoms: C4_6  and  C5_7
REMARK    7  A    between atoms: N3_10  and  C6_11
REMARK    8  A    between atoms: C6_11  and  C7_12
REMARK       I    between atoms: C7_12  and  N4_14
REMARK    9  A    between atoms: C10_17  and  C11_18
REMARK   10  A    between atoms: C11_18  and  C12_19
REMARK   11  A    between atoms: C12_19  and  N5_20
REMARK   12  A    between atoms: C21_31  and  N7_32
ROOT
HETATM    1  C5  UNL     1      70.059  55.676  17.758  1.00  0.00     0.054 A
HETATM    2  N2  UNL     1      70.063  56.883  18.370  1.00  0.00    -0.300 N
ATOM      3  H2  UNL     1      70.801  57.201  18.999  1.00  0.00     0.187 HD
HETATM    4  N3  UNL     1      69.007  57.597  18.059  1.00  0.00    -0.293 N
HETATM    5  C18 UNL     1      68.284  56.854  17.230  1.00  0.00     0.128 A
HETATM    6  C19 UNL     1      68.902  55.608  16.994  1.00  0.00     0.050 A
HETATM    7  C20 UNL     1      68.356  54.580  16.140  1.00  0.00     0.122 A
HETATM    8  N6  UNL     1      67.175  54.851  15.536  1.00  0.00    -0.327 N
ATOM      9  H6  UNL     1      66.731  55.753  15.705  1.00  0.00     0.169 HD
HETATM   10  C21 UNL     1      66.568  53.973  14.722  1.00  0.00     0.114 A
HETATM   11  C22 UNL     1      67.150  52.750  14.479  1.00  0.00     0.053 A
HETATM   12  C23 UNL     1      66.773  51.655  13.695  1.00  0.00     0.036 A
HETATM   13  C24 UNL     1      67.783  50.729  13.864  1.00  0.00     0.091 A
HETATM   14  N8  UNL     1      68.704  51.229  14.689  1.00  0.00    -0.351 N
ATOM     15  H8  UNL     1      69.556  50.750  14.981  1.00  0.00     0.166 HD
HETATM   16  C25 UNL     1      68.337  52.454  15.073  1.00  0.00     0.120 A
HETATM   17  N9  UNL     1      68.897  53.410  15.897  1.00  0.00    -0.327 N
ATOM     18  H9  UNL     1      69.787  53.193  16.346  1.00  0.00     0.169 HD
ENDROOT
BRANCH   4  19
HETATM   19  C6  UNL     1      68.714  58.960  18.534  1.00  0.00     0.251 C
BRANCH  19  20
HETATM   20  C7  UNL     1      68.869  58.998  20.000  1.00  0.00     0.239 C
HETATM   21  O2  UNL     1      68.333  58.129  20.740  1.00  0.00    -0.271 OA
HETATM   22  N4  UNL     1      69.652  60.051  20.607  1.00  0.00    -0.350 N
HETATM   23  C8  UNL     1      69.873  60.199  22.030  1.00  0.00     0.126 C
HETATM   24  C17 UNL     1      70.329  61.097  19.868  1.00  0.00     0.130 C
HETATM   25  C9  UNL     1      70.576  61.502  22.150  1.00  0.00     0.026 C
HETATM   26  C10 UNL     1      71.302  61.716  20.881  1.00  0.00     0.007 C
BRANCH  26  27
HETATM   27  C11 UNL     1      72.594  61.005  20.730  1.00  0.00     0.036 C
BRANCH  27  28
HETATM   28  C12 UNL     1      73.085  60.806  19.336  1.00  0.00     0.273 C
BRANCH  28  29
HETATM   29  N5  UNL     1      74.343  60.120  19.236  1.00  0.00     0.088 N
HETATM   30  C13 UNL     1      74.501  58.996  20.098  1.00  0.00     0.272 C
HETATM   31  C14 UNL     1      75.843  59.123  20.787  1.00  0.00     0.032 C
HETATM   32  C15 UNL     1      76.535  60.259  20.097  1.00  0.00     0.032 C
HETATM   33  C16 UNL     1      75.376  61.092  19.593  1.00  0.00     0.272 C
ENDBRANCH  28  29
ENDBRANCH  27  28
ENDBRANCH  26  27
ENDBRANCH  19  20
ENDBRANCH   4  19
BRANCH   1  34
HETATM   34  C4  UNL     1      71.066  54.637  17.876  1.00  0.00     0.155 C
BRANCH  34  35
HETATM   35  N1  UNL     1      72.448  55.171  17.596  1.00  0.00    -0.281 NA
BRANCH  35  36
HETATM   36  C3  UNL     1      72.530  56.498  18.029  1.00  0.00     0.084 C
BRANCH  36  37
HETATM   37  C2  UNL     1      73.083  57.496  17.087  1.00  0.00     0.145 C
BRANCH  37  38
HETATM   38  O1  UNL     1      72.376  58.552  16.654  1.00  0.00    -0.367 OA
HETATM   39  C1  UNL     1      71.475  58.282  15.627  1.00  0.00     0.208 C
ENDBRANCH  37  38
ENDBRANCH  36  37
ENDBRANCH  35  36
BRANCH  35  40
HETATM   40  C26 UNL     1      72.813  54.704  16.345  1.00  0.00     0.063 C
HETATM   41  C27 UNL     1      73.793  53.561  16.246  1.00  0.00     0.020 C
HETATM   42  C28 UNL     1      74.150  53.610  14.773  1.00  0.00     0.002 C
HETATM   43  C29 UNL     1      73.088  54.450  14.075  1.00  0.00     0.002 C
HETATM   44  C30 UNL     1      71.955  54.554  15.169  1.00  0.00     0.020 C
ENDBRANCH  35  40
ENDBRANCH  34  35
ENDBRANCH   1  34
BRANCH  10  45
HETATM   45  N7  UNL     1      65.440  54.224  14.152  1.00  0.00    -0.385 N
ATOM     46  H72 UNL     1      65.266  53.801  13.240  1.00  0.00     0.157 HD
ATOM     47  H71 UNL     1      64.729  54.815  14.582  1.00  0.00     0.157 HD
ENDBRANCH  10  45
TORSDOF 12
ENDMDL