MODEL 5
REMARK VINA RESULT: -9.054506701      3.252     10.159
REMARK  13 active torsions:
REMARK  status: ('A' for Active; 'I' for Inactive)
REMARK    1  A    between atoms: C2_2  and  O1_3
REMARK    2  A    between atoms: O1_3  and  C3_4
REMARK    3  A    between atoms: C5_8  and  C6_9
REMARK    4  A    between atoms: C7_10  and  C8_11
REMARK    5  A    between atoms: C11_14  and  N2_15
REMARK    6  A    between atoms: C13_20  and  N5_21
REMARK    7  A    between atoms: N5_21  and  C14_23
REMARK    8  A    between atoms: C14_23  and  C15_25
REMARK    9  A    between atoms: C15_25  and  N6_26
REMARK   10  A    between atoms: N7_29  and  C18_30
REMARK   11  A    between atoms: C18_30  and  C19_31
REMARK   12  A    between atoms: C19_31  and  C20_32
REMARK   13  A    between atoms: C20_32  and  N8_33
ROOT
HETATM    1  C8  UNL     1      68.374  54.618  15.714  1.00  0.00    -0.034 A
HETATM    2  C9  UNL     1      67.361  53.725  15.956  1.00  0.00     0.014 A
HETATM    3  C10 UNL     1      67.425  52.482  15.376  1.00  0.00     0.033 A
HETATM    4  C11 UNL     1      68.483  52.163  14.580  1.00  0.00     0.061 A
HETATM    5  C13 UNL     1      69.549  53.030  14.294  1.00  0.00     0.061 A
HETATM    6  C28 UNL     1      69.456  54.263  14.889  1.00  0.00     0.043 A
ENDROOT
BRANCH   5   7
HETATM    7  N5  UNL     1      70.551  52.591  13.415  1.00  0.00    -0.344 N
ATOM      8  H5  UNL     1      70.253  52.511  12.443  1.00  0.00     0.167 HD
BRANCH   7   9
HETATM    9  C14 UNL     1      71.886  52.245  13.640  1.00  0.00     0.117 C
HETATM   10  S1  UNL     1      72.406  50.770  13.984  1.00  0.00    -0.059 SA
BRANCH   9  11
HETATM   11  C15 UNL     1      72.918  53.332  13.529  1.00  0.00     0.137 C
BRANCH  11  12
HETATM   12  N6  UNL     1      73.005  54.204  14.623  1.00  0.00    -0.341 N
HETATM   13  C16 UNL     1      72.646  55.528  14.399  1.00  0.00     0.112 C
HETATM   14  C17 UNL     1      72.328  56.356  15.614  1.00  0.00     0.108 C
HETATM   15  N7  UNL     1      72.847  55.942  16.818  1.00  0.00    -0.364 N
HETATM   16  C26 UNL     1      72.935  54.527  17.052  1.00  0.00     0.172 C
HETATM   17  C27 UNL     1      73.393  53.737  15.874  1.00  0.00     0.089 C
BRANCH  15  18
HETATM   18  C18 UNL     1      73.369  56.757  17.812  1.00  0.00     0.065 C
BRANCH  18  19
HETATM   19  C19 UNL     1      72.992  58.176  17.932  1.00  0.00     0.075 C
BRANCH  19  20
HETATM   20  C20 UNL     1      72.515  58.696  19.228  1.00  0.00     0.277 C
BRANCH  20  21
HETATM   21  N8  UNL     1      73.552  59.423  19.979  1.00  0.00     0.088 N
HETATM   22  C21 UNL     1      74.073  60.418  19.085  1.00  0.00     0.272 C
HETATM   23  C22 UNL     1      75.298  61.122  19.577  1.00  0.00     0.030 C
HETATM   24  C23 UNL     1      76.359  60.071  19.836  1.00  0.00     0.003 C
HETATM   25  C24 UNL     1      75.850  59.057  20.817  1.00  0.00     0.030 C
HETATM   26  C25 UNL     1      74.535  58.452  20.401  1.00  0.00     0.272 C
ENDBRANCH  20  21
ENDBRANCH  19  20
ENDBRANCH  18  19
ENDBRANCH  15  18
ENDBRANCH  11  12
ENDBRANCH   9  11
ENDBRANCH   7   9
ENDBRANCH   5   7
BRANCH   4  27
HETATM   27  N2  UNL     1      68.480  50.850  14.019  1.00  0.00    -0.331 N
HETATM   28  C12 UNL     1      67.742  50.651  12.976  1.00  0.00     0.201 C
HETATM   29  N3  UNL     1      67.752  49.329  12.427  1.00  0.00    -0.066 NA
HETATM   30  N4  UNL     1      66.955  51.647  12.379  1.00  0.00    -0.066 NA
ATOM     31  H2  UNL     1      69.037  50.099  14.426  1.00  0.00     0.168 HD
ENDBRANCH   4  27
BRANCH   1  32
HETATM   32  C7  UNL     1      68.379  55.968  16.259  1.00  0.00     0.012 C
HETATM   33  C6  UNL     1      69.115  56.313  17.298  1.00  0.00     0.015 C
BRANCH  33  34
HETATM   34  C5  UNL     1      69.134  57.660  17.862  1.00  0.00    -0.005 A
HETATM   35  C4  UNL     1      69.397  58.798  17.150  1.00  0.00     0.104 A
HETATM   36  N1  UNL     1      69.380  60.023  17.755  1.00  0.00    -0.331 N
HETATM   37  C3  UNL     1      69.107  60.157  19.059  1.00  0.00     0.223 A
ATOM     38  H1  UNL     1      69.579  60.855  17.200  1.00  0.00     0.168 HD
HETATM   39  N9  UNL     1      68.851  59.034  19.749  1.00  0.00    -0.331 N
HETATM   40  C29 UNL     1      68.856  57.810  19.198  1.00  0.00     0.104 A
ATOM     41  H9  UNL     1      68.641  59.115  20.744  1.00  0.00     0.168 HD
BRANCH  37  42
HETATM   42  O1  UNL     1      69.090  61.416  19.670  1.00  0.00    -0.322 OA
BRANCH  42  43
HETATM   43  C2  UNL     1      69.276  61.450  21.074  1.00  0.00     0.174 C
HETATM   44  C1  UNL     1      68.024  61.903  21.790  1.00  0.00     0.034 C
ENDBRANCH  42  43
ENDBRANCH  37  42
ENDBRANCH  33  34
ENDBRANCH   1  32
TORSDOF 13
ENDMDL