MODEL 3
REMARK VINA RESULT: -7.156302125      2.206      5.033
REMARK  16 active torsions:
REMARK  status: ('A' for Active; 'I' for Inactive)
REMARK    1  A    between atoms: C2_2  and  N1_3
REMARK    2  A    between atoms: N1_3  and  C3_4
REMARK    3  A    between atoms: N1_3  and  C5_6
REMARK    4  A    between atoms: C5_6  and  C6_7
REMARK    5  A    between atoms: C6_7  and  N2_8
REMARK    6  A    between atoms: N2_8  and  C7_9
REMARK    7  A    between atoms: N2_8  and  C26_44
REMARK    8  A    between atoms: N3_10  and  C8_12
REMARK    9  A    between atoms: C8_12  and  O1_13
REMARK   10  A    between atoms: N4_15  and  C9_17
REMARK   11  A    between atoms: C16_27  and  O2_29
REMARK   12  A    between atoms: C20_33  and  O3_34
REMARK   13  A    between atoms: C23_38  and  O4_39
REMARK   14  A    between atoms: C26_44  and  C27_45
REMARK   15  A    between atoms: C27_45  and  C28_46
REMARK   16  A    between atoms: C28_46  and  N8_47
ROOT
HETATM    1  C9  UNL     1      71.838  58.415  18.319  1.00  0.00     0.138 C
HETATM    2  C10 UNL     1      70.796  57.528  19.005  1.00  0.00     0.032 C
HETATM    3  C11 UNL     1      69.487  58.200  19.246  1.00  0.00     0.004 C
HETATM    4  C12 UNL     1      69.288  58.329  20.752  1.00  0.00     0.027 C
HETATM    5  C13 UNL     1      68.384  59.499  21.041  1.00  0.00     0.233 C
HETATM    6  N5  UNL     1      68.952  60.269  22.106  1.00  0.00    -0.068 N
ATOM      7  H51 UNL     1      69.921  59.997  22.267  1.00  0.00     0.277 HD
ATOM      8  H52 UNL     1      68.545  59.997  23.001  1.00  0.00     0.277 HD
HETATM    9  C14 UNL     1      68.852  61.706  21.918  1.00  0.00     0.222 C
HETATM   10  C15 UNL     1      67.433  61.996  21.486  1.00  0.00     0.043 C
HETATM   11  C16 UNL     1      69.197  62.481  23.185  1.00  0.00     0.128 C
HETATM   12  C17 UNL     1      68.403  61.807  24.305  1.00  0.00     0.055 C
HETATM   13  C19 UNL     1      70.690  62.376  23.490  1.00  0.00     0.198 C
HETATM   14  N6  UNL     1      71.441  62.289  22.571  1.00  0.00    -0.392 NA
HETATM   15  C20 UNL     1      72.453  62.180  21.678  1.00  0.00     0.240 C
HETATM   16  C21 UNL     1      72.665  61.035  20.709  1.00  0.00     0.101 A
HETATM   17  C22 UNL     1      73.884  60.328  20.705  1.00  0.00     0.074 A
HETATM   18  C23 UNL     1      73.734  59.309  19.809  1.00  0.00     0.095 A
HETATM   19  C25 UNL     1      72.423  59.423  19.290  1.00  0.00     0.066 A
HETATM   20  N7  UNL     1      71.811  60.478  19.852  1.00  0.00    -0.351 N
ATOM     21  H7  UNL     1      70.862  60.797  19.657  1.00  0.00     0.166 HD
ENDROOT
BRANCH   1  22
HETATM   22  N4  UNL     1      71.465  58.910  17.050  1.00  0.00    -0.346 N
HETATM   23  C8  UNL     1      71.497  58.379  15.910  1.00  0.00     0.218 C
ATOM     24  H4  UNL     1      71.109  59.865  17.059  1.00  0.00     0.163 HD
BRANCH  23  25
HETATM   25  N3  UNL     1      71.967  57.043  15.719  1.00  0.00    -0.319 N
HETATM   26  C7  UNL     1      71.276  56.203  14.988  1.00  0.00     0.181 C
ATOM     27  H3  UNL     1      72.841  56.743  16.151  1.00  0.00     0.170 HD
BRANCH  26  28
HETATM   28  N2  UNL     1      71.711  54.873  14.774  1.00  0.00    -0.375 N
BRANCH  28  29
HETATM   29  C6  UNL     1      70.813  53.743  15.083  1.00  0.00     0.154 C
BRANCH  29  30
HETATM   30  C5  UNL     1      69.586  53.935  14.208  1.00  0.00     0.292 C
BRANCH  30  31
HETATM   31  N1  UNL     1      68.367  54.091  14.935  1.00  0.00     0.089 N
BRANCH  31  32
HETATM   32  C2  UNL     1      68.485  54.176  16.356  1.00  0.00     0.268 C
HETATM   33  C1  UNL     1      68.169  55.522  16.945  1.00  0.00     0.037 C
ENDBRANCH  31  32
BRANCH  31  34
HETATM   34  C3  UNL     1      67.399  53.065  14.589  1.00  0.00     0.268 C
HETATM   35  C4  UNL     1      66.046  53.730  14.446  1.00  0.00     0.037 C
ENDBRANCH  31  34
ENDBRANCH  30  31
ENDBRANCH  29  30
ENDBRANCH  28  29
BRANCH  28  36
HETATM   36  C26 UNL     1      73.034  54.563  14.315  1.00  0.00     0.125 C
BRANCH  36  37
HETATM   37  C27 UNL     1      73.807  53.570  15.116  1.00  0.00     0.047 C
BRANCH  37  38
HETATM   38  C28 UNL     1      74.440  54.187  16.316  1.00  0.00     0.231 C
BRANCH  38  39
HETATM   39  N8  UNL     1      75.880  53.842  16.368  1.00  0.00    -0.079 N
ATOM     40  H83 UNL     1      76.278  53.723  15.436  1.00  0.00     0.274 HD
ATOM     41  H82 UNL     1      76.450  54.630  16.674  1.00  0.00     0.274 HD
ATOM     42  H81 UNL     1      76.022  53.018  16.952  1.00  0.00     0.274 HD
ENDBRANCH  38  39
ENDBRANCH  37  38
ENDBRANCH  36  37
ENDBRANCH  28  36
ENDBRANCH  26  28
ENDBRANCH  23  25
BRANCH  23  43
HETATM   43  O1  UNL     1      71.069  59.077  14.776  1.00  0.00    -0.333 OA
ATOM     44  H1  UNL     1      70.301  59.629  14.868  1.00  0.00     0.220 HD
ENDBRANCH  23  43
ENDBRANCH   1  22
BRANCH  18  45
HETATM   45  O4  UNL     1      74.699  58.344  19.478  1.00  0.00    -0.354 OA
HETATM   46  C24 UNL     1      76.044  58.631  19.764  1.00  0.00     0.210 C
ENDBRANCH  18  45
BRANCH  15  47
HETATM   47  O3  UNL     1      73.344  63.145  21.633  1.00  0.00    -0.334 OA
ATOM     48  H3  UNL     1      74.098  63.031  21.067  1.00  0.00     0.220 HD
ENDBRANCH  15  47
BRANCH  11  49
HETATM   49  O2  UNL     1      68.743  63.746  23.059  1.00  0.00    -0.377 OA
HETATM   50  C18 UNL     1      68.561  64.493  24.173  1.00  0.00     0.203 C
ENDBRANCH  11  49
TORSDOF 16
ENDMDL