MODEL 2
REMARK VINA RESULT: -8.060395657      1.130      1.248
REMARK  13 active torsions:
REMARK  status: ('A' for Active; 'I' for Inactive)
REMARK    1  A    between atoms: C2_2  and  C3_3
REMARK    2  A    between atoms: C3_3  and  N1_4
REMARK    3  A    between atoms: N1_4  and  C4_6
REMARK    4  A    between atoms: C5_9  and  N3_10
REMARK    5  A    between atoms: C8_13  and  N4_14
REMARK    6  A    between atoms: C18_26  and  N6_27
REMARK    7  A    between atoms: N6_27  and  S1_29
REMARK    8  A    between atoms: S1_29  and  N7_32
REMARK    9  A    between atoms: N7_32  and  C19_34
REMARK   10  A    between atoms: C19_34  and  C20_35
REMARK   11  A    between atoms: C22_37  and  O3_38
REMARK   12  A    between atoms: O3_38  and  C23_39
REMARK   13  A    between atoms: C25_41  and  O4_42
ROOT
HETATM    1  C4  UNL     1      71.461  56.447  18.005  1.00  0.00     0.132 A
HETATM    2  N2  UNL     1      70.669  55.551  17.385  1.00  0.00    -0.176 N
ATOM      3  H2  UNL     1      71.094  54.699  17.019  1.00  0.00     0.186 HD
HETATM    4  C5  UNL     1      69.349  55.726  17.225  1.00  0.00     0.682 A
HETATM    5  N5  UNL     1      68.823  56.876  17.727  1.00  0.00    -0.191 N
ATOM      6  H5  UNL     1      67.824  57.049  17.626  1.00  0.00     0.184 HD
HETATM    7  C16 UNL     1      69.584  57.791  18.353  1.00  0.00     0.068 A
HETATM    8  C17 UNL     1      69.030  58.953  18.876  1.00  0.00     0.064 A
HETATM    9  C18 UNL     1      69.781  59.900  19.533  1.00  0.00     0.082 A
HETATM   10  C22 UNL     1      71.154  59.691  19.682  1.00  0.00     0.130 A
HETATM   11  C25 UNL     1      71.733  58.543  19.171  1.00  0.00     0.120 A
HETATM   12  C27 UNL     1      70.953  57.619  18.523  1.00  0.00     0.072 A
ENDROOT
BRANCH   4  13
HETATM   13  N3  UNL     1      68.526  54.768  16.577  1.00  0.00    -0.217 N
HETATM   14  C6  UNL     1      67.143  55.081  16.329  1.00  0.00     0.143 C
HETATM   15  C7  UNL     1      66.686  54.389  15.078  1.00  0.00     0.045 C
HETATM   16  C8  UNL     1      66.821  52.877  15.139  1.00  0.00     0.082 C
HETATM   17  C14 UNL     1      67.851  52.518  16.137  1.00  0.00     0.045 C
HETATM   18  C15 UNL     1      69.029  53.480  16.157  1.00  0.00     0.143 C
BRANCH  16  19
HETATM   19  N4  UNL     1      66.945  52.367  13.853  1.00  0.00    -0.408 N
HETATM   20  C9  UNL     1      65.803  51.780  13.248  1.00  0.00     0.117 C
HETATM   21  C10 UNL     1      66.127  50.457  12.560  1.00  0.00     0.019 C
HETATM   22  C11 UNL     1      67.414  49.967  13.228  1.00  0.00     0.003 C
HETATM   23  C12 UNL     1      68.514  50.895  12.788  1.00  0.00     0.019 C
HETATM   24  C13 UNL     1      68.145  52.339  13.155  1.00  0.00     0.117 C
ENDBRANCH  16  19
ENDBRANCH   4  13
BRANCH   1  25
HETATM   25  N1  UNL     1      72.727  56.227  18.154  1.00  0.00    -0.372 N
ATOM     26  H1  UNL     1      73.128  56.258  19.091  1.00  0.00     0.161 HD
BRANCH  25  27
HETATM   27  C3  UNL     1      73.596  55.936  17.022  1.00  0.00     0.147 C
BRANCH  27  28
HETATM   28  C2  UNL     1      73.659  54.480  16.760  1.00  0.00    -0.018 C
HETATM   29  C1  UNL     1      74.630  53.917  16.059  1.00  0.00     0.008 C
ENDBRANCH  27  28
ENDBRANCH  25  27
ENDBRANCH   1  25
BRANCH  11  30
HETATM   30  O4  UNL     1      73.121  58.387  19.350  1.00  0.00    -0.352 OA
HETATM   31  C26 UNL     1      73.924  59.107  18.392  1.00  0.00     0.210 C
ENDBRANCH  11  30
BRANCH   9  32
HETATM   32  N6  UNL     1      69.236  61.082  20.089  1.00  0.00    -0.265 N
ATOM     33  H6  UNL     1      68.946  61.838  19.468  1.00  0.00     0.180 HD
BRANCH  32  34
HETATM   34  S1  UNL     1      69.053  61.271  21.771  1.00  0.00     0.319 S
HETATM   35  O1  UNL     1      70.007  62.291  22.285  1.00  0.00    -0.183 OA
HETATM   36  O2  UNL     1      67.638  61.690  22.116  1.00  0.00    -0.183 OA
BRANCH  34  37
HETATM   37  N7  UNL     1      69.324  59.781  22.621  1.00  0.00    -0.303 N
ATOM     38  H7  UNL     1      69.181  58.852  22.224  1.00  0.00     0.173 HD
BRANCH  37  39
HETATM   39  C19 UNL     1      69.780  60.040  23.974  1.00  0.00     0.133 C
BRANCH  39  40
HETATM   40  C20 UNL     1      69.018  59.259  25.000  1.00  0.00     0.016 C
HETATM   41  C21 UNL     1      68.329  60.244  25.952  1.00  0.00     0.006 C
ENDBRANCH  39  40
ENDBRANCH  37  39
ENDBRANCH  34  37
ENDBRANCH  32  34
ENDBRANCH   9  32
BRANCH  10  42
HETATM   42  O3  UNL     1      71.963  60.602  20.333  1.00  0.00    -0.346 OA
BRANCH  42  43
HETATM   43  C23 UNL     1      72.448  61.800  19.776  1.00  0.00     0.171 C
HETATM   44  C24 UNL     1      73.726  62.249  20.454  1.00  0.00     0.034 C
ENDBRANCH  42  43
ENDBRANCH  10  42
TORSDOF 13
ENDMDL