MODEL 2
REMARK VINA RESULT: -9.191209962      2.616      9.374
REMARK  14 active torsions:
REMARK  status: ('A' for Active; 'I' for Inactive)
REMARK    1  A    between atoms: N1_1  and  C1_5
REMARK    2  A    between atoms: C1_5  and  C2_6
REMARK    3  A    between atoms: C1_5  and  C24_33
REMARK    4  A    between atoms: C2_6  and  C11_20
REMARK    5  A    between atoms: N2_7  and  N3_9
REMARK       I    between atoms: N3_9  and  C3_10
REMARK    6  A    between atoms: C3_10  and  C4_12
REMARK    7  A    between atoms: C4_12  and  O2_13
REMARK    8  A    between atoms: O2_13  and  C5_14
REMARK    9  A    between atoms: C11_20  and  C12_21
REMARK   10  A    between atoms: C11_20  and  C18_27
REMARK   11  A    between atoms: C27_36  and  O3_37
REMARK   12  A    between atoms: O3_37  and  C28_38
REMARK   13  A    between atoms: C28_38  and  C29_39
REMARK   14  A    between atoms: C29_39  and  N4_40
ROOT
HETATM    1  C2  UNL     1      71.671 110.932  16.429  1.00  0.00     0.064 C
HETATM    2  N2  UNL     1      72.182 109.785  16.195  1.00  0.00    -0.237 N
ATOM      3  H2  UNL     1      71.616 109.053  16.625  1.00  0.00     0.201 HD
ENDROOT
BRANCH   1   4
HETATM    4  C1  UNL     1      72.333 112.130  15.886  1.00  0.00     0.265 C
BRANCH   4   5
HETATM    5  N1  UNL     1      72.803 111.936  14.510  1.00  0.00    -0.066 N
ATOM      6  H13 UNL     1      73.193 111.002  14.383  1.00  0.00     0.275 HD
ATOM      7  H12 UNL     1      72.019 111.875  13.860  1.00  0.00     0.275 HD
ATOM      8  H11 UNL     1      73.467 112.653  14.220  1.00  0.00     0.275 HD
ENDBRANCH   4   5
BRANCH   4   9
HETATM    9  C24 UNL     1      73.401 112.661  16.768  1.00  0.00    -0.022 A
HETATM   10  C25 UNL     1      74.224 111.872  17.527  1.00  0.00     0.012 A
HETATM   11  C26 UNL     1      75.204 112.346  18.342  1.00  0.00     0.037 A
HETATM   12  C27 UNL     1      75.397 113.738  18.421  1.00  0.00     0.068 A
HETATM   13  C33 UNL     1      74.529 114.533  17.623  1.00  0.00     0.037 A
HETATM   14  C34 UNL     1      73.562 114.027  16.821  1.00  0.00     0.012 A
BRANCH  12  15
HETATM   15  O3  UNL     1      76.307 114.249  19.172  1.00  0.00    -0.350 OA
BRANCH  15  16
HETATM   16  C28 UNL     1      77.226 114.942  19.760  1.00  0.00     0.196 C
BRANCH  16  17
HETATM   17  C29 UNL     1      77.459 116.389  19.312  1.00  0.00     0.164 C
BRANCH  17  18
HETATM   18  N4  UNL     1      77.467 117.302  20.460  1.00  0.00    -0.224 N
HETATM   19  C30 UNL     1      76.361 117.915  20.789  1.00  0.00     0.679 A
HETATM   20  N5  UNL     1      75.212 117.753  20.130  1.00  0.00    -0.188 N
HETATM   21  N7  UNL     1      76.417 118.749  21.837  1.00  0.00    -0.188 N
HETATM   22  C31 UNL     1      74.093 118.403  20.481  1.00  0.00     0.199 A
ATOM     23  H5  UNL     1      75.184 117.115  19.334  1.00  0.00     0.185 HD
HETATM   24  N6  UNL     1      74.124 119.247  21.530  1.00  0.00    -0.348 N
HETATM   25  C32 UNL     1      75.279 119.407  22.190  1.00  0.00     0.199 A
ATOM     26  H6  UNL     1      73.286 119.753  21.815  1.00  0.00     0.167 HD
ATOM     27  H7  UNL     1      77.285 118.886  22.354  1.00  0.00     0.185 HD
ATOM     28  H4  UNL     1      78.322 117.456  20.993  1.00  0.00     0.177 HD
ENDBRANCH  17  18
ENDBRANCH  16  17
ENDBRANCH  15  16
ENDBRANCH  12  15
ENDBRANCH   4   9
ENDBRANCH   1   4
BRANCH   1  29
HETATM   29  C11 UNL     1      70.460 111.058  17.246  1.00  0.00     0.102 C
BRANCH  29  30
HETATM   30  C12 UNL     1      69.191 110.792  16.569  1.00  0.00    -0.044 A
HETATM   31  C13 UNL     1      68.019 110.888  17.271  1.00  0.00     0.008 A
HETATM   32  C14 UNL     1      66.761 110.627  16.724  1.00  0.00     0.001 A
HETATM   33  C15 UNL     1      66.728 110.254  15.400  1.00  0.00     0.000 A
HETATM   34  C16 UNL     1      67.899 110.155  14.687  1.00  0.00     0.001 A
HETATM   35  C17 UNL     1      69.131 110.417  15.245  1.00  0.00     0.008 A
ENDBRANCH  29  30
BRANCH  29  36
HETATM   36  C18 UNL     1      70.423 112.524  17.642  1.00  0.00    -0.044 A
HETATM   37  C19 UNL     1      70.003 113.497  16.784  1.00  0.00     0.008 A
HETATM   38  C20 UNL     1      70.007 114.818  17.193  1.00  0.00     0.001 A
HETATM   39  C21 UNL     1      70.437 115.151  18.470  1.00  0.00     0.000 A
HETATM   40  C22 UNL     1      70.856 114.152  19.321  1.00  0.00     0.001 A
HETATM   41  C23 UNL     1      70.858 112.832  18.928  1.00  0.00     0.008 A
ENDBRANCH  29  36
ENDBRANCH   1  29
BRANCH   2  42
HETATM   42  N3  UNL     1      73.127 109.297  15.620  1.00  0.00    -0.285 NA
HETATM   43  C3  UNL     1      74.242 108.724  14.942  1.00  0.00     0.336 C
HETATM   44  O1  UNL     1      75.401 109.182  14.867  1.00  0.00    -0.253 OA
BRANCH  43  45
HETATM   45  C4  UNL     1      74.055 107.409  14.211  1.00  0.00     0.296 C
BRANCH  45  46
HETATM   46  O2  UNL     1      72.975 107.435  13.338  1.00  0.00    -0.341 OA
BRANCH  46  47
HETATM   47  C5  UNL     1      71.689 106.976  13.590  1.00  0.00     0.069 A
HETATM   48  C6  UNL     1      71.357 105.914  14.364  1.00  0.00     0.037 A
HETATM   49  C7  UNL     1      70.053 105.542  14.546  1.00  0.00     0.003 A
HETATM   50  C8  UNL     1      69.014 106.223  13.956  1.00  0.00     0.000 A
HETATM   51  C9  UNL     1      69.350 107.304  13.169  1.00  0.00     0.003 A
HETATM   52  C10 UNL     1      70.654 107.692  12.975  1.00  0.00     0.037 A
ENDBRANCH  46  47
ENDBRANCH  45  46
ENDBRANCH  43  45
ENDBRANCH   2  42
TORSDOF 14
ENDMDL