MODEL 4
REMARK VINA RESULT: -8.572755464      2.845      4.385
REMARK  14 active torsions:
REMARK  status: ('A' for Active; 'I' for Inactive)
REMARK    1  A    between atoms: C2_2  and  C3_3
REMARK    2  A    between atoms: C3_3  and  C4_4
REMARK    3  A    between atoms: C6_6  and  C7_7
REMARK    4  A    between atoms: C7_7  and  C8_8
REMARK    5  A    between atoms: C8_8  and  N1_9
REMARK    6  A    between atoms: C8_8  and  C26_34
REMARK       I    between atoms: N1_9  and  C9_11
REMARK    7  A    between atoms: C9_11  and  C10_13
REMARK    8  A    between atoms: C12_15  and  C13_16
REMARK    9  A    between atoms: C13_16  and  N2_17
REMARK   10  A    between atoms: C15_21  and  C16_22
REMARK   11  A    between atoms: C16_22  and  O3_24
REMARK   12  A    between atoms: O3_24  and  C17_25
REMARK   13  A    between atoms: C27_37  and  C28_38
REMARK   14  A    between atoms: C30_42  and  O8_43
ROOT
HETATM    1  N1  UNL     1      72.682 112.513  17.479  1.00  0.00    -0.342 N
ATOM      2  H1  UNL     1      72.596 112.699  16.480  1.00  0.00     0.163 HD
HETATM    3  C9  UNL     1      71.555 111.949  18.121  1.00  0.00     0.253 C
HETATM    4  O1  UNL     1      71.702 111.767  19.380  1.00  0.00    -0.268 OA
ENDROOT
BRANCH   3   5
HETATM    5  C10 UNL     1      70.302 111.583  17.490  1.00  0.00     0.038 A
HETATM    6  C11 UNL     1      70.227 110.336  16.926  1.00  0.00     0.027 A
HETATM    7  C12 UNL     1      69.039 109.860  16.336  1.00  0.00    -0.033 A
HETATM    8  C21 UNL     1      67.939 110.658  16.328  1.00  0.00    -0.053 A
HETATM    9  C22 UNL     1      66.637 110.254  15.769  1.00  0.00     0.049 C
HETATM   10  C23 UNL     1      67.990 111.928  16.895  1.00  0.00     0.015 A
HETATM   11  C24 UNL     1      69.176 112.370  17.467  1.00  0.00    -0.046 A
HETATM   12  C25 UNL     1      69.234 113.735  18.037  1.00  0.00     0.049 C
BRANCH   7  13
HETATM   13  C13 UNL     1      69.030 108.523  15.727  1.00  0.00     0.168 C
BRANCH  13  14
HETATM   14  N2  UNL     1      70.106 108.261  14.791  1.00  0.00    -0.346 N
HETATM   15  C14 UNL     1      69.927 108.144  13.427  1.00  0.00     0.183 A
HETATM   16  N3  UNL     1      71.105 107.929  12.838  1.00  0.00    -0.346 N
HETATM   17  C15 UNL     1      72.081 107.897  13.761  1.00  0.00     0.124 A
ATOM     18  H3  UNL     1      71.244 107.807  11.834  1.00  0.00     0.167 HD
HETATM   19  C20 UNL     1      71.424 108.107  14.956  1.00  0.00     0.128 A
BRANCH  17  20
HETATM   20  C16 UNL     1      73.493 107.694  13.504  1.00  0.00     0.311 C
HETATM   21  O2  UNL     1      73.940 106.494  13.580  1.00  0.00    -0.258 OA
BRANCH  20  22
HETATM   22  O3  UNL     1      74.417 108.642  13.187  1.00  0.00    -0.312 OA
BRANCH  22  23
HETATM   23  C17 UNL     1      74.995 109.587  14.051  1.00  0.00     0.124 C
HETATM   24  C18 UNL     1      75.454 108.838  15.291  1.00  0.00     0.040 C
HETATM   25  C19 UNL     1      74.049 110.714  14.377  1.00  0.00     0.040 C
ENDBRANCH  22  23
ENDBRANCH  20  22
ENDBRANCH  17  20
ENDBRANCH  13  14
ENDBRANCH   7  13
ENDBRANCH   3   5
BRANCH   1  26
HETATM   26  C8  UNL     1      73.914 112.844  18.084  1.00  0.00     0.190 C
BRANCH  26  27
HETATM   27  C7  UNL     1      74.505 114.209  17.758  1.00  0.00     0.076 C
BRANCH  27  28
HETATM   28  C6  UNL     1      74.139 115.257  18.714  1.00  0.00    -0.038 A
HETATM   29  C5  UNL     1      72.733 115.359  18.921  1.00  0.00     0.018 A
HETATM   30  C4  UNL     1      72.261 116.360  19.698  1.00  0.00    -0.021 A
HETATM   31  C30 UNL     1      73.133 117.269  20.282  1.00  0.00     0.075 A
HETATM   32  C29 UNL     1      74.471 117.160  20.080  1.00  0.00     0.056 A
HETATM   33  C27 UNL     1      75.021 116.128  19.273  1.00  0.00     0.049 A
BRANCH  30  34
HETATM   34  C3  UNL     1      70.797 116.571  19.955  1.00  0.00     0.067 C
BRANCH  34  35
HETATM   35  C2  UNL     1      70.152 117.172  18.752  1.00  0.00    -0.032 C
HETATM   36  C1  UNL     1      69.910 118.475  18.679  1.00  0.00     0.007 C
ENDBRANCH  34  35
ENDBRANCH  30  34
BRANCH  31  37
HETATM   37  O8  UNL     1      72.627 118.271  21.062  1.00  0.00    -0.355 OA
HETATM   38  C31 UNL     1      73.318 118.760  22.175  1.00  0.00     0.210 C
ENDBRANCH  31  37
BRANCH  33  39
HETATM   39  C28 UNL     1      76.477 116.056  19.199  1.00  0.00     0.210 C
HETATM   40  O6  UNL     1      77.118 115.092  19.619  1.00  0.00    -0.644 OA
HETATM   41  O7  UNL     1      77.141 117.143  18.624  1.00  0.00    -0.644 OA
ENDBRANCH  33  39
ENDBRANCH  27  28
ENDBRANCH  26  27
BRANCH  26  42
HETATM   42  C26 UNL     1      74.908 111.779  17.878  1.00  0.00     0.197 C
HETATM   43  O4  UNL     1      76.115 111.956  17.632  1.00  0.00    -0.646 OA
HETATM   44  O5  UNL     1      74.440 110.462  17.969  1.00  0.00    -0.646 OA
ENDBRANCH  26  42
ENDBRANCH   1  26
TORSDOF 14
ENDMDL