MODEL 1
REMARK VINA RESULT: -9.791257206      0.000      0.000
REMARK  17 active torsions:
REMARK  status: ('A' for Active; 'I' for Inactive)
REMARK    1  A    between atoms: O1_2  and  C2_3
REMARK    2  A    between atoms: C4_5  and  O2_6
REMARK    3  A    between atoms: O2_6  and  C5_7
REMARK    4  A    between atoms: C12_14  and  O3_15
REMARK    5  A    between atoms: C15_18  and  C16_19
REMARK    6  A    between atoms: C16_19  and  O4_20
REMARK    7  A    between atoms: C16_19  and  N1_22
REMARK    8  A    between atoms: N1_22  and  N2_24
REMARK    9  A    between atoms: C17_26  and  O5_27
REMARK   10  A    between atoms: C17_26  and  C18_29
REMARK   11  A    between atoms: C18_29  and  C19_30
REMARK   12  A    between atoms: C19_30  and  C20_31
REMARK       I    between atoms: C20_31  and  N3_33
REMARK   13  A    between atoms: N3_33  and  C21_34
REMARK   14  A    between atoms: C21_34  and  C22_35
REMARK   15  A    between atoms: C22_35  and  C23_36
REMARK   16  A    between atoms: C26_39  and  O7_40
REMARK   17  A    between atoms: C28_42  and  O8_43
ROOT
HETATM    1  N1  UNL     1      74.392 108.773  13.296  1.00  0.00    -0.278 N
ATOM      2  H1  UNL     1      74.831 109.025  12.411  1.00  0.00     0.189 HD
ENDROOT
BRANCH   1   3
HETATM    3  C16 UNL     1      73.374 107.866  13.473  1.00  0.00     0.165 C
BRANCH   3   4
HETATM    4  C15 UNL     1      72.691 106.883  14.112  1.00  0.00     0.021 A
HETATM    5  C14 UNL     1      71.256 106.880  13.995  1.00  0.00     0.053 A
HETATM    6  C4  UNL     1      70.507 105.843  14.408  1.00  0.00     0.079 A
HETATM    7  C3  UNL     1      71.122 104.798  14.954  1.00  0.00     0.074 A
HETATM    8  C2  UNL     1      72.487 104.655  15.121  1.00  0.00     0.071 A
HETATM    9  C31 UNL     1      73.242 105.718  14.695  1.00  0.00     0.052 A
BRANCH   6  10
HETATM   10  O2  UNL     1      69.078 105.852  14.223  1.00  0.00    -0.308 OA
BRANCH  10  11
HETATM   11  C5  UNL     1      68.609 107.137  14.649  1.00  0.00     0.110 A
HETATM   12  C6  UNL     1      69.025 107.643  15.876  1.00  0.00     0.047 A
HETATM   13  C7  UNL     1      68.565 108.875  16.364  1.00  0.00    -0.053 A
HETATM   14  C8  UNL     1      69.061 109.484  17.617  1.00  0.00     0.049 C
HETATM   15  C9  UNL     1      67.687 109.551  15.563  1.00  0.00    -0.053 A
HETATM   16  C10 UNL     1      67.064 110.773  16.220  1.00  0.00     0.049 C
HETATM   17  C11 UNL     1      67.267 109.130  14.373  1.00  0.00     0.047 A
HETATM   18  C12 UNL     1      67.758 107.839  13.865  1.00  0.00     0.102 A
BRANCH  18  19
HETATM   19  O3  UNL     1      67.337 107.493  12.635  1.00  0.00    -0.353 OA
HETATM   20  C13 UNL     1      66.424 106.422  12.440  1.00  0.00     0.210 C
ENDBRANCH  18  19
ENDBRANCH  10  11
ENDBRANCH   6  10
BRANCH   8  21
HETATM   21  O1  UNL     1      73.074 103.491  15.672  1.00  0.00    -0.356 OA
HETATM   22  C1  UNL     1      72.044 102.428  15.745  1.00  0.00     0.210 C
ENDBRANCH   8  21
ENDBRANCH   3   4
BRANCH   3  23
HETATM   23  O4  UNL     1      72.592 108.126  12.273  1.00  0.00    -0.344 OA
ATOM     24  H4  UNL     1      72.481 107.271  11.876  1.00  0.00     0.219 HD
ENDBRANCH   3  23
ENDBRANCH   1   3
BRANCH   1  25
HETATM   25  N2  UNL     1      74.734 109.321  14.640  1.00  0.00    -0.282 N
HETATM   26  C17 UNL     1      74.449 110.562  14.957  1.00  0.00     0.130 C
ATOM     27  H2  UNL     1      75.198 108.722  15.324  1.00  0.00     0.189 HD
BRANCH  26  28
HETATM   28  O5  UNL     1      73.792 111.338  14.030  1.00  0.00    -0.348 OA
ATOM     29  H5  UNL     1      74.296 111.972  13.535  1.00  0.00     0.219 HD
ENDBRANCH  26  28
BRANCH  26  30
HETATM   30  C18 UNL     1      74.713 111.333  16.198  1.00  0.00     0.095 C
BRANCH  30  31
HETATM   31  C19 UNL     1      74.241 110.429  17.279  1.00  0.00     0.127 C
BRANCH  31  32
HETATM   32  C20 UNL     1      72.521 110.705  17.402  1.00  0.00     0.286 C
HETATM   33  O6  UNL     1      72.283 109.886  16.549  1.00  0.00    -0.258 OA
HETATM   34  N3  UNL     1      72.592 111.591  18.316  1.00  0.00    -0.415 NA
BRANCH  34  35
HETATM   35  C21 UNL     1      72.650 112.619  19.377  1.00  0.00     0.226 C
BRANCH  35  36
HETATM   36  C22 UNL     1      72.763 113.897  18.534  1.00  0.00     0.072 C
BRANCH  36  37
HETATM   37  C23 UNL     1      73.939 114.714  18.681  1.00  0.00    -0.053 A
HETATM   38  C24 UNL     1      75.183 114.143  18.642  1.00  0.00     0.010 A
HETATM   39  C25 UNL     1      76.346 114.888  18.896  1.00  0.00     0.040 A
HETATM   40  C26 UNL     1      76.319 116.191  19.176  1.00  0.00     0.101 A
HETATM   41  C28 UNL     1      75.042 116.804  19.201  1.00  0.00     0.102 A
HETATM   42  C30 UNL     1      73.897 116.104  18.977  1.00  0.00     0.046 A
BRANCH  40  43
HETATM   43  O7  UNL     1      77.399 116.993  19.486  1.00  0.00    -0.353 OA
HETATM   44  C27 UNL     1      78.080 116.776  20.706  1.00  0.00     0.210 C
ENDBRANCH  40  43
BRANCH  41  45
HETATM   45  O8  UNL     1      75.045 118.187  19.447  1.00  0.00    -0.353 OA
HETATM   46  C29 UNL     1      74.457 118.576  20.692  1.00  0.00     0.210 C
ENDBRANCH  41  45
ENDBRANCH  36  37
ENDBRANCH  35  36
ENDBRANCH  34  35
ENDBRANCH  31  32
ENDBRANCH  30  31
ENDBRANCH  26  30
ENDBRANCH   1  25
TORSDOF 17
ENDMDL