MODEL 2
REMARK VINA RESULT: -8.551540997      2.897      6.129
REMARK  16 active torsions:
REMARK  status: ('A' for Active; 'I' for Inactive)
REMARK    1  A    between atoms: O1_2  and  C2_3
REMARK    2  A    between atoms: C2_3  and  C3_4
REMARK    3  A    between atoms: C3_4  and  O2_5
REMARK    4  A    between atoms: O2_5  and  C4_6
REMARK    5  A    between atoms: C8_10  and  C9_11
REMARK    6  A    between atoms: C9_11  and  N1_12
REMARK       I    between atoms: N1_12  and  C10_13
REMARK    7  A    between atoms: C10_13  and  C11_15
REMARK    8  A    between atoms: C11_15  and  N2_17
REMARK    9  A    between atoms: N2_17  and  C13_18
REMARK   10  A    between atoms: C17_24  and  N4_25
REMARK   11  A    between atoms: N4_25  and  C18_26
REMARK   12  A    between atoms: C21_29  and  C22_30
REMARK   13  A    between atoms: C22_30  and  C23_31
REMARK   14  A    between atoms: C23_31  and  O4_32
REMARK   15  A    between atoms: N5_34  and  C24_36
REMARK   16  A    between atoms: C24_36  and  C25_37
ROOT
HETATM    1  C25 UNL     1      70.361 102.878  13.239  1.00  0.00     0.143 C
HETATM    2  C26 UNL     1      70.144 102.766  14.656  1.00  0.00     0.060 C
HETATM    3  N6  UNL     1      69.963 102.721  15.800  1.00  0.00    -0.197 NA
ENDROOT
BRANCH   1   4
HETATM    4  C24 UNL     1      69.088 102.404  12.457  1.00  0.00     0.135 C
BRANCH   4   5
HETATM    5  N5  UNL     1      68.513 103.735  12.030  1.00  0.00    -0.373 N
HETATM    6  C23 UNL     1      67.492 104.248  12.663  1.00  0.00     0.115 C
ATOM      7  H5  UNL     1      68.925 104.235  11.243  1.00  0.00     0.161 HD
BRANCH   6   8
HETATM    8  C22 UNL     1      66.716 105.508  12.256  1.00  0.00     0.122 C
BRANCH   8   9
HETATM    9  C21 UNL     1      67.286 106.651  12.985  1.00  0.00    -0.051 A
HETATM   10  C20 UNL     1      68.634 106.718  13.167  1.00  0.00     0.011 A
HETATM   11  C19 UNL     1      69.272 107.813  13.894  1.00  0.00     0.045 A
HETATM   12  C18 UNL     1      68.353 108.696  14.362  1.00  0.00     0.111 A
HETATM   13  C28 UNL     1      66.981 108.637  14.188  1.00  0.00     0.045 A
HETATM   14  C27 UNL     1      66.411 107.614  13.492  1.00  0.00     0.011 A
BRANCH  12  15
HETATM   15  N4  UNL     1      68.728 109.831  15.044  1.00  0.00    -0.371 NA
BRANCH  15  16
HETATM   16  C17 UNL     1      69.010 110.751  15.667  1.00  0.00     0.262 A
HETATM   17  N3  UNL     1      70.312 111.267  15.056  1.00  0.00    -0.314 N
HETATM   18  C16 UNL     1      70.609 112.375  15.735  1.00  0.00     0.059 A
ATOM     19  H3  UNL     1      70.842 110.851  14.290  1.00  0.00     0.170 HD
HETATM   20  C15 UNL     1      71.652 113.299  15.475  1.00  0.00     0.034 A
HETATM   21  C30 UNL     1      69.734 112.569  16.628  1.00  0.00     0.048 A
HETATM   22  C14 UNL     1      71.727 114.436  16.211  1.00  0.00     0.043 A
HETATM   23  C13 UNL     1      70.829 114.704  17.186  1.00  0.00     0.090 A
HETATM   24  C31 UNL     1      69.759 113.744  17.437  1.00  0.00     0.132 A
HETATM   25  N7  UNL     1      68.730 111.619  16.639  1.00  0.00    -0.313 N
HETATM   26  C29 UNL     1      67.615 111.626  17.504  1.00  0.00     0.160 C
BRANCH  23  27
HETATM   27  N2  UNL     1      70.811 115.736  18.022  1.00  0.00    -0.408 NA
BRANCH  27  28
HETATM   28  C11 UNL     1      70.708 116.604  18.871  1.00  0.00     0.162 C
HETATM   29  C12 UNL     1      69.602 117.396  19.329  1.00  0.00     0.092 C
BRANCH  28  30
HETATM   30  C10 UNL     1      72.136 117.044  19.335  1.00  0.00     0.347 C
HETATM   31  N1  UNL     1      73.044 116.144  19.562  1.00  0.00    -0.405 NA
HETATM   32  O3  UNL     1      72.316 118.316  19.431  1.00  0.00    -0.249 OA
BRANCH  31  33
HETATM   33  C9  UNL     1      74.066 115.130  19.817  1.00  0.00     0.261 C
BRANCH  33  34
HETATM   34  C8  UNL     1      73.779 113.861  19.142  1.00  0.00    -0.025 A
HETATM   35  C7  UNL     1      72.681 113.151  19.629  1.00  0.00     0.010 A
HETATM   36  C6  UNL     1      72.359 111.909  19.162  1.00  0.00     0.003 A
HETATM   37  C5  UNL     1      73.236 111.388  18.153  1.00  0.00     0.037 A
HETATM   38  C4  UNL     1      74.261 112.037  17.723  1.00  0.00     0.069 A
HETATM   39  C32 UNL     1      74.615 113.327  18.165  1.00  0.00     0.046 A
BRANCH  38  40
HETATM   40  O2  UNL     1      75.162 111.491  16.768  1.00  0.00    -0.349 OA
BRANCH  40  41
HETATM   41  C3  UNL     1      74.690 110.860  15.559  1.00  0.00     0.201 C
BRANCH  41  42
HETATM   42  C2  UNL     1      75.010 109.376  15.613  1.00  0.00     0.193 C
BRANCH  42  43
HETATM   43  O1  UNL     1      74.279 108.356  16.048  1.00  0.00    -0.394 OA
HETATM   44  C1  UNL     1      73.867 107.497  15.008  1.00  0.00     0.201 C
ENDBRANCH  42  43
ENDBRANCH  41  42
ENDBRANCH  40  41
ENDBRANCH  38  40
ENDBRANCH  33  34
ENDBRANCH  31  33
ENDBRANCH  28  30
ENDBRANCH  27  28
ENDBRANCH  23  27
ENDBRANCH  15  16
ENDBRANCH  12  15
ENDBRANCH   8   9
ENDBRANCH   6   8
BRANCH   6  45
HETATM   45  O4  UNL     1      66.949 103.760  13.748  1.00  0.00    -0.349 OA
ATOM     46  H4  UNL     1      66.012 103.909  13.709  1.00  0.00     0.219 HD
ENDBRANCH   6  45
ENDBRANCH   4   5
ENDBRANCH   1   4
TORSDOF 16
ENDMDL