MODEL 3
REMARK VINA RESULT: -9.497466668      0.879      1.766
REMARK  15 active torsions:
REMARK  status: ('A' for Active; 'I' for Inactive)
REMARK    1  A    between atoms: C1_2  and  C2_3
REMARK       I    between atoms: C1_2  and  N5_40
REMARK    2  A    between atoms: C2_3  and  C3_4
REMARK    3  A    between atoms: C3_4  and  N1_5
REMARK    4  A    between atoms: C3_4  and  C22_31
REMARK    5  A    between atoms: N1_5  and  N2_7
REMARK       I    between atoms: N2_7  and  C4_9
REMARK    6  A    between atoms: C4_9  and  C5_11
REMARK    7  A    between atoms: C5_11  and  C6_12
REMARK    8  A    between atoms: C6_12  and  C7_13
REMARK    9  A    between atoms: C7_13  and  C8_14
REMARK   10  A    between atoms: C8_14  and  C9_15
REMARK       I    between atoms: C9_15  and  N3_17
REMARK   11  A    between atoms: N3_17  and  C10_19
REMARK   12  A    between atoms: C10_19  and  C11_20
REMARK   13  A    between atoms: C11_20  and  C12_21
REMARK   14  A    between atoms: C25_34  and  N4_35
REMARK   15  A    between atoms: N5_40  and  C28_42
ROOT
HETATM    1  N1  UNL     1      70.488 109.462  13.934  1.00  0.00    -0.301 N
ATOM      2  H1  UNL     1      70.248 109.549  12.946  1.00  0.00     0.186 HD
ENDROOT
BRANCH   1   3
HETATM    3  C3  UNL     1      69.591 109.625  14.840  1.00  0.00     0.044 C
BRANCH   3   4
HETATM    4  C2  UNL     1      68.360 108.800  14.905  1.00  0.00     0.162 C
BRANCH   4   5
HETATM    5  C1  UNL     1      68.466 107.534  14.159  1.00  0.00     0.229 C
HETATM    6  O1  UNL     1      68.490 107.565  12.908  1.00  0.00    -0.273 OA
HETATM    7  N5  UNL     1      68.544 106.271  14.818  1.00  0.00    -0.306 N
ATOM      8  H5  UNL     1      68.416 106.205  15.827  1.00  0.00     0.171 HD
BRANCH   7   9
HETATM    9  C28 UNL     1      68.783 105.194  14.108  1.00  0.00     0.167 A
HETATM   10  N6  UNL     1      69.785 104.986  13.248  1.00  0.00    -0.279 N
HETATM   11  N7  UNL     1      69.849 103.869  12.653  1.00  0.00    -0.303 N
ATOM     12  H6  UNL     1      70.483 105.709  13.076  1.00  0.00     0.189 HD
HETATM   13  C29 UNL     1      68.942 102.930  12.878  1.00  0.00     0.160 A
ATOM     14  H7  UNL     1      70.606 103.691  11.993  1.00  0.00     0.186 HD
HETATM   15  S1  UNL     1      67.937 103.713  14.021  1.00  0.00    -0.046 SA
ENDBRANCH   7   9
ENDBRANCH   4   5
ENDBRANCH   3   4
BRANCH   3  16
HETATM   16  C22 UNL     1      69.853 110.671  15.848  1.00  0.00    -0.012 A
HETATM   17  C23 UNL     1      70.250 110.395  17.136  1.00  0.00     0.016 A
HETATM   18  C24 UNL     1      70.501 111.401  18.060  1.00  0.00     0.037 A
HETATM   19  C25 UNL     1      70.355 112.724  17.708  1.00  0.00     0.102 A
HETATM   20  C26 UNL     1      69.952 113.022  16.405  1.00  0.00     0.037 A
HETATM   21  C27 UNL     1      69.711 111.998  15.507  1.00  0.00     0.016 A
BRANCH  19  22
HETATM   22  N4  UNL     1      70.596 113.787  18.610  1.00  0.00    -0.116 N
HETATM   23  O4  UNL     1      70.959 113.584  19.776  1.00  0.00    -0.532 OA
HETATM   24  O5  UNL     1      70.426 115.073  18.182  1.00  0.00    -0.532 OA
ENDBRANCH  19  22
ENDBRANCH   3  16
ENDBRANCH   1   3
BRANCH   1  25
HETATM   25  N2  UNL     1      71.791 109.166  14.319  1.00  0.00    -0.270 N
HETATM   26  C4  UNL     1      72.441 107.974  13.894  1.00  0.00     0.235 C
HETATM   27  O2  UNL     1      71.850 107.151  13.157  1.00  0.00    -0.272 OA
ATOM     28  H2  UNL     1      72.293 109.819  14.921  1.00  0.00     0.190 HD
BRANCH  26  29
HETATM   29  C5  UNL     1      73.846 107.667  14.314  1.00  0.00     0.104 C
BRANCH  29  30
HETATM   30  C6  UNL     1      74.748 108.854  14.014  1.00  0.00     0.010 C
BRANCH  30  31
HETATM   31  C7  UNL     1      75.510 109.251  15.236  1.00  0.00     0.010 C
BRANCH  31  32
HETATM   32  C8  UNL     1      74.643 109.602  16.404  1.00  0.00     0.103 C
BRANCH  32  33
HETATM   33  C9  UNL     1      74.261 111.022  16.445  1.00  0.00     0.217 C
HETATM   34  O3  UNL     1      73.302 111.487  15.755  1.00  0.00    -0.274 OA
HETATM   35  N3  UNL     1      75.009 111.912  17.302  1.00  0.00    -0.361 N
ATOM     36  H3  UNL     1      75.781 111.549  17.860  1.00  0.00     0.162 HD
BRANCH  35  37
HETATM   37  C10 UNL     1      74.669 113.317  17.374  1.00  0.00     0.127 C
BRANCH  37  38
HETATM   38  C11 UNL     1      74.246 113.687  18.774  1.00  0.00     0.059 C
BRANCH  38  39
HETATM   39  C12 UNL     1      75.179 114.711  19.297  1.00  0.00    -0.045 A
HETATM   40  C13 UNL     1      76.511 114.413  19.562  1.00  0.00     0.008 A
HETATM   41  C14 UNL     1      77.401 115.331  20.075  1.00  0.00     0.001 A
HETATM   42  C15 UNL     1      76.903 116.591  20.322  1.00  0.00     0.012 A
HETATM   43  C16 UNL     1      75.569 116.918  20.064  1.00  0.00    -0.025 A
HETATM   44  C17 UNL     1      75.137 118.205  20.329  1.00  0.00     0.012 A
HETATM   45  C21 UNL     1      74.703 115.980  19.551  1.00  0.00    -0.020 A
HETATM   46  C18 UNL     1      73.824 118.536  20.071  1.00  0.00     0.001 A
HETATM   47  C19 UNL     1      72.957 117.597  19.557  1.00  0.00     0.001 A
HETATM   48  C20 UNL     1      73.393 116.321  19.296  1.00  0.00     0.013 A
ENDBRANCH  38  39
ENDBRANCH  37  38
ENDBRANCH  35  37
ENDBRANCH  32  33
ENDBRANCH  31  32
ENDBRANCH  30  31
ENDBRANCH  29  30
ENDBRANCH  26  29
ENDBRANCH   1  25
TORSDOF 15
ENDMDL