MODEL 2
REMARK VINA RESULT: -9.448690023      1.209      1.842
REMARK  15 active torsions:
REMARK  status: ('A' for Active; 'I' for Inactive)
REMARK    1  A    between atoms: C2_2  and  N1_3
REMARK    2  A    between atoms: N1_3  and  C3_5
REMARK    3  A    between atoms: C4_8  and  C5_9
REMARK    4  A    between atoms: C6_10  and  C7_11
REMARK    5  A    between atoms: C7_11  and  C8_12
REMARK    6  A    between atoms: C8_12  and  C9_13
REMARK    7  A    between atoms: N5_21  and  C12_22
REMARK    8  A    between atoms: C12_22  and  C13_23
REMARK    9  A    between atoms: C13_23  and  C14_24
REMARK   10  A    between atoms: C26_40  and  N8_41
REMARK   11  A    between atoms: N8_41  and  C27_43
REMARK   12  A    between atoms: C27_43  and  C28_44
REMARK   13  A    between atoms: C28_44  and  N9_45
REMARK   14  A    between atoms: N9_45  and  C29_46
REMARK   15  A    between atoms: N9_45  and  C31_48
ROOT
HETATM    1  C8  UNL     1      74.559 111.780  18.081  1.00  0.00     0.080 C
ENDROOT
BRANCH   1   2
HETATM    2  C7  UNL     1      75.328 113.008  17.697  1.00  0.00     0.035 C
BRANCH   2   3
HETATM    3  C6  UNL     1      74.710 114.210  18.315  1.00  0.00    -0.022 C
HETATM    4  C5  UNL     1      75.431 115.283  18.506  1.00  0.00     0.045 C
BRANCH   4   5
HETATM    5  C4  UNL     1      74.911 116.503  19.101  1.00  0.00     0.136 A
HETATM    6  N2  UNL     1      75.622 117.193  20.021  1.00  0.00    -0.176 N
HETATM    7  C3  UNL     1      75.165 118.325  20.582  1.00  0.00     0.694 A
ATOM      8  H2  UNL     1      76.538 116.842  20.298  1.00  0.00     0.186 HD
HETATM    9  N10 UNL     1      73.950 118.787  20.212  1.00  0.00    -0.022 N
HETATM   10  C26 UNL     1      73.222 118.136  19.312  1.00  0.00     0.694 A
ATOM     11  H10 UNL     1      73.588 119.645  20.629  1.00  0.00     0.203 HD
HETATM   12  N7  UNL     1      73.717 116.983  18.758  1.00  0.00    -0.176 N
ATOM     13  H7  UNL     1      73.159 116.483  18.067  1.00  0.00     0.186 HD
BRANCH   7  14
HETATM   14  N1  UNL     1      75.874 118.958  21.457  1.00  0.00    -0.226 N
ATOM     15  H1  UNL     1      76.750 119.385  21.156  1.00  0.00     0.177 HD
BRANCH  14  16
HETATM   16  C2  UNL     1      75.484 119.089  22.838  1.00  0.00     0.133 C
HETATM   17  C1  UNL     1      76.588 118.674  23.787  1.00  0.00     0.027 C
ENDBRANCH  14  16
ENDBRANCH   7  14
BRANCH  10  18
HETATM   18  N8  UNL     1      72.072 118.553  18.947  1.00  0.00    -0.221 N
ATOM     19  H8  UNL     1      72.025 119.214  18.172  1.00  0.00     0.178 HD
BRANCH  18  20
HETATM   20  C27 UNL     1      70.847 118.149  19.561  1.00  0.00     0.182 C
BRANCH  20  21
HETATM   21  C28 UNL     1      70.116 117.081  18.823  1.00  0.00     0.083 C
BRANCH  21  22
HETATM   22  N9  UNL     1      70.442 115.772  19.181  1.00  0.00    -0.373 N
BRANCH  22  23
HETATM   23  C29 UNL     1      70.951 114.992  18.040  1.00  0.00     0.122 C
HETATM   24  C30 UNL     1      70.194 115.373  16.802  1.00  0.00     0.027 C
ENDBRANCH  22  23
BRANCH  22  25
HETATM   25  C31 UNL     1      69.664 114.988  20.042  1.00  0.00     0.058 C
HETATM   26  C32 UNL     1      68.161 115.103  19.867  1.00  0.00     0.055 C
ENDBRANCH  22  25
ENDBRANCH  21  22
ENDBRANCH  20  21
ENDBRANCH  18  20
ENDBRANCH  10  18
ENDBRANCH   4   5
ENDBRANCH   2   3
ENDBRANCH   1   2
BRANCH   1  27
HETATM   27  C9  UNL     1      73.269 111.807  17.322  1.00  0.00     0.084 A
HETATM   28  N3  UNL     1      73.210 112.393  16.120  1.00  0.00    -0.311 N
HETATM   29  C10 UNL     1      72.060 112.435  15.408  1.00  0.00     0.277 A
ATOM     30  H3  UNL     1      74.052 112.818  15.732  1.00  0.00     0.170 HD
HETATM   31  O1  UNL     1      71.967 112.973  14.280  1.00  0.00    -0.266 OA
HETATM   32  C11 UNL     1      70.955 111.855  15.963  1.00  0.00     0.144 A
HETATM   33  N4  UNL     1      69.659 111.702  15.558  1.00  0.00    -0.292 N
HETATM   34  C25 UNL     1      71.053 111.262  17.201  1.00  0.00     0.084 A
HETATM   35  N5  UNL     1      68.968 111.058  16.468  1.00  0.00    -0.300 N
ATOM     36  H4  UNL     1      69.282 112.042  14.673  1.00  0.00     0.187 HD
HETATM   37  C24 UNL     1      69.798 110.778  17.482  1.00  0.00     0.142 A
HETATM   38  N6  UNL     1      72.203 111.236  17.882  1.00  0.00    -0.343 N
ATOM     39  H6  UNL     1      72.262 110.793  18.799  1.00  0.00     0.167 HD
BRANCH  35  40
HETATM   40  C12 UNL     1      67.577 110.711  16.393  1.00  0.00     0.153 C
BRANCH  40  41
HETATM   41  C13 UNL     1      67.295 110.337  14.952  1.00  0.00     0.060 C
BRANCH  41  42
HETATM   42  C14 UNL     1      67.583 108.912  14.657  1.00  0.00    -0.056 A
HETATM   43  C15 UNL     1      68.628 108.275  15.303  1.00  0.00     0.008 A
HETATM   44  C16 UNL     1      68.900 106.953  15.031  1.00  0.00     0.013 A
HETATM   45  C17 UNL     1      68.168 106.214  14.124  1.00  0.00    -0.026 A
HETATM   46  C18 UNL     1      68.438 104.891  13.849  1.00  0.00     0.012 A
HETATM   47  C22 UNL     1      67.122 106.851  13.477  1.00  0.00    -0.025 A
HETATM   48  C19 UNL     1      67.695 104.145  12.931  1.00  0.00     0.001 A
HETATM   49  C20 UNL     1      66.651 104.806  12.294  1.00  0.00     0.001 A
HETATM   50  C21 UNL     1      66.387 106.124  12.572  1.00  0.00     0.012 A
HETATM   51  C23 UNL     1      66.841 108.188  13.748  1.00  0.00     0.019 A
ENDBRANCH  41  42
ENDBRANCH  40  41
ENDBRANCH  35  40
ENDBRANCH   1  27
TORSDOF 15
ENDMDL