MODEL 1
REMARK VINA RESULT: -7.990966408      0.000      0.000
REMARK  16 active torsions:
REMARK  status: ('A' for Active; 'I' for Inactive)
REMARK    1  A    between atoms: C2_3  and  S1_4
REMARK    2  A    between atoms: S1_4  and  C3_5
REMARK    3  A    between atoms: C3_5  and  C4_6
REMARK    4  A    between atoms: C4_6  and  N2_7
REMARK    5  A    between atoms: N2_7  and  C5_9
REMARK    6  A    between atoms: C6_12  and  N4_13
REMARK    7  A    between atoms: N4_13  and  C7_15
REMARK    8  A    between atoms: C7_15  and  C8_16
REMARK    9  A    between atoms: C11_19  and  C12_20
REMARK   10  A    between atoms: C15_23  and  O1_24
REMARK   11  A    between atoms: O1_24  and  C16_25
REMARK   12  A    between atoms: C16_25  and  C17_26
REMARK   13  A    between atoms: C17_26  and  N5_27
REMARK   14  A    between atoms: C26_38  and  N7_39
REMARK   15  A    between atoms: N7_39  and  C27_41
REMARK   16  A    between atoms: C27_41  and  C28_42
ROOT
HETATM    1  N1  UNL     1      67.073 107.718  12.559  1.00  0.00    -0.197 NA
HETATM    2  C1  UNL     1      66.740 106.619  12.665  1.00  0.00     0.069 C
HETATM    3  C2  UNL     1      66.314 105.209  12.823  1.00  0.00     0.197 C
ENDROOT
BRANCH   3   4
HETATM    4  S1  UNL     1      67.678 104.096  12.493  1.00  0.00    -0.153 SA
BRANCH   4   5
HETATM    5  C3  UNL     1      68.529 103.527  13.971  1.00  0.00     0.095 C
BRANCH   5   6
HETATM    6  C4  UNL     1      69.990 103.873  14.008  1.00  0.00     0.148 C
BRANCH   6   7
HETATM    7  N2  UNL     1      70.341 104.922  14.906  1.00  0.00    -0.224 N
ATOM      8  H2  UNL     1      70.335 104.691  15.899  1.00  0.00     0.177 HD
BRANCH   7   9
HETATM    9  C5  UNL     1      70.664 106.126  14.600  1.00  0.00     0.707 A
HETATM   10  N3  UNL     1      71.970 106.428  14.415  1.00  0.00    -0.022 N
HETATM   11  C6  UNL     1      72.390 107.653  14.095  1.00  0.00     0.707 A
ATOM     12  H3  UNL     1      72.663 105.688  14.526  1.00  0.00     0.203 HD
HETATM   13  N6  UNL     1      71.469 108.647  13.946  1.00  0.00    -0.022 N
HETATM   14  C26 UNL     1      70.152 108.375  14.125  1.00  0.00     0.707 A
ATOM     15  H6  UNL     1      71.769 109.591  13.701  1.00  0.00     0.203 HD
HETATM   16  N8  UNL     1      69.773 107.118  14.449  1.00  0.00    -0.022 N
ATOM     17  H8  UNL     1      68.781 106.918  14.582  1.00  0.00     0.203 HD
BRANCH  11  18
HETATM   18  N4  UNL     1      73.602 108.013  13.901  1.00  0.00    -0.221 N
ATOM     19  H4  UNL     1      73.871 108.322  12.968  1.00  0.00     0.178 HD
BRANCH  18  20
HETATM   20  C7  UNL     1      74.598 108.005  14.924  1.00  0.00     0.176 C
BRANCH  20  21
HETATM   21  C8  UNL     1      74.477 109.299  15.656  1.00  0.00    -0.040 A
HETATM   22  C9  UNL     1      73.893 109.323  16.913  1.00  0.00     0.009 A
HETATM   23  C10 UNL     1      73.753 110.484  17.632  1.00  0.00     0.013 A
HETATM   24  C11 UNL     1      74.204 111.697  17.110  1.00  0.00    -0.026 A
HETATM   25  C24 UNL     1      74.783 111.657  15.861  1.00  0.00     0.013 A
HETATM   26  C25 UNL     1      74.921 110.499  15.145  1.00  0.00     0.009 A
BRANCH  24  27
HETATM   27  C12 UNL     1      74.048 112.938  17.865  1.00  0.00    -0.026 A
HETATM   28  C13 UNL     1      74.652 114.108  17.471  1.00  0.00     0.015 A
HETATM   29  C14 UNL     1      74.517 115.287  18.160  1.00  0.00     0.037 A
HETATM   30  C15 UNL     1      73.732 115.331  19.326  1.00  0.00     0.068 A
HETATM   31  C22 UNL     1      73.134 114.176  19.719  1.00  0.00     0.037 A
HETATM   32  C23 UNL     1      73.284 113.006  19.009  1.00  0.00     0.015 A
BRANCH  30  33
HETATM   33  O1  UNL     1      73.644 116.531  19.954  1.00  0.00    -0.349 OA
BRANCH  33  34
HETATM   34  C16 UNL     1      72.678 117.096  20.745  1.00  0.00     0.206 C
BRANCH  34  35
HETATM   35  C17 UNL     1      71.509 117.743  20.098  1.00  0.00     0.299 C
BRANCH  35  36
HETATM   36  N5  UNL     1      70.389 116.923  19.811  1.00  0.00     0.090 N
HETATM   37  C18 UNL     1      70.056 115.941  20.782  1.00  0.00     0.272 C
HETATM   38  C19 UNL     1      68.916 115.190  20.115  1.00  0.00     0.032 C
HETATM   39  C20 UNL     1      68.948 115.615  18.640  1.00  0.00     0.032 C
HETATM   40  C21 UNL     1      70.355 116.240  18.572  1.00  0.00     0.272 C
ENDBRANCH  35  36
ENDBRANCH  34  35
ENDBRANCH  33  34
ENDBRANCH  30  33
ENDBRANCH  24  27
ENDBRANCH  20  21
ENDBRANCH  18  20
ENDBRANCH  11  18
BRANCH  14  41
HETATM   41  N7  UNL     1      69.330 109.354  13.969  1.00  0.00    -0.219 N
ATOM     42  H7  UNL     1      69.211 109.735  13.031  1.00  0.00     0.178 HD
BRANCH  41  43
HETATM   43  C27 UNL     1      68.570 109.943  15.035  1.00  0.00     0.203 C
BRANCH  43  44
HETATM   44  C28 UNL     1      69.368 111.037  15.679  1.00  0.00     0.070 A
HETATM   45  C29 UNL     1      69.307 111.446  16.999  1.00  0.00     0.036 A
HETATM   46  C30 UNL     1      70.210 112.475  17.146  1.00  0.00     0.027 A
HETATM   47  C31 UNL     1      70.791 112.658  15.907  1.00  0.00     0.142 A
HETATM   48  O2  UNL     1      70.259 111.792  15.100  1.00  0.00    -0.325 OA
ENDBRANCH  43  44
ENDBRANCH  41  43
ENDBRANCH  14  41
ENDBRANCH   7   9
ENDBRANCH   6   7
ENDBRANCH   5   6
ENDBRANCH   4   5
ENDBRANCH   3   4
TORSDOF 16
ENDMDL