MODEL 2
REMARK VINA RESULT: -9.163406398      1.360      1.881
REMARK  15 active torsions:
REMARK  status: ('A' for Active; 'I' for Inactive)
REMARK    1  A    between atoms: C3_3  and  N1_4
REMARK    2  A    between atoms: N1_4  and  C4_5
REMARK    3  A    between atoms: N1_4  and  C26_37
REMARK    4  A    between atoms: C4_5  and  C5_6
REMARK    5  A    between atoms: C8_9  and  O1_10
REMARK    6  A    between atoms: O1_10  and  C9_11
REMARK    7  A    between atoms: C12_14  and  C13_15
REMARK    8  A    between atoms: C13_15  and  N2_16
REMARK    9  A    between atoms: C16_22  and  O2_23
REMARK   10  A    between atoms: O2_23  and  C17_24
REMARK   11  A    between atoms: C17_24  and  C18_25
REMARK   12  A    between atoms: C18_25  and  N5_26
REMARK   13  A    between atoms: N5_26  and  C19_28
REMARK   14  A    between atoms: C28_39  and  C29_40
REMARK   15  A    between atoms: C29_40  and  O3_43
ROOT
HETATM    1  C1  UNL     1      70.040 115.644  17.340  1.00  0.00     0.014 C
HETATM    2  C2  UNL     1      70.296 114.818  18.173  1.00  0.00    -0.098 C
HETATM    3  C3  UNL     1      70.628 113.819  19.209  1.00  0.00     0.218 C
ENDROOT
BRANCH   3   4
HETATM    4  N1  UNL     1      71.824 113.117  18.801  1.00  0.00    -0.345 N
BRANCH   4   5
HETATM    5  C4  UNL     1      71.845 111.674  18.552  1.00  0.00     0.164 C
BRANCH   5   6
HETATM    6  C5  UNL     1      70.831 111.387  17.494  1.00  0.00    -0.040 A
HETATM    7  C6  UNL     1      70.982 111.916  16.235  1.00  0.00     0.011 A
HETATM    8  C7  UNL     1      70.067 111.629  15.231  1.00  0.00     0.038 A
HETATM    9  C8  UNL     1      69.010 110.827  15.453  1.00  0.00     0.076 A
HETATM   10  C24 UNL     1      68.837 110.275  16.740  1.00  0.00     0.038 A
HETATM   11  C25 UNL     1      69.745 110.574  17.697  1.00  0.00     0.011 A
BRANCH   9  12
HETATM   12  O1  UNL     1      68.046 110.458  14.562  1.00  0.00    -0.308 OA
BRANCH  12  13
HETATM   13  C9  UNL     1      67.748 109.214  14.112  1.00  0.00     0.109 A
HETATM   14  C10 UNL     1      66.377 108.839  14.234  1.00  0.00     0.041 A
HETATM   15  C11 UNL     1      65.954 107.604  13.820  1.00  0.00     0.012 A
HETATM   16  C12 UNL     1      66.853 106.716  13.279  1.00  0.00    -0.038 A
HETATM   17  C15 UNL     1      68.157 107.099  13.173  1.00  0.00     0.048 A
HETATM   18  C16 UNL     1      68.647 108.328  13.575  1.00  0.00     0.103 A
BRANCH  16  19
HETATM   19  C13 UNL     1      66.457 105.346  12.799  1.00  0.00     0.160 C
BRANCH  19  20
HETATM   20  N2  UNL     1      67.620 104.463  12.827  1.00  0.00    -0.363 N
HETATM   21  C14 UNL     1      67.765 103.440  12.072  1.00  0.00     0.197 C
HETATM   22  N3  UNL     1      66.754 103.114  11.135  1.00  0.00    -0.067 NA
HETATM   23  N4  UNL     1      68.924 102.631  12.153  1.00  0.00    -0.067 NA
ATOM     24  H2  UNL     1      68.364 104.675  13.491  1.00  0.00     0.162 HD
ENDBRANCH  19  20
ENDBRANCH  16  19
BRANCH  18  25
HETATM   25  O2  UNL     1      69.978 108.642  13.456  1.00  0.00    -0.347 OA
BRANCH  25  26
HETATM   26  C17 UNL     1      70.956 107.788  12.874  1.00  0.00     0.195 C
BRANCH  26  27
HETATM   27  C18 UNL     1      71.979 107.375  13.924  1.00  0.00     0.148 C
BRANCH  27  28
HETATM   28  N5  UNL     1      71.948 108.291  15.032  1.00  0.00    -0.374 N
ATOM     29  H5  UNL     1      71.133 108.296  15.647  1.00  0.00     0.161 HD
BRANCH  28  30
HETATM   30  C19 UNL     1      72.929 109.115  15.276  1.00  0.00     0.100 A
HETATM   31  C20 UNL     1      73.495 109.081  16.535  1.00  0.00     0.048 A
HETATM   32  C21 UNL     1      74.544 109.943  16.820  1.00  0.00     0.005 A
HETATM   33  C22 UNL     1      74.998 110.817  15.848  1.00  0.00     0.017 A
HETATM   34  C23 UNL     1      74.414 110.835  14.589  1.00  0.00     0.089 A
HETATM   35  N6  UNL     1      73.398 109.983  14.343  1.00  0.00    -0.353 N
ATOM     36  H6  UNL     1      72.965 109.991  13.420  1.00  0.00     0.166 HD
ENDBRANCH  28  30
ENDBRANCH  27  28
ENDBRANCH  26  27
ENDBRANCH  25  26
ENDBRANCH  18  25
ENDBRANCH  12  13
ENDBRANCH   9  12
ENDBRANCH   5   6
ENDBRANCH   4   5
BRANCH   4  37
HETATM   37  C26 UNL     1      73.067 113.804  18.639  1.00  0.00     0.171 A
HETATM   38  C27 UNL     1      73.668 114.655  19.542  1.00  0.00     0.088 A
HETATM   39  C28 UNL     1      74.853 115.094  18.980  1.00  0.00     0.070 A
HETATM   40  N7  UNL     1      74.909 114.481  17.755  1.00  0.00    -0.260 N
HETATM   41  O4  UNL     1      73.849 113.743  17.606  1.00  0.00    -0.220 OA
ATOM     42  H7  UNL     1      75.659 114.587  17.071  1.00  0.00     0.194 HD
BRANCH  39  43
HETATM   43  C29 UNL     1      75.836 116.033  19.565  1.00  0.00     0.097 C
HETATM   44  C30 UNL     1      77.106 115.977  18.731  1.00  0.00     0.052 C
HETATM   45  C31 UNL     1      76.199 115.564  20.976  1.00  0.00     0.052 C
BRANCH  43  46
HETATM   46  O3  UNL     1      75.356 117.309  19.687  1.00  0.00    -0.379 OA
HETATM   47  C32 UNL     1      76.102 118.194  20.413  1.00  0.00     0.203 C
ENDBRANCH  43  46
ENDBRANCH  39  43
ENDBRANCH   4  37
ENDBRANCH   3   4
TORSDOF 15
ENDMDL