MODEL 2
REMARK VINA RESULT: -8.494316163      1.636      4.340
REMARK  18 active torsions:
REMARK  status: ('A' for Active; 'I' for Inactive)
REMARK    1  A    between atoms: O1_2  and  C2_3
REMARK    2  A    between atoms: C2_3  and  C3_5
REMARK       I    between atoms: N1_7  and  C5_9
REMARK    3  A    between atoms: C5_9  and  C6_11
REMARK    4  A    between atoms: C6_11  and  C7_12
REMARK    5  A    between atoms: C6_11  and  C28_41
REMARK    6  A    between atoms: C8_13  and  C9_14
REMARK    7  A    between atoms: C9_14  and  C11_16
REMARK       I    between atoms: C11_16  and  N2_18
REMARK    8  A    between atoms: N2_18  and  C12_20
REMARK    9  A    between atoms: C12_20  and  C13_21
REMARK   10  A    between atoms: C12_20  and  C17_25
REMARK   11  A    between atoms: C13_21  and  C14_22
REMARK   12  A    between atoms: C17_25  and  C18_27
REMARK   13  A    between atoms: C18_27  and  C19_28
REMARK   14  A    between atoms: C18_27  and  N3_32
REMARK   15  A    between atoms: C19_28  and  C20_29
REMARK       I    between atoms: N3_32  and  C23_34
REMARK   16  A    between atoms: C23_34  and  O7_36
REMARK   17  A    between atoms: O7_36  and  C24_37
REMARK   18  A    between atoms: C28_41  and  O8_44
ROOT
HETATM    1  C11 UNL     1      71.321 112.537  16.016  1.00  0.00     0.225 C
HETATM    2  O4  UNL     1      72.069 112.859  15.028  1.00  0.00    -0.273 OA
HETATM    3  N2  UNL     1      71.891 112.489  17.325  1.00  0.00    -0.349 N
ATOM      4  H2  UNL     1      71.303 112.217  18.113  1.00  0.00     0.163 HD
ENDROOT
BRANCH   3   5
HETATM    5  C12 UNL     1      73.284 112.816  17.561  1.00  0.00     0.156 C
BRANCH   5   6
HETATM    6  C13 UNL     1      74.109 111.582  17.597  1.00  0.00     0.037 C
BRANCH   6   7
HETATM    7  C14 UNL     1      75.206 111.417  16.627  1.00  0.00    -0.020 C
HETATM    8  C15 UNL     1      76.267 110.500  17.285  1.00  0.00     0.009 C
HETATM    9  C16 UNL     1      74.911 110.815  15.310  1.00  0.00     0.009 C
ENDBRANCH   6   7
ENDBRANCH   5   6
BRANCH   5  10
HETATM   10  C17 UNL     1      73.305 113.438  18.940  1.00  0.00     0.172 C
HETATM   11  O5  UNL     1      72.723 112.809  19.810  1.00  0.00    -0.293 OA
BRANCH  10  12
HETATM   12  C18 UNL     1      73.961 114.711  19.282  1.00  0.00     0.159 C
BRANCH  12  13
HETATM   13  C19 UNL     1      75.422 114.608  19.430  1.00  0.00     0.037 C
BRANCH  13  14
HETATM   14  C20 UNL     1      76.158 115.814  19.908  1.00  0.00    -0.020 C
HETATM   15  C21 UNL     1      76.724 115.760  21.273  1.00  0.00     0.009 C
HETATM   16  C22 UNL     1      77.273 116.175  18.923  1.00  0.00     0.009 C
ENDBRANCH  13  14
ENDBRANCH  12  13
BRANCH  12  17
HETATM   17  N3  UNL     1      73.227 115.312  20.360  1.00  0.00    -0.325 N
HETATM   18  C23 UNL     1      72.480 116.517  20.262  1.00  0.00     0.361 C
HETATM   19  O6  UNL     1      72.438 117.122  19.162  1.00  0.00    -0.238 OA
ATOM     20  H3  UNL     1      73.242 114.838  21.263  1.00  0.00     0.165 HD
BRANCH  18  21
HETATM   21  O7  UNL     1      71.793 117.061  21.318  1.00  0.00    -0.294 OA
BRANCH  21  22
HETATM   22  C24 UNL     1      70.423 117.051  21.547  1.00  0.00     0.061 C
HETATM   23  C25 UNL     1      70.238 117.051  23.072  1.00  0.00     0.046 C
HETATM   24  C26 UNL     1      69.705 118.260  21.025  1.00  0.00     0.046 C
HETATM   25  C27 UNL     1      69.741 115.803  21.030  1.00  0.00     0.046 C
ENDBRANCH  21  22
ENDBRANCH  18  21
ENDBRANCH  12  17
ENDBRANCH  10  12
ENDBRANCH   5  10
ENDBRANCH   3   5
BRANCH   1  26
HETATM   26  C9  UNL     1      69.906 112.244  15.716  1.00  0.00     0.096 C
HETATM   27  C10 UNL     1      69.228 112.047  17.073  1.00  0.00     0.024 C
BRANCH  26  28
HETATM   28  C8  UNL     1      69.680 111.090  14.839  1.00  0.00    -0.016 C
HETATM   29  C7  UNL     1      70.080 109.859  15.083  1.00  0.00    -0.013 C
BRANCH  29  30
HETATM   30  C6  UNL     1      69.855 108.695  14.203  1.00  0.00     0.134 C
BRANCH  30  31
HETATM   31  C5  UNL     1      71.144 108.042  13.818  1.00  0.00     0.232 C
HETATM   32  N1  UNL     1      72.283 108.008  14.586  1.00  0.00    -0.325 N
HETATM   33  C3  UNL     1      73.115 107.141  14.935  1.00  0.00     0.083 C
ATOM     34  H1  UNL     1      72.508 108.926  14.970  1.00  0.00     0.168 HD
HETATM   35  C4  UNL     1      74.242 107.615  15.826  1.00  0.00     0.075 C
HETATM   36  O3  UNL     1      71.151 107.478  12.666  1.00  0.00    -0.272 OA
BRANCH  33  37
HETATM   37  C2  UNL     1      73.097 105.748  14.572  1.00  0.00     0.305 C
HETATM   38  O2  UNL     1      74.017 105.312  13.800  1.00  0.00    -0.258 OA
BRANCH  37  39
HETATM   39  O1  UNL     1      72.181 104.798  14.969  1.00  0.00    -0.322 OA
HETATM   40  C1  UNL     1      72.533 103.619  15.690  1.00  0.00     0.213 C
ENDBRANCH  37  39
ENDBRANCH  33  37
ENDBRANCH  30  31
BRANCH  30  41
HETATM   41  C28 UNL     1      68.972 107.666  14.891  1.00  0.00     0.066 C
HETATM   42  C29 UNL     1      68.616 108.140  16.268  1.00  0.00     0.046 C
HETATM   43  C30 UNL     1      67.733 107.328  14.136  1.00  0.00     0.046 C
BRANCH  41  44
HETATM   44  O8  UNL     1      69.762 106.509  15.013  1.00  0.00    -0.389 OA
ATOM     45  H8  UNL     1      70.234 106.606  15.832  1.00  0.00     0.210 HD
ENDBRANCH  41  44
ENDBRANCH  30  41
ENDBRANCH  29  30
ENDBRANCH  26  28
ENDBRANCH   1  26
TORSDOF 18
ENDMDL