MODEL 2
REMARK VINA RESULT: -9.322922977      2.426      4.004
REMARK  12 active torsions:
REMARK  status: ('A' for Active; 'I' for Inactive)
REMARK    1  A    between atoms: C2_2  and  C3_3
REMARK    2  A    between atoms: C6_6  and  C7_7
REMARK    3  A    between atoms: C7_7  and  C8_8
REMARK    4  A    between atoms: C8_8  and  C9_9
REMARK    5  A    between atoms: C9_9  and  C10_11
REMARK    6  A    between atoms: C10_11  and  C11_12
REMARK    7  A    between atoms: C11_12  and  C12_13
REMARK    8  A    between atoms: C12_13  and  N1_14
REMARK    9  A    between atoms: C15_17  and  C16_18
REMARK   10  A    between atoms: C16_18  and  N2_19
REMARK       I    between atoms: N2_19  and  C17_21
REMARK   11  A    between atoms: C17_21  and  C18_23
REMARK   12  A    between atoms: C18_23  and  C21_26
ROOT
HETATM    1  C9  UNL     1      10.305  18.759  66.207  1.00  0.00     0.127 C
HETATM    2  O1  UNL     1      11.096  19.021  67.083  1.00  0.00    -0.298 OA
ENDROOT
BRANCH   1   3
HETATM    3  C8  UNL     1       8.823  18.857  66.509  1.00  0.00     0.079 C
BRANCH   3   4
HETATM    4  C7  UNL     1       8.248  17.530  66.839  1.00  0.00     0.012 C
BRANCH   4   5
HETATM    5  C6  UNL     1       7.270  17.029  65.776  1.00  0.00    -0.014 C
HETATM    6  C5  UNL     1       5.836  17.053  66.262  1.00  0.00     0.008 C
HETATM    7  C4  UNL     1       5.062  17.992  65.411  1.00  0.00     0.046 C
HETATM    8  C3  UNL     1       3.629  17.794  65.233  1.00  0.00     0.140 C
HETATM    9  C31 UNL     1       3.074  16.642  64.556  1.00  0.00     0.188 C
HETATM   10  O4  UNL     1       2.903  17.309  66.319  1.00  0.00    -0.224 OA
HETATM   11  C30 UNL     1       3.892  15.755  63.724  1.00  0.00     0.057 C
HETATM   12  S1  UNL     1       1.420  16.852  63.818  1.00  0.00    -0.049 SA
HETATM   13  O3  UNL     1       2.909  16.087  65.835  1.00  0.00    -0.213 OA
HETATM   14  C29 UNL     1       4.323  16.258  62.387  1.00  0.00     0.004 C
HETATM   15  C28 UNL     1       5.209  15.248  61.722  1.00  0.00     0.000 C
HETATM   16  C27 UNL     1       6.449  14.880  62.455  1.00  0.00     0.000 C
HETATM   17  C26 UNL     1       7.389  16.004  62.727  1.00  0.00     0.000 C
HETATM   18  C25 UNL     1       8.322  15.794  63.856  1.00  0.00     0.000 C
HETATM   19  C24 UNL     1       7.714  15.716  65.225  1.00  0.00     0.004 C
BRANCH   8  20
HETATM   20  C2  UNL     1       3.009  19.091  64.673  1.00  0.00     0.041 C
HETATM   21  C1  UNL     1       3.786  20.301  65.101  1.00  0.00     0.008 C
ENDBRANCH   8  20
ENDBRANCH   4   5
ENDBRANCH   3   4
ENDBRANCH   1   3
BRANCH   1  22
HETATM   22  C10 UNL     1      10.705  18.341  64.841  1.00  0.00     0.083 C
BRANCH  22  23
HETATM   23  C11 UNL     1       9.869  18.917  63.753  1.00  0.00     0.052 C
BRANCH  23  24
HETATM   24  C12 UNL     1      10.532  19.261  62.483  1.00  0.00     0.058 C
BRANCH  24  25
HETATM   25  N1  UNL     1      11.781  19.883  62.475  1.00  0.00    -0.393 N
HETATM   26  C13 UNL     1      12.966  19.299  62.072  1.00  0.00     0.122 C
HETATM   27  C14 UNL     1      13.947  20.479  61.712  1.00  0.00     0.029 C
HETATM   28  C15 UNL     1      14.267  21.094  63.025  1.00  0.00     0.027 C
HETATM   29  C22 UNL     1      12.991  21.731  63.593  1.00  0.00     0.029 C
HETATM   30  C23 UNL     1      11.783  21.272  62.845  1.00  0.00     0.122 C
BRANCH  28  31
HETATM   31  C16 UNL     1      15.421  22.003  63.140  1.00  0.00     0.068 C
BRANCH  31  32
HETATM   32  N2  UNL     1      15.406  23.120  63.988  1.00  0.00    -0.340 N
HETATM   33  C17 UNL     1      16.459  23.847  64.542  1.00  0.00     0.238 C
HETATM   34  O2  UNL     1      17.648  23.565  64.343  1.00  0.00    -0.272 OA
ATOM     35  H2  UNL     1      14.476  23.453  64.241  1.00  0.00     0.167 HD
BRANCH  33  36
HETATM   36  C18 UNL     1      16.180  25.031  65.420  1.00  0.00     0.131 C
HETATM   37  C19 UNL     1      14.761  25.527  65.210  1.00  0.00     0.034 C
HETATM   38  C20 UNL     1      17.123  26.162  65.072  1.00  0.00     0.034 C
BRANCH  36  39
HETATM   39  C21 UNL     1      16.413  24.653  66.851  1.00  0.00     0.403 C
HETATM   40  F1  UNL     1      17.715  24.218  66.999  1.00  0.00    -0.170 F
HETATM   41  F2  UNL     1      16.124  25.725  67.670  1.00  0.00    -0.170 F
HETATM   42  F3  UNL     1      15.573  23.618  67.248  1.00  0.00    -0.170 F
ENDBRANCH  36  39
ENDBRANCH  33  36
ENDBRANCH  31  32
ENDBRANCH  28  31
ENDBRANCH  24  25
ENDBRANCH  23  24
ENDBRANCH  22  23
ENDBRANCH   1  22
TORSDOF 12
ENDMDL