MODEL 1
REMARK VINA RESULT: -8.951279628      0.000      0.000
REMARK  14 active torsions:
REMARK  status: ('A' for Active; 'I' for Inactive)
REMARK    1  A    between atoms: O1_2  and  C2_3
REMARK    2  A    between atoms: C5_6  and  C6_7
REMARK    3  A    between atoms: C6_7  and  C7_9
REMARK    4  A    between atoms: C8_10  and  C9_11
REMARK    5  A    between atoms: C11_13  and  C12_14
REMARK    6  A    between atoms: C13_17  and  C14_18
REMARK    7  A    between atoms: C18_22  and  N1_23
REMARK    8  A    between atoms: N1_23  and  C19_24
REMARK    9  A    between atoms: N1_23  and  C21_27
REMARK   10  A    between atoms: C19_24  and  C20_25
REMARK   11  A    between atoms: C21_27  and  C22_28
REMARK   12  A    between atoms: C25_32  and  N2_33
REMARK       I    between atoms: N2_33  and  C26_35
REMARK   13  A    between atoms: C26_35  and  O6_37
REMARK   14  A    between atoms: O6_37  and  C27_38
ROOT
HETATM    1  C7  UNL     1      12.458  21.070  63.412  1.00  0.00     0.056 C
HETATM    2  C8  UNL     1      13.417  21.316  64.283  1.00  0.00     0.015 C
ENDROOT
BRANCH   2   3
HETATM    3  C9  UNL     1      14.613  22.046  63.918  1.00  0.00    -0.033 A
HETATM    4  C10 UNL     1      15.211  22.916  64.763  1.00  0.00     0.030 A
HETATM    5  C11 UNL     1      16.389  23.654  64.461  1.00  0.00     0.050 A
HETATM    6  C13 UNL     1      16.964  23.455  63.178  1.00  0.00    -0.007 A
HETATM    7  C18 UNL     1      16.383  22.586  62.302  1.00  0.00     0.039 A
HETATM    8  C23 UNL     1      15.194  21.885  62.703  1.00  0.00     0.041 A
BRANCH   5   9
HETATM    9  C12 UNL     1      16.849  24.511  65.481  1.00  0.00     0.210 C
HETATM   10  O3  UNL     1      16.196  25.686  65.510  1.00  0.00    -0.644 OA
HETATM   11  O4  UNL     1      17.776  24.509  66.459  1.00  0.00    -0.644 OA
ENDBRANCH   5   9
BRANCH   6  12
HETATM   12  C14 UNL     1      18.153  24.211  62.871  1.00  0.00    -0.021 C
HETATM   13  C15 UNL     1      18.640  25.197  63.901  1.00  0.00     0.019 C
HETATM   14  C16 UNL     1      18.096  25.024  61.584  1.00  0.00     0.019 C
HETATM   15  C17 UNL     1      19.393  23.280  62.748  1.00  0.00     0.019 C
ENDBRANCH   6  12
BRANCH   7  16
HETATM   16  N1  UNL     1      16.629  22.216  60.975  1.00  0.00    -0.378 N
BRANCH  16  17
HETATM   17  C19 UNL     1      17.784  21.473  60.563  1.00  0.00     0.138 C
BRANCH  17  18
HETATM   18  C20 UNL     1      18.494  22.206  59.397  1.00  0.00     0.134 C
HETATM   19 CL1  UNL     1      20.092  21.441  59.258  1.00  0.00    -0.129 Cl
ENDBRANCH  17  18
ENDBRANCH  16  17
BRANCH  16  20
HETATM   20  C21 UNL     1      15.825  22.795  59.923  1.00  0.00     0.138 C
BRANCH  20  21
HETATM   21  C22 UNL     1      14.751  21.987  59.327  1.00  0.00     0.134 C
HETATM   22 CL2  UNL     1      15.456  21.012  57.998  1.00  0.00    -0.129 Cl
ENDBRANCH  20  21
ENDBRANCH  16  20
ENDBRANCH   7  16
ENDBRANCH   2   3
BRANCH   1  23
HETATM   23  C6  UNL     1      11.259  20.333  63.799  1.00  0.00     0.182 C
HETATM   24  O2  UNL     1      10.619  20.748  64.793  1.00  0.00    -0.288 OA
BRANCH  23  25
HETATM   25  C5  UNL     1      10.829  19.162  63.057  1.00  0.00     0.016 A
HETATM   26  C4  UNL     1      11.604  18.518  62.141  1.00  0.00     0.018 A
HETATM   27  C3  UNL     1      11.133  17.419  61.481  1.00  0.00     0.040 A
HETATM   28  C2  UNL     1       9.885  16.933  61.712  1.00  0.00     0.095 A
HETATM   29  C25 UNL     1       9.046  17.567  62.650  1.00  0.00     0.071 A
HETATM   30  C24 UNL     1       9.537  18.653  63.291  1.00  0.00     0.048 A
BRANCH  28  31
HETATM   31  O1  UNL     1       9.385  15.827  61.060  1.00  0.00    -0.354 OA
HETATM   32  C1  UNL     1       9.655  15.612  59.687  1.00  0.00     0.210 C
ENDBRANCH  28  31
BRANCH  29  33
HETATM   33  N2  UNL     1       7.773  17.040  62.867  1.00  0.00    -0.300 N
HETATM   34  C26 UNL     1       7.431  15.891  63.587  1.00  0.00     0.366 C
HETATM   35  O5  UNL     1       8.266  15.172  64.147  1.00  0.00    -0.238 OA
ATOM     36  H2  UNL     1       6.997  17.555  62.451  1.00  0.00     0.171 HD
BRANCH  34  37
HETATM   37  O6  UNL     1       6.057  15.523  63.687  1.00  0.00    -0.294 OA
BRANCH  37  38
HETATM   38  C27 UNL     1       5.348  15.326  62.466  1.00  0.00     0.061 C
HETATM   39  C28 UNL     1       4.669  13.984  62.457  1.00  0.00     0.046 C
HETATM   40  C29 UNL     1       6.316  15.398  61.289  1.00  0.00     0.046 C
HETATM   41  C30 UNL     1       4.297  16.409  62.370  1.00  0.00     0.046 C
ENDBRANCH  37  38
ENDBRANCH  34  37
ENDBRANCH  29  33
ENDBRANCH  23  25
ENDBRANCH   1  23
TORSDOF 14
ENDMDL