MODEL 5
REMARK VINA RESULT: -7.980129636      2.819      3.485
REMARK  12 active torsions:
REMARK  status: ('A' for Active; 'I' for Inactive)
REMARK    1  A    between atoms: S1_2  and  C2_3
REMARK    2  A    between atoms: C2_3  and  C3_4
REMARK       I    between atoms: C3_4  and  N1_6
REMARK    3  A    between atoms: N1_6  and  C4_8
REMARK    4  A    between atoms: C7_11  and  C8_12
REMARK    5  A    between atoms: C8_12  and  N2_13
REMARK    6  A    between atoms: N2_13  and  C9_15
REMARK    7  A    between atoms: C9_15  and  C10_16
REMARK    8  A    between atoms: C10_16  and  C11_17
REMARK    9  A    between atoms: C11_17  and  N3_18
REMARK   10  A    between atoms: N3_18  and  C13_20
REMARK   11  A    between atoms: C14_23  and  C15_24
REMARK   12  A    between atoms: C17_26  and  C18_27
ROOT
HETATM    1  N3  UNL     1      15.208  21.996  60.723  1.00  0.00    -0.366 N
HETATM    2  C12 UNL     1      14.719  21.884  59.372  1.00  0.00     0.151 C
ENDROOT
BRANCH   1   3
HETATM    3  C11 UNL     1      14.410  21.550  61.812  1.00  0.00     0.126 C
BRANCH   3   4
HETATM    4  C10 UNL     1      14.617  20.161  62.294  1.00  0.00     0.039 C
BRANCH   4   5
HETATM    5  C9  UNL     1      14.730  19.945  63.757  1.00  0.00     0.115 C
BRANCH   5   6
HETATM    6  N2  UNL     1      13.666  19.062  64.187  1.00  0.00    -0.421 N
ATOM      7  H2  UNL     1      13.819  18.068  64.357  1.00  0.00     0.153 HD
BRANCH   6   8
HETATM    8  C8  UNL     1      12.395  19.672  64.358  1.00  0.00     0.118 C
BRANCH   8   9
HETATM    9  C7  UNL     1      11.258  18.727  63.992  1.00  0.00     0.003 C
HETATM   10  C6  UNL     1       9.972  19.221  64.679  1.00  0.00     0.008 C
HETATM   11  C5  UNL     1       8.936  18.123  64.475  1.00  0.00     0.026 C
HETATM   12  C4  UNL     1       9.144  17.418  63.177  1.00  0.00     0.084 C
HETATM   13  C26 UNL     1       9.614  18.415  62.137  1.00  0.00     0.026 C
HETATM   14  C25 UNL     1      10.987  18.960  62.493  1.00  0.00     0.008 C
BRANCH  12  15
HETATM   15  N1  UNL     1       7.984  16.738  62.668  1.00  0.00    -0.356 N
HETATM   16  C3  UNL     1       8.022  15.515  61.971  1.00  0.00     0.227 C
HETATM   17  O1  UNL     1       9.062  14.897  61.727  1.00  0.00    -0.273 OA
ATOM     18  H1  UNL     1       7.073  17.171  62.820  1.00  0.00     0.162 HD
BRANCH  16  19
HETATM   19  C2  UNL     1       6.722  14.920  61.490  1.00  0.00     0.176 C
BRANCH  19  20
HETATM   20  S1  UNL     1       5.340  15.917  62.077  1.00  0.00    -0.164 SA
HETATM   21  C1  UNL     1       4.099  14.898  62.885  1.00  0.00     0.090 C
ENDBRANCH  19  20
ENDBRANCH  16  19
ENDBRANCH  12  15
ENDBRANCH   8   9
ENDBRANCH   6   8
ENDBRANCH   5   6
ENDBRANCH   4   5
ENDBRANCH   3   4
ENDBRANCH   1   3
BRANCH   1  22
HETATM   22  C13 UNL     1      16.488  22.599  60.936  1.00  0.00     0.146 A
HETATM   23  N4  UNL     1      16.808  23.778  61.416  1.00  0.00    -0.336 N
HETATM   24  C14 UNL     1      18.050  24.125  61.550  1.00  0.00     0.052 A
ATOM     25  H4  UNL     1      16.071  24.429  61.687  1.00  0.00     0.168 HD
HETATM   26  C24 UNL     1      19.008  23.215  61.172  1.00  0.00     0.083 A
HETATM   27  S2  UNL     1      18.051  21.907  60.643  1.00  0.00    -0.064 SA
BRANCH  24  28
HETATM   28  C15 UNL     1      18.443  25.460  62.078  1.00  0.00     0.013 A
HETATM   29  C16 UNL     1      18.767  26.494  61.229  1.00  0.00     0.026 A
HETATM   30  C17 UNL     1      19.127  27.739  61.695  1.00  0.00    -0.013 A
HETATM   31  C21 UNL     1      19.170  27.983  63.040  1.00  0.00     0.043 A
HETATM   32 CL2  UNL     1      19.622  29.548  63.714  1.00  0.00    -0.084 Cl
HETATM   33  C22 UNL     1      18.845  26.956  63.935  1.00  0.00     0.049 A
HETATM   34  C23 UNL     1      18.491  25.721  63.430  1.00  0.00     0.048 A
HETATM   35 CL3  UNL     1      18.085  24.441  64.586  1.00  0.00    -0.083 Cl
BRANCH  30  36
HETATM   36  C18 UNL     1      19.490  28.833  60.761  1.00  0.00     0.058 C
HETATM   37  C19 UNL     1      20.996  29.071  60.769  1.00  0.00     0.037 C
HETATM   38  C20 UNL     1      18.725  30.081  61.158  1.00  0.00     0.037 C
HETATM   39 CL1  UNL     1      19.026  28.353  59.111  1.00  0.00    -0.115 Cl
ENDBRANCH  30  36
ENDBRANCH  24  28
ENDBRANCH   1  22
TORSDOF 12
ENDMDL