MODEL 3
REMARK VINA RESULT: -8.477066096      2.140      3.206
REMARK  15 active torsions:
REMARK  status: ('A' for Active; 'I' for Inactive)
REMARK    1  A    between atoms: C2_2  and  C3_3
REMARK    2  A    between atoms: C2_2  and  C6_8
REMARK    3  A    between atoms: C3_3  and  O1_4
REMARK    4  A    between atoms: O1_4  and  C4_5
REMARK    5  A    between atoms: C16_19  and  C17_20
REMARK    6  A    between atoms: C17_20  and  C18_21
REMARK    7  A    between atoms: C18_21  and  C19_22
REMARK    8  A    between atoms: C19_22  and  C20_23
REMARK    9  A    between atoms: C20_23  and  C21_24
REMARK   10  A    between atoms: C21_24  and  C22_25
REMARK   11  A    between atoms: C22_25  and  N1_26
REMARK   12  A    between atoms: N1_26  and  C23_28
REMARK   13  A    between atoms: C23_28  and  N2_30
REMARK   14  A    between atoms: N2_30  and  C24_32
REMARK   15  A    between atoms: C26_34  and  C27_35
ROOT
HETATM    1  C17 UNL     1      13.302  21.651  65.377  1.00  0.00     0.033 C
ENDROOT
BRANCH   1   2
HETATM    2  C16 UNL     1      12.538  21.266  64.191  1.00  0.00     0.130 C
HETATM    3  O3  UNL     1      11.747  22.033  63.450  1.00  0.00    -0.385 OA
HETATM    4  C15 UNL     1      11.256  21.227  62.418  1.00  0.00     0.173 C
HETATM    5  C14 UNL     1      11.344  19.794  62.918  1.00  0.00     0.022 C
HETATM    6  C13 UNL     1       9.926  19.268  63.219  1.00  0.00     0.022 C
HETATM    7  C29 UNL     1      12.060  19.821  64.243  1.00  0.00    -0.004 C
HETATM    8  C11 UNL     1      10.205  18.402  64.366  1.00  0.00    -0.011 C
HETATM    9  C6  UNL     1       9.272  17.786  65.271  1.00  0.00    -0.063 C
HETATM   10  C9  UNL     1      11.015  19.449  65.177  1.00  0.00    -0.022 C
HETATM   11  C12 UNL     1      11.085  17.297  63.837  1.00  0.00     0.021 C
HETATM   12  C7  UNL     1       9.817  18.184  66.649  1.00  0.00     0.036 C
HETATM   13  C8  UNL     1      11.247  18.651  66.388  1.00  0.00     0.015 C
HETATM   14  C10 UNL     1      10.117  20.559  65.610  1.00  0.00     0.017 C
HETATM   15  C30 UNL     1      13.337  19.008  64.299  1.00  0.00     0.019 C
BRANCH   9  16
HETATM   16  C2  UNL     1       7.848  17.769  65.161  1.00  0.00    -0.040 C
HETATM   17  C1  UNL     1       7.011  18.719  65.478  1.00  0.00     0.021 C
BRANCH  16  18
HETATM   18  C3  UNL     1       7.228  16.497  64.578  1.00  0.00     0.216 C
BRANCH  18  19
HETATM   19  O1  UNL     1       7.671  16.222  63.388  1.00  0.00    -0.317 OA
BRANCH  19  20
HETATM   20  C4  UNL     1       8.080  15.839  62.237  1.00  0.00     0.255 C
HETATM   21  C5  UNL     1       8.546  16.669  61.071  1.00  0.00     0.126 C
HETATM   22  O2  UNL     1       8.099  14.563  62.041  1.00  0.00    -0.266 OA
ENDBRANCH  19  20
ENDBRANCH  18  19
ENDBRANCH  16  18
ENDBRANCH   9  16
ENDBRANCH   1   2
BRANCH   1  23
HETATM   23  C18 UNL     1      14.690  22.131  65.097  1.00  0.00     0.002 C
BRANCH  23  24
HETATM   24  C19 UNL     1      14.727  22.810  63.693  1.00  0.00     0.000 C
BRANCH  24  25
HETATM   25  C20 UNL     1      15.596  21.957  62.840  1.00  0.00     0.002 C
BRANCH  25  26
HETATM   26  C21 UNL     1      15.632  22.047  61.388  1.00  0.00     0.020 C
BRANCH  26  27
HETATM   27  C22 UNL     1      16.714  21.361  60.632  1.00  0.00     0.122 C
BRANCH  27  28
HETATM   28  N1  UNL     1      18.035  21.674  61.122  1.00  0.00    -0.367 N
ATOM     29  H1  UNL     1      18.516  20.978  61.690  1.00  0.00     0.161 HD
BRANCH  28  30
HETATM   30  C23 UNL     1      18.706  22.909  60.853  1.00  0.00     0.173 C
HETATM   31  S1  UNL     1      18.930  23.278  59.295  1.00  0.00    -0.041 SA
BRANCH  30  32
HETATM   32  N2  UNL     1      19.189  23.675  61.901  1.00  0.00    -0.318 N
ATOM     33  H2  UNL     1      20.170  23.493  62.113  1.00  0.00     0.170 HD
BRANCH  32  34
HETATM   34  C24 UNL     1      18.614  24.650  62.733  1.00  0.00     0.126 A
HETATM   35  C25 UNL     1      18.098  24.244  63.991  1.00  0.00     0.085 A
HETATM   36  C26 UNL     1      17.540  25.333  64.599  1.00  0.00     0.136 A
HETATM   37  N3  UNL     1      17.704  26.345  63.756  1.00  0.00    -0.293 N
HETATM   38  N4  UNL     1      18.351  25.930  62.631  1.00  0.00    -0.281 N
ATOM     39  H3  UNL     1      17.389  27.300  63.926  1.00  0.00     0.187 HD
HETATM   40  C28 UNL     1      18.591  26.806  61.502  1.00  0.00     0.179 C
BRANCH  36  41
HETATM   41  C27 UNL     1      16.898  25.375  65.963  1.00  0.00     0.434 C
HETATM   42  F1  UNL     1      15.532  25.321  65.742  1.00  0.00    -0.165 F
HETATM   43  F2  UNL     1      17.349  24.319  66.680  1.00  0.00    -0.165 F
HETATM   44  F3  UNL     1      17.213  26.546  66.627  1.00  0.00    -0.165 F
ENDBRANCH  36  41
ENDBRANCH  32  34
ENDBRANCH  30  32
ENDBRANCH  28  30
ENDBRANCH  27  28
ENDBRANCH  26  27
ENDBRANCH  25  26
ENDBRANCH  24  25
ENDBRANCH  23  24
ENDBRANCH   1  23
TORSDOF 15
ENDMDL