MODEL 3
REMARK VINA RESULT: -8.544732640      1.109      2.231
REMARK  14 active torsions:
REMARK  status: ('A' for Active; 'I' for Inactive)
REMARK    1  A    between atoms: C2_2  and  C3_3
REMARK    2  A    between atoms: C3_3  and  C4_4
REMARK    3  A    between atoms: C4_4  and  O2_6
REMARK    4  A    between atoms: O2_6  and  C5_7
REMARK    5  A    between atoms: C6_8  and  O3_9
REMARK    6  A    between atoms: C15_19  and  C16_20
REMARK    7  A    between atoms: C16_20  and  C17_23
REMARK    8  A    between atoms: C17_23  and  N1_24
REMARK    9  A    between atoms: N1_24  and  O4_25
REMARK   10  A    between atoms: O4_25  and  C18_26
REMARK   11  A    between atoms: C18_26  and  C19_27
REMARK   12  A    between atoms: C19_27  and  C20_30
REMARK   13  A    between atoms: C20_30  and  N2_31
REMARK   14  A    between atoms: N2_31  and  C21_34
ROOT
HETATM    1  C5  UNL     1      17.736  25.415  60.843  1.00  0.00     0.169 C
HETATM    2  C6  UNL     1      18.630  25.562  62.039  1.00  0.00     0.148 C
HETATM    3  C7  UNL     1      19.160  24.306  62.608  1.00  0.00     0.039 C
HETATM    4  C8  UNL     1      18.040  23.284  62.730  1.00  0.00    -0.003 C
HETATM    5  C9  UNL     1      17.053  23.846  63.720  1.00  0.00     0.006 C
HETATM    6  C10 UNL     1      16.045  22.796  64.174  1.00  0.00     0.006 C
HETATM    7  C11 UNL     1      15.984  21.754  63.100  1.00  0.00    -0.005 C
HETATM    8  C12 UNL     1      14.985  20.711  63.247  1.00  0.00    -0.001 C
HETATM    9  C13 UNL     1      14.390  20.534  64.621  1.00  0.00     0.006 C
HETATM   10  C14 UNL     1      13.294  19.516  64.323  1.00  0.00     0.012 C
HETATM   11  C15 UNL     1      13.173  19.456  62.828  1.00  0.00     0.073 C
HETATM   12  C24 UNL     1      13.714  20.791  62.411  1.00  0.00    -0.030 C
HETATM   13  C25 UNL     1      12.797  21.875  62.861  1.00  0.00     0.016 C
HETATM   14  C26 UNL     1      14.160  20.911  60.996  1.00  0.00     0.010 C
HETATM   15  C27 UNL     1      15.585  21.313  60.802  1.00  0.00     0.006 C
HETATM   16  C28 UNL     1      16.011  22.422  61.714  1.00  0.00    -0.001 C
HETATM   17  C29 UNL     1      17.395  22.961  61.400  1.00  0.00    -0.027 C
HETATM   18  C30 UNL     1      18.201  21.757  60.882  1.00  0.00     0.016 C
HETATM   19  C31 UNL     1      17.466  24.027  60.382  1.00  0.00    -0.010 C
HETATM   20  C32 UNL     1      18.623  23.720  59.388  1.00  0.00     0.018 C
HETATM   21  C33 UNL     1      16.274  24.092  59.448  1.00  0.00     0.018 C
ENDROOT
BRANCH  11  22
HETATM   22  C16 UNL     1      11.961  18.904  62.284  1.00  0.00     0.294 C
HETATM   23  F1  UNL     1      11.964  18.663  60.938  1.00  0.00    -0.198 F
HETATM   24  F2  UNL     1      11.846  17.596  62.839  1.00  0.00    -0.198 F
BRANCH  22  25
HETATM   25  C17 UNL     1      10.654  19.522  62.637  1.00  0.00     0.269 C
BRANCH  25  26
HETATM   26  N1  UNL     1       9.903  19.060  63.408  1.00  0.00    -0.292 NA
BRANCH  26  27
HETATM   27  O4  UNL     1       9.090  18.566  64.244  1.00  0.00    -0.204 OA
BRANCH  27  28
HETATM   28  C18 UNL     1       9.163  17.245  64.819  1.00  0.00     0.298 C
BRANCH  28  29
HETATM   29  C19 UNL     1       7.996  16.429  64.419  1.00  0.00     0.291 C
HETATM   30  F3  UNL     1       6.797  17.040  64.785  1.00  0.00    -0.202 F
HETATM   31  F4  UNL     1       8.028  15.232  65.204  1.00  0.00    -0.202 F
BRANCH  29  32
HETATM   32  C20 UNL     1       7.905  15.980  63.006  1.00  0.00     0.313 C
BRANCH  32  33
HETATM   33  N2  UNL     1       9.112  16.196  62.275  1.00  0.00    -0.066 N
ATOM     34  H22 UNL     1       9.309  17.192  62.173  1.00  0.00     0.277 HD
ATOM     35  H21 UNL     1       9.930  15.925  62.822  1.00  0.00     0.277 HD
BRANCH  33  36
HETATM   36  C21 UNL     1       9.096  15.525  60.984  1.00  0.00     0.178 C
HETATM   37  C22 UNL     1       9.905  16.201  59.933  1.00  0.00     0.039 C
HETATM   38  C23 UNL     1       7.649  15.472  60.492  1.00  0.00     0.039 C
ENDBRANCH  33  36
ENDBRANCH  32  33
ENDBRANCH  29  32
ENDBRANCH  28  29
ENDBRANCH  27  28
ENDBRANCH  26  27
ENDBRANCH  25  26
ENDBRANCH  22  25
ENDBRANCH  11  22
BRANCH   1  39
HETATM   39  O2  UNL     1      18.419  26.095  59.777  1.00  0.00    -0.313 OA
BRANCH  39  40
HETATM   40  C4  UNL     1      18.111  27.352  59.333  1.00  0.00     0.259 C
HETATM   41  O1  UNL     1      17.936  28.266  60.199  1.00  0.00    -0.265 OA
BRANCH  40  42
HETATM   42  C3  UNL     1      17.962  27.758  57.932  1.00  0.00     0.111 C
BRANCH  42  43
HETATM   43  C2  UNL     1      17.012  26.941  57.133  1.00  0.00     0.005 C
HETATM   44  C1  UNL     1      15.596  27.116  57.628  1.00  0.00     0.005 C
ENDBRANCH  42  43
ENDBRANCH  40  42
ENDBRANCH  39  40
ENDBRANCH   1  39
BRANCH   2  45
HETATM   45  O3  UNL     1      19.674  26.461  61.856  1.00  0.00    -0.393 OA
ATOM     46  H3  UNL     1      20.076  26.416  60.996  1.00  0.00     0.210 HD
ENDBRANCH   2  45
TORSDOF 14
ENDMDL