MODEL 3
REMARK VINA RESULT: -7.144478947      1.088      1.507
REMARK  13 active torsions:
REMARK  status: ('A' for Active; 'I' for Inactive)
REMARK    1  A    between atoms: C4_4  and  N1_5
REMARK       I    between atoms: N1_5  and  C6_7
REMARK    2  A    between atoms: C6_7  and  O2_9
REMARK    3  A    between atoms: O2_9  and  C7_10
REMARK    4  A    between atoms: C7_10  and  C8_11
REMARK    5  A    between atoms: C11_17  and  C12_18
REMARK       I    between atoms: C12_18  and  N2_20
REMARK    6  A    between atoms: N2_20  and  C13_21
REMARK    7  A    between atoms: N2_20  and  C17_25
REMARK    8  A    between atoms: C13_21  and  C14_22
REMARK    9  A    between atoms: C19_27  and  N3_28
REMARK       I    between atoms: N3_28  and  C20_30
REMARK   10  A    between atoms: C20_30  and  O5_32
REMARK   11  A    between atoms: O5_32  and  C21_33
REMARK   12  A    between atoms: C21_33  and  C22_34
REMARK   13  A    between atoms: C26_38  and  C27_39
ROOT
HETATM    1  C12 UNL     1       7.012  18.131  65.636  1.00  0.00     0.264 C
HETATM    2  O3  UNL     1       7.747  19.174  65.668  1.00  0.00    -0.267 OA
HETATM    3  N2  UNL     1       7.369  17.101  64.745  1.00  0.00    -0.292 N
ENDROOT
BRANCH   3   4
HETATM    4  C13 UNL     1       6.526  15.990  64.536  1.00  0.00     0.077 C
BRANCH   4   5
HETATM    5  C14 UNL     1       5.390  15.993  63.613  1.00  0.00     0.016 C
HETATM    6  C15 UNL     1       5.749  14.900  62.540  1.00  0.00     0.015 C
HETATM    7  C16 UNL     1       4.043  15.588  64.076  1.00  0.00     0.015 C
ENDBRANCH   4   5
ENDBRANCH   3   4
BRANCH   3   8
HETATM    8  C17 UNL     1       8.563  17.336  63.962  1.00  0.00     0.044 A
HETATM    9  C18 UNL     1       9.619  17.981  64.620  1.00  0.00     0.059 A
HETATM   10  C19 UNL     1      10.853  18.273  64.030  1.00  0.00     0.040 A
HETATM   11  C25 UNL     1      11.027  17.898  62.719  1.00  0.00     0.048 A
HETATM   12  C26 UNL     1      10.008  17.264  62.056  1.00  0.00     0.045 A
HETATM   13  C28 UNL     1       8.784  16.985  62.677  1.00  0.00     0.048 A
BRANCH  10  14
HETATM   14  N3  UNL     1      11.800  18.919  64.843  1.00  0.00    -0.303 N
HETATM   15  C20 UNL     1      11.948  20.305  64.930  1.00  0.00     0.365 C
HETATM   16  O4  UNL     1      11.254  21.128  64.301  1.00  0.00    -0.238 OA
ATOM     17  H3  UNL     1      12.420  18.338  65.406  1.00  0.00     0.171 HD
BRANCH  15  18
HETATM   18  O5  UNL     1      12.934  20.878  65.768  1.00  0.00    -0.303 OA
BRANCH  18  19
HETATM   19  C21 UNL     1      14.163  21.228  65.174  1.00  0.00     0.184 C
BRANCH  19  20
HETATM   20  C22 UNL     1      14.351  22.735  65.176  1.00  0.00     0.002 C
HETATM   21  C23 UNL     1      15.544  23.134  64.347  1.00  0.00     0.011 C
HETATM   22  C24 UNL     1      14.509  23.224  66.611  1.00  0.00     0.011 C
ENDBRANCH  19  20
ENDBRANCH  18  19
ENDBRANCH  15  18
ENDBRANCH  10  14
BRANCH  12  23
HETATM   23  C27 UNL     1      10.190  16.868  60.661  1.00  0.00     0.209 C
HETATM   24  O6  UNL     1      11.296  17.034  60.122  1.00  0.00    -0.644 OA
HETATM   25  O7  UNL     1       9.141  16.315  59.952  1.00  0.00    -0.644 OA
ENDBRANCH  12  23
ENDBRANCH   3   8
BRANCH   1  26
HETATM   26  C11 UNL     1       5.885  18.145  66.532  1.00  0.00     0.060 A
HETATM   27  C2  UNL     1       4.663  18.669  66.157  1.00  0.00    -0.042 A
HETATM   28  C1  UNL     1       4.471  19.260  64.796  1.00  0.00     0.049 C
HETATM   29  C3  UNL     1       3.612  18.644  67.038  1.00  0.00     0.037 A
HETATM   30  C4  UNL     1       3.691  18.117  68.311  1.00  0.00     0.041 A
HETATM   31  C9  UNL     1       4.919  17.599  68.668  1.00  0.00     0.054 A
HETATM   32  C10 UNL     1       5.995  17.605  67.815  1.00  0.00     0.052 A
HETATM   33 CL1  UNL     1       7.536  16.894  68.351  1.00  0.00    -0.083 Cl
BRANCH  30  34
HETATM   34  N1  UNL     1       2.563  18.107  69.188  1.00  0.00    -0.298 N
HETATM   35  C5  UNL     1       2.092  16.855  69.723  1.00  0.00     0.162 C
HETATM   36  C6  UNL     1       1.912  19.320  69.542  1.00  0.00     0.367 C
HETATM   37  O1  UNL     1       2.402  20.400  69.087  1.00  0.00    -0.238 OA
BRANCH  36  38
HETATM   38  O2  UNL     1       0.790  19.351  70.346  1.00  0.00    -0.298 OA
BRANCH  38  39
HETATM   39  C7  UNL     1       0.726  20.086  71.543  1.00  0.00     0.251 C
BRANCH  39  40
HETATM   40  C8  UNL     1       1.284  19.352  72.725  1.00  0.00     0.377 C
HETATM   41  F1  UNL     1       2.672  19.556  72.718  1.00  0.00    -0.212 F
HETATM   42  F2  UNL     1       0.996  18.012  72.642  1.00  0.00    -0.212 F
ENDBRANCH  39  40
ENDBRANCH  38  39
ENDBRANCH  36  38
ENDBRANCH  30  34
ENDBRANCH   1  26
TORSDOF 13
ENDMDL