MODEL 3
REMARK VINA RESULT: -9.084987268      0.997      1.355
REMARK  13 active torsions:
REMARK  status: ('A' for Active; 'I' for Inactive)
REMARK    1  A    between atoms: C2_2  and  N1_3
REMARK    2  A    between atoms: N1_3  and  C3_4
REMARK    3  A    between atoms: N1_3  and  C9_10
REMARK    4  A    between atoms: C3_4  and  C4_5
REMARK    5  A    between atoms: C4_5  and  C5_6
REMARK    6  A    between atoms: C12_15  and  N3_16
REMARK    7  A    between atoms: N3_16  and  C13_18
REMARK    8  A    between atoms: C17_22  and  O1_23
REMARK    9  A    between atoms: O1_23  and  C18_24
REMARK   10  A    between atoms: C18_24  and  C19_25
REMARK   11  A    between atoms: C19_25  and  N4_26
REMARK   12  A    between atoms: C24_34  and  N6_35
REMARK   13  A    between atoms: N6_35  and  C25_36
ROOT
HETATM    1  C9  UNL     1       9.291  17.976  65.500  1.00  0.00     0.113 A
HETATM    2  C10 UNL     1      10.276  18.629  66.223  1.00  0.00     0.054 A
HETATM    3  C11 UNL     1       9.910  19.174  67.562  1.00  0.00     0.071 C
HETATM    4  N2  UNL     1      11.504  18.749  65.712  1.00  0.00    -0.193 N
ATOM      5  H2  UNL     1      12.213  19.234  66.262  1.00  0.00     0.184 HD
HETATM    6  C12 UNL     1      11.852  18.264  64.508  1.00  0.00     0.685 A
HETATM    7  N5  UNL     1      10.930  17.637  63.796  1.00  0.00    -0.162 N
ATOM      8  H5  UNL     1      11.182  17.263  62.881  1.00  0.00     0.187 HD
HETATM    9  C24 UNL     1       9.624  17.470  64.259  1.00  0.00     0.222 A
ENDROOT
BRANCH   6  10
HETATM   10  N3  UNL     1      13.071  18.441  64.103  1.00  0.00    -0.192 N
ATOM     11  H3  UNL     1      13.607  17.604  63.874  1.00  0.00     0.184 HD
BRANCH  10  12
HETATM   12  C13 UNL     1      13.723  19.666  63.949  1.00  0.00     0.051 A
HETATM   13  C14 UNL     1      13.798  20.568  64.978  1.00  0.00     0.039 A
HETATM   14  C15 UNL     1      14.448  21.755  64.795  1.00  0.00    -0.025 A
HETATM   15  C16 UNL     1      14.531  22.736  65.910  1.00  0.00     0.051 C
HETATM   16  C17 UNL     1      15.060  22.114  63.582  1.00  0.00     0.096 A
HETATM   17  C22 UNL     1      14.978  21.204  62.560  1.00  0.00     0.070 A
HETATM   18 CL1  UNL     1      15.664  21.531  60.976  1.00  0.00    -0.081 Cl
HETATM   19  C23 UNL     1      14.310  19.989  62.754  1.00  0.00     0.056 A
BRANCH  16  20
HETATM   20  O1  UNL     1      15.698  23.334  63.476  1.00  0.00    -0.347 OA
BRANCH  20  21
HETATM   21  C18 UNL     1      17.048  23.588  63.299  1.00  0.00     0.206 C
BRANCH  21  22
HETATM   22  C19 UNL     1      17.717  24.178  64.492  1.00  0.00     0.297 C
BRANCH  22  23
HETATM   23  N4  UNL     1      17.052  25.447  64.877  1.00  0.00     0.082 N
HETATM   24  C20 UNL     1      17.851  26.515  64.280  1.00  0.00     0.309 C
HETATM   25  C21 UNL     1      17.141  25.537  66.320  1.00  0.00     0.309 C
ENDBRANCH  22  23
ENDBRANCH  21  22
ENDBRANCH  20  21
ENDBRANCH  16  20
ENDBRANCH  10  12
ENDBRANCH   6  10
BRANCH   9  26
HETATM   26  N6  UNL     1       8.831  16.920  63.560  1.00  0.00    -0.383 NA
BRANCH  26  27
HETATM   27  C25 UNL     1       7.932  16.343  62.778  1.00  0.00     0.133 A
HETATM   28  C26 UNL     1       6.691  15.923  63.301  1.00  0.00     0.070 A
HETATM   29  C27 UNL     1       5.728  15.325  62.537  1.00  0.00     0.037 A
HETATM   30 CL2  UNL     1       4.208  14.836  63.290  1.00  0.00    -0.084 Cl
HETATM   31  C28 UNL     1       5.937  15.105  61.196  1.00  0.00     0.026 A
HETATM   32  C29 UNL     1       7.144  15.505  60.652  1.00  0.00     0.029 A
HETATM   33  C30 UNL     1       8.116  16.104  61.398  1.00  0.00     0.074 A
HETATM   34 CL3  UNL     1       9.630  16.602  60.698  1.00  0.00    -0.081 Cl
ENDBRANCH  26  27
ENDBRANCH   9  26
BRANCH   1  35
HETATM   35  N1  UNL     1       7.998  17.852  66.026  1.00  0.00    -0.375 N
BRANCH  35  36
HETATM   36  C2  UNL     1       7.595  16.862  67.001  1.00  0.00     0.119 C
HETATM   37  C1  UNL     1       8.051  15.476  66.717  1.00  0.00     0.026 C
ENDBRANCH  35  36
BRANCH  35  38
HETATM   38  C3  UNL     1       6.948  18.719  65.547  1.00  0.00     0.127 C
BRANCH  38  39
HETATM   39  C4  UNL     1       5.651  18.654  66.260  1.00  0.00     0.047 C
BRANCH  39  40
HETATM   40  C5  UNL     1       4.681  18.016  65.291  1.00  0.00    -0.023 C
HETATM   41  C6  UNL     1       3.675  18.695  64.745  1.00  0.00    -0.091 C
HETATM   42  C7  UNL     1       3.536  20.120  65.129  1.00  0.00     0.042 C
HETATM   43  C8  UNL     1       2.720  18.095  63.799  1.00  0.00     0.042 C
ENDBRANCH  39  40
ENDBRANCH  38  39
ENDBRANCH  35  38
ENDBRANCH   1  35
TORSDOF 13
ENDMDL