MODEL 5
REMARK VINA RESULT: -8.866534598      1.053      1.194
REMARK  12 active torsions:
REMARK  status: ('A' for Active; 'I' for Inactive)
REMARK    1  A    between atoms: O1_2  and  C2_3
REMARK    2  A    between atoms: C2_3  and  C3_4
REMARK    3  A    between atoms: C3_4  and  O2_5
REMARK    4  A    between atoms: O2_5  and  C4_6
REMARK    5  A    between atoms: C6_8  and  O3_9
REMARK    6  A    between atoms: O3_9  and  C7_10
REMARK    7  A    between atoms: C13_21  and  C14_22
REMARK    8  A    between atoms: N2_25  and  C17_26
REMARK    9  A    between atoms: C17_26  and  C18_27
REMARK   10  A    between atoms: C18_27  and  C19_28
REMARK   11  A    between atoms: C22_31  and  N3_32
REMARK       I    between atoms: N3_32  and  C23_34
REMARK   12  A    between atoms: C23_34  and  O5_36
ROOT
HETATM    1  C4  UNL     1      16.231  22.998  63.861  1.00  0.00     0.083 A
HETATM    2  C5  UNL     1      17.287  23.746  63.430  1.00  0.00     0.075 A
HETATM    3  C6  UNL     1      17.830  23.641  62.167  1.00  0.00     0.080 A
HETATM    4  C11 UNL     1      17.247  22.730  61.330  1.00  0.00     0.062 A
HETATM    5  C12 UNL     1      16.160  21.944  61.735  1.00  0.00     0.050 A
HETATM    6 CL3  UNL     1      15.515  20.942  60.430  1.00  0.00    -0.083 Cl
HETATM    7  C13 UNL     1      15.626  22.048  62.991  1.00  0.00     0.022 A
ENDROOT
BRANCH   7   8
HETATM    8  C14 UNL     1      14.461  21.299  63.377  1.00  0.00    -0.059 C
HETATM    9  C15 UNL     1      13.206  21.557  62.608  1.00  0.00     0.055 C
HETATM   10  C16 UNL     1      12.067  21.535  63.607  1.00  0.00     0.126 C
HETATM   11  N2  UNL     1      12.139  20.264  64.260  1.00  0.00    -0.393 N
HETATM   12  C27 UNL     1      13.087  19.334  63.835  1.00  0.00     0.062 C
HETATM   13  C28 UNL     1      14.528  19.855  63.651  1.00  0.00     0.079 C
BRANCH  11  14
HETATM   14  C17 UNL     1      11.557  20.146  65.532  1.00  0.00     0.122 C
BRANCH  14  15
HETATM   15  C18 UNL     1      10.788  18.814  65.603  1.00  0.00     0.024 C
BRANCH  15  16
HETATM   16  C19 UNL     1       9.399  18.987  65.042  1.00  0.00    -0.013 C
HETATM   17  C20 UNL     1       8.411  18.779  66.165  1.00  0.00     0.007 C
HETATM   18  C21 UNL     1       7.113  18.188  65.660  1.00  0.00     0.026 C
HETATM   19  C22 UNL     1       7.345  16.865  64.960  1.00  0.00     0.086 C
HETATM   20  C25 UNL     1       8.729  16.714  64.432  1.00  0.00     0.026 C
HETATM   21  C26 UNL     1       9.210  18.035  63.896  1.00  0.00     0.007 C
BRANCH  19  22
HETATM   22  N3  UNL     1       6.401  16.788  63.861  1.00  0.00    -0.332 N
HETATM   23  C23 UNL     1       5.096  16.285  64.001  1.00  0.00     0.360 C
HETATM   24  O4  UNL     1       4.698  15.876  65.126  1.00  0.00    -0.239 OA
ATOM     25  H3  UNL     1       6.699  17.115  62.942  1.00  0.00     0.165 HD
BRANCH  23  26
HETATM   26  O5  UNL     1       4.237  16.229  62.937  1.00  0.00    -0.309 OA
HETATM   27  C24 UNL     1       4.641  15.546  61.748  1.00  0.00     0.215 C
ENDBRANCH  23  26
ENDBRANCH  19  22
ENDBRANCH  15  16
ENDBRANCH  14  15
ENDBRANCH  11  14
ENDBRANCH   7   8
BRANCH   1  28
HETATM   28  O2  UNL     1      15.676  23.084  65.110  1.00  0.00    -0.348 OA
BRANCH  28  29
HETATM   29  C3  UNL     1      15.411  24.263  65.817  1.00  0.00     0.201 C
BRANCH  29  30
HETATM   30  C2  UNL     1      16.185  24.439  67.081  1.00  0.00     0.193 C
BRANCH  30  31
HETATM   31  O1  UNL     1      17.408  25.001  66.864  1.00  0.00    -0.394 OA
HETATM   32  C1  UNL     1      17.404  26.045  65.959  1.00  0.00     0.201 C
ENDBRANCH  30  31
ENDBRANCH  29  30
ENDBRANCH  28  29
ENDBRANCH   1  28
BRANCH   3  33
HETATM   33  O3  UNL     1      18.903  24.420  61.775  1.00  0.00    -0.307 OA
BRANCH  33  34
HETATM   34  C7  UNL     1      18.793  25.799  61.580  1.00  0.00     0.117 A
HETATM   35  C8  UNL     1      19.189  26.814  62.421  1.00  0.00     0.082 A
HETATM   36  C9  UNL     1      18.875  28.025  61.794  1.00  0.00     0.107 A
HETATM   37 CL1  UNL     1      19.178  29.622  62.444  1.00  0.00    -0.064 Cl
HETATM   38  N1  UNL     1      18.304  27.769  60.605  1.00  0.00    -0.335 N
HETATM   39  C10 UNL     1      18.248  26.440  60.468  1.00  0.00     0.139 A
ATOM     40  H1  UNL     1      17.973  28.460  59.932  1.00  0.00     0.168 HD
HETATM   41 CL2  UNL     1      17.600  25.586  59.085  1.00  0.00    -0.061 Cl
ENDBRANCH  33  34
ENDBRANCH   3  33
TORSDOF 12
ENDMDL