MODEL 2
REMARK VINA RESULT: -9.358337510      0.516      1.136
REMARK  11 active torsions:
REMARK  status: ('A' for Active; 'I' for Inactive)
REMARK    1  A    between atoms: C1_2  and  C2_4
REMARK    2  A    between atoms: C2_4  and  O3_5
REMARK    3  A    between atoms: O3_5  and  C3_6
REMARK    4  A    between atoms: C3_6  and  C4_7
REMARK    5  A    between atoms: C4_7  and  C5_8
REMARK    6  A    between atoms: N1_11  and  C8_12
REMARK    7  A    between atoms: C8_12  and  C9_13
REMARK    8  A    between atoms: C9_13  and  C10_14
REMARK    9  A    between atoms: C10_14  and  S1_15
REMARK   10  A    between atoms: S1_15  and  C11_16
REMARK   11  A    between atoms: C12_19  and  C13_20
ROOT
HETATM    1  C11 UNL     1      14.914  21.210  62.873  1.00  0.00     0.081 A
HETATM    2  N2  UNL     1      13.739  20.562  63.113  1.00  0.00    -0.349 N
ATOM      3  H2  UNL     1      13.418  19.864  62.442  1.00  0.00     0.166 HD
HETATM    4  C12 UNL     1      12.982  20.807  64.206  1.00  0.00     0.044 A
HETATM    5  C19 UNL     1      13.465  21.757  65.076  1.00  0.00     0.042 A
HETATM    6  C20 UNL     1      14.653  22.442  64.872  1.00  0.00    -0.020 A
HETATM    7  C21 UNL     1      15.108  23.397  65.755  1.00  0.00     0.029 A
HETATM    8  C22 UNL     1      16.283  24.091  65.556  1.00  0.00     0.033 A
HETATM    9  C23 UNL     1      16.973  25.071  66.237  1.00  0.00     0.130 A
HETATM   10 CL3  UNL     1      16.495  25.805  67.743  1.00  0.00    -0.062 Cl
HETATM   11  N3  UNL     1      18.094  25.388  65.564  1.00  0.00    -0.289 N
ATOM     12  H3  UNL     1      18.793  26.080  65.836  1.00  0.00     0.188 HD
HETATM   13  N4  UNL     1      18.114  24.626  64.477  1.00  0.00    -0.299 N
ATOM     14  H4  UNL     1      18.850  24.648  63.771  1.00  0.00     0.187 HD
HETATM   15  C24 UNL     1      17.042  23.826  64.428  1.00  0.00     0.062 A
HETATM   16  C25 UNL     1      16.580  22.859  63.534  1.00  0.00     0.047 A
HETATM   17  C26 UNL     1      15.400  22.163  63.739  1.00  0.00     0.010 A
ENDROOT
BRANCH   1  18
HETATM   18  S1  UNL     1      15.850  20.834  61.403  1.00  0.00    -0.111 SA
BRANCH  18  19
HETATM   19  C10 UNL     1      15.312  21.730  59.951  1.00  0.00     0.082 C
BRANCH  19  20
HETATM   20  C9  UNL     1      16.325  21.692  58.834  1.00  0.00     0.041 C
BRANCH  20  21
HETATM   21  C8  UNL     1      17.714  21.955  59.304  1.00  0.00     0.273 C
BRANCH  21  22
HETATM   22  N1  UNL     1      18.188  23.286  59.185  1.00  0.00     0.088 N
HETATM   23  C7  UNL     1      17.441  24.164  58.353  1.00  0.00     0.272 C
HETATM   24  C6  UNL     1      18.341  25.382  58.094  1.00  0.00     0.035 C
HETATM   25  C5  UNL     1      18.564  26.083  59.390  1.00  0.00    -0.009 C
HETATM   26  C28 UNL     1      18.129  25.321  60.595  1.00  0.00     0.035 C
HETATM   27  C27 UNL     1      18.372  23.842  60.492  1.00  0.00     0.272 C
BRANCH  25  28
HETATM   28  C4  UNL     1      18.001  27.470  59.321  1.00  0.00     0.031 C
BRANCH  28  29
HETATM   29  C3  UNL     1      18.967  28.384  60.098  1.00  0.00     0.168 C
BRANCH  29  30
HETATM   30  O3  UNL     1      18.344  29.024  61.124  1.00  0.00    -0.381 OA
BRANCH  30  31
HETATM   31  C2  UNL     1      18.981  29.114  62.324  1.00  0.00     0.280 C
BRANCH  31  32
HETATM   32  C1  UNL     1      18.825  27.939  63.169  1.00  0.00     0.197 C
HETATM   33  O1  UNL     1      17.734  27.341  63.267  1.00  0.00    -0.646 OA
HETATM   34  O2  UNL     1      19.885  27.408  63.922  1.00  0.00    -0.646 OA
ENDBRANCH  31  32
ENDBRANCH  30  31
ENDBRANCH  29  30
ENDBRANCH  28  29
ENDBRANCH  25  28
ENDBRANCH  21  22
ENDBRANCH  20  21
ENDBRANCH  19  20
ENDBRANCH  18  19
ENDBRANCH   1  18
BRANCH   4  35
HETATM   35  C13 UNL     1      11.748  20.069  64.380  1.00  0.00    -0.008 A
HETATM   36  C14 UNL     1      11.129  19.450  63.319  1.00  0.00     0.015 A
HETATM   37  C15 UNL     1       9.947  18.739  63.468  1.00  0.00     0.026 A
HETATM   38  C16 UNL     1       9.377  18.656  64.732  1.00  0.00     0.055 A
HETATM   39 CL1  UNL     1       7.885  17.762  64.933  1.00  0.00    -0.083 Cl
HETATM   40  C17 UNL     1       9.979  19.266  65.803  1.00  0.00     0.056 A
HETATM   41 CL2  UNL     1       9.237  19.146  67.393  1.00  0.00    -0.083 Cl
HETATM   42  C18 UNL     1      11.176  19.979  65.620  1.00  0.00     0.039 A
ENDBRANCH   4  35
TORSDOF 11
ENDMDL