MODEL 5
REMARK VINA RESULT: -8.847673928      3.797      5.497
REMARK  12 active torsions:
REMARK  status: ('A' for Active; 'I' for Inactive)
REMARK    1  A    between atoms: O1_2  and  C2_3
REMARK    2  A    between atoms: C4_5  and  C5_6
REMARK    3  A    between atoms: C5_6  and  O2_8
REMARK    4  A    between atoms: C10_13  and  C11_14
REMARK    5  A    between atoms: C14_18  and  C15_19
REMARK    6  A    between atoms: C15_19  and  N1_20
REMARK    7  A    between atoms: N1_20  and  C16_22
REMARK    8  A    between atoms: C21_29  and  O3_30
REMARK    9  A    between atoms: O3_30  and  C22_31
REMARK   10  A    between atoms: C22_31  and  C23_32
REMARK   11  A    between atoms: C22_31  and  C27_39
REMARK       I    between atoms: C23_32  and  N2_34
REMARK   12  A    between atoms: N2_34  and  C24_36
ROOT
HETATM    1  C15 UNL     1      13.389  19.885  63.444  1.00  0.00     0.161 C
ENDROOT
BRANCH   1   2
HETATM    2  C14 UNL     1      14.201  20.709  62.537  1.00  0.00    -0.001 A
HETATM    3  C13 UNL     1      15.073  21.619  63.140  1.00  0.00     0.125 A
HETATM    4  C12 UNL     1      15.893  22.418  62.359  1.00  0.00     0.055 A
HETATM    5  F1  UNL     1      15.099  21.707  64.502  1.00  0.00    -0.205 F
HETATM    6  C11 UNL     1      15.886  22.353  60.987  1.00  0.00    -0.014 A
HETATM    7  C31 UNL     1      15.028  21.457  60.403  1.00  0.00    -0.050 A
HETATM    8  C30 UNL     1      14.193  20.643  61.169  1.00  0.00     0.019 A
HETATM    9  C32 UNL     1      14.960  21.330  58.934  1.00  0.00     0.049 C
BRANCH   6  10
HETATM   10  C10 UNL     1      16.765  23.194  60.216  1.00  0.00     0.009 A
HETATM   11  C2  UNL     1      18.103  22.906  60.034  1.00  0.00     0.080 A
HETATM   12  C3  UNL     1      18.905  23.730  59.293  1.00  0.00     0.052 A
HETATM   13  C4  UNL     1      18.444  24.909  58.674  1.00  0.00     0.001 A
HETATM   14  C7  UNL     1      17.122  25.190  58.855  1.00  0.00    -0.048 A
HETATM   15  C8  UNL     1      16.518  26.405  58.226  1.00  0.00     0.049 C
HETATM   16  C9  UNL     1      16.303  24.341  59.615  1.00  0.00     0.022 A
BRANCH  11  17
HETATM   17  O1  UNL     1      18.557  21.746  60.644  1.00  0.00    -0.355 OA
HETATM   18  C1  UNL     1      19.806  21.557  61.231  1.00  0.00     0.210 C
ENDBRANCH  11  17
BRANCH  13  19
HETATM   19  C5  UNL     1      19.358  25.735  57.932  1.00  0.00     0.050 C
HETATM   20  C6  UNL     1      19.556  25.876  56.500  1.00  0.00     0.077 C
BRANCH  19  21
HETATM   21  O2  UNL     1      20.140  26.483  58.659  1.00  0.00    -0.364 OA
ATOM     22  H2  UNL     1      21.040  26.535  58.357  1.00  0.00     0.217 HD
ENDBRANCH  19  21
ENDBRANCH  13  19
ENDBRANCH   6  10
ENDBRANCH   1   2
BRANCH   1  23
HETATM   23  N1  UNL     1      11.959  19.946  63.183  1.00  0.00    -0.383 N
ATOM     24  H1  UNL     1      11.630  20.237  62.263  1.00  0.00     0.160 HD
BRANCH  23  25
HETATM   25  C16 UNL     1      11.016  19.610  64.188  1.00  0.00     0.064 A
HETATM   26  C17 UNL     1      10.849  20.512  65.230  1.00  0.00     0.034 A
HETATM   27  C18 UNL     1       9.925  20.231  66.204  1.00  0.00     0.028 A
HETATM   28  C19 UNL     1       9.183  19.086  66.155  1.00  0.00     0.058 A
HETATM   29 CL1  UNL     1       7.995  18.708  67.393  1.00  0.00    -0.082 Cl
HETATM   30  C20 UNL     1       9.335  18.163  65.116  1.00  0.00     0.091 A
HETATM   31 CL2  UNL     1       8.276  16.777  65.054  1.00  0.00    -0.079 Cl
HETATM   32  C21 UNL     1      10.264  18.429  64.126  1.00  0.00     0.119 A
BRANCH  32  33
HETATM   33  O3  UNL     1      10.452  17.543  63.080  1.00  0.00    -0.332 OA
BRANCH  33  34
HETATM   34  C22 UNL     1       9.699  17.657  61.863  1.00  0.00     0.224 C
BRANCH  34  35
HETATM   35  C23 UNL     1       8.708  16.558  61.807  1.00  0.00     0.247 C
HETATM   36  O4  UNL     1       9.104  15.368  62.099  1.00  0.00    -0.271 OA
HETATM   37  N2  UNL     1       7.368  16.710  61.467  1.00  0.00    -0.354 N
ATOM     38  H2  UNL     1       7.019  17.641  61.238  1.00  0.00     0.162 HD
BRANCH  37  39
HETATM   39  C24 UNL     1       6.441  15.573  61.429  1.00  0.00     0.084 A
HETATM   40  C25 UNL     1       4.984  15.838  61.637  1.00  0.00     0.027 A
HETATM   41  C26 UNL     1       5.852  15.159  62.724  1.00  0.00     0.027 A
ENDBRANCH  37  39
ENDBRANCH  34  35
BRANCH  34  42
HETATM   42  C27 UNL     1      10.589  17.541  60.636  1.00  0.00     0.016 C
HETATM   43  C28 UNL     1      12.025  17.227  60.985  1.00  0.00     0.012 C
HETATM   44  C29 UNL     1      10.065  16.451  59.727  1.00  0.00     0.012 C
ENDBRANCH  34  42
ENDBRANCH  33  34
ENDBRANCH  32  33
ENDBRANCH  23  25
ENDBRANCH   1  23
TORSDOF 12
ENDMDL