MODEL 4
REMARK VINA RESULT: -9.266152856      6.496     12.984
REMARK  13 active torsions:
REMARK  status: ('A' for Active; 'I' for Inactive)
REMARK    1  A    between atoms: C2_2  and  C3_3
REMARK    2  A    between atoms: C3_3  and  C4_4
REMARK    3  A    between atoms: C4_4  and  C5_5
REMARK    4  A    between atoms: C5_5  and  C6_6
REMARK    5  A    between atoms: C6_6  and  C7_7
REMARK    6  A    between atoms: C7_7  and  C8_8
REMARK    7  A    between atoms: C8_8  and  O1_9
REMARK    8  A    between atoms: C11_13  and  N1_14
REMARK    9  A    between atoms: N1_14  and  C12_16
REMARK   10  A    between atoms: C17_23  and  C18_24
REMARK   11  A    between atoms: C18_24  and  O3_25
REMARK   12  A    between atoms: O3_25  and  C19_26
REMARK       I    between atoms: C19_26  and  N2_28
REMARK   13  A    between atoms: C28_37  and  C29_38
ROOT
HETATM    1  C12 UNL     1      16.479  24.064  66.315  1.00  0.00     0.137 C
HETATM    2  C13 UNL     1      16.892  25.214  67.223  1.00  0.00     0.205 C
HETATM    3  O2  UNL     1      16.622  26.304  66.305  1.00  0.00    -0.348 OA
HETATM    4  C14 UNL     1      17.307  25.865  65.165  1.00  0.00     0.078 A
HETATM    5  C15 UNL     1      17.893  26.671  64.172  1.00  0.00     0.057 A
HETATM    6  C16 UNL     1      18.532  26.107  63.157  1.00  0.00     0.022 A
HETATM    7 BR1  UNL     1      19.428  27.154  61.779  1.00  0.00    -0.050 Br
HETATM    8  C17 UNL     1      18.636  24.657  63.058  1.00  0.00    -0.016 A
HETATM    9  C25 UNL     1      18.034  23.889  64.062  1.00  0.00     0.022 A
HETATM   10  C26 UNL     1      17.369  24.498  65.103  1.00  0.00     0.000 A
ENDROOT
BRANCH   1  11
HETATM   11  N1  UNL     1      15.165  24.131  65.878  1.00  0.00    -0.407 N
ATOM     12  H1  UNL     1      14.808  25.082  65.964  1.00  0.00     0.154 HD
BRANCH  11  13
HETATM   13  C11 UNL     1      14.220  23.314  65.374  1.00  0.00     0.078 C
HETATM   14  C10 UNL     1      14.039  22.001  66.121  1.00  0.00     0.028 C
HETATM   15  C9  UNL     1      12.979  21.111  65.458  1.00  0.00     0.040 C
HETATM   16  C8  UNL     1      13.400  20.589  64.122  1.00  0.00     0.067 C
HETATM   17  C28 UNL     1      14.589  21.518  63.716  1.00  0.00     0.087 C
HETATM   18  C27 UNL     1      14.252  22.932  63.896  1.00  0.00     0.037 C
BRANCH  16  19
HETATM   19  C7  UNL     1      12.304  20.618  63.138  1.00  0.00     0.038 C
BRANCH  19  20
HETATM   20  C6  UNL     1      10.981  20.055  63.576  1.00  0.00     0.003 C
BRANCH  20  21
HETATM   21  C5  UNL     1      10.552  18.906  62.740  1.00  0.00     0.000 C
BRANCH  21  22
HETATM   22  C4  UNL     1      11.505  18.127  61.959  1.00  0.00     0.000 C
BRANCH  22  23
HETATM   23  C3  UNL     1      11.213  17.284  60.795  1.00  0.00    -0.000 C
BRANCH  23  24
HETATM   24  C2  UNL     1       9.803  16.941  60.496  1.00  0.00    -0.005 C
HETATM   25  C1  UNL     1       9.372  15.575  60.903  1.00  0.00     0.005 C
ENDBRANCH  23  24
ENDBRANCH  22  23
ENDBRANCH  21  22
ENDBRANCH  20  21
ENDBRANCH  19  20
ENDBRANCH  16  19
BRANCH  16  26
HETATM   26  O1  UNL     1      14.044  19.353  64.125  1.00  0.00    -0.389 OA
ATOM     27  H1  UNL     1      13.677  18.775  64.784  1.00  0.00     0.210 HD
ENDBRANCH  16  26
BRANCH  17  28
HETATM   28  C29 UNL     1      15.156  21.115  62.384  1.00  0.00     0.360 C
HETATM   29  F1  UNL     1      14.480  21.910  61.433  1.00  0.00    -0.214 F
HETATM   30  F2  UNL     1      16.492  21.436  62.288  1.00  0.00    -0.214 F
ENDBRANCH  17  28
ENDBRANCH  11  13
ENDBRANCH   1  11
BRANCH   8  31
HETATM   31  C18 UNL     1      19.220  24.242  61.826  1.00  0.00     0.220 C
BRANCH  31  32
HETATM   32  O3  UNL     1      18.359  23.892  60.699  1.00  0.00    -0.299 OA
BRANCH  32  33
HETATM   33  C19 UNL     1      18.809  24.368  59.453  1.00  0.00     0.363 C
HETATM   34  O4  UNL     1      19.846  23.794  59.033  1.00  0.00    -0.238 OA
HETATM   35  N2  UNL     1      18.209  25.371  58.659  1.00  0.00    -0.328 N
HETATM   36  C20 UNL     1      17.001  26.079  58.987  1.00  0.00     0.128 C
HETATM   37  C24 UNL     1      18.831  25.630  57.342  1.00  0.00     0.128 C
HETATM   38  C21 UNL     1      16.702  27.342  58.292  1.00  0.00     0.020 C
HETATM   39  C22 UNL     1      17.068  27.290  56.813  1.00  0.00     0.003 C
HETATM   40  C23 UNL     1      18.532  26.893  56.694  1.00  0.00     0.020 C
ENDBRANCH  32  33
ENDBRANCH  31  32
ENDBRANCH   8  31
TORSDOF 13
ENDMDL