MODEL 4
REMARK VINA RESULT: -9.148267521      3.381      5.355
REMARK  11 active torsions:
REMARK  status: ('A' for Active; 'I' for Inactive)
REMARK    1  A    between atoms: O1_2  and  C2_3
REMARK    2  A    between atoms: C2_3  and  C3_4
REMARK    3  A    between atoms: C3_4  and  O2_5
REMARK    4  A    between atoms: C3_4  and  C27_41
REMARK    5  A    between atoms: O2_5  and  C4_6
REMARK    6  A    between atoms: C7_10  and  C8_11
REMARK    7  A    between atoms: C11_18  and  C12_19
REMARK    8  A    between atoms: C12_19  and  N3_20
REMARK    9  A    between atoms: N3_20  and  C13_21
REMARK   10  A    between atoms: N3_20  and  C20_29
REMARK   11  A    between atoms: C20_29  and  C22_31
ROOT
HETATM    1  C8  UNL     1       9.511  18.699  65.170  1.00  0.00    -0.008 A
HETATM    2  C9  UNL     1       9.543  19.825  65.960  1.00  0.00     0.102 A
HETATM    3  N1  UNL     1      10.682  20.556  66.062  1.00  0.00    -0.350 N
ATOM      4  H1  UNL     1      10.676  21.387  66.654  1.00  0.00     0.166 HD
HETATM    5  C10 UNL     1      11.819  20.234  65.415  1.00  0.00     0.133 A
HETATM    6  N2  UNL     1      13.052  20.774  65.346  1.00  0.00    -0.329 N
ATOM      7  H2  UNL     1      13.343  21.618  65.839  1.00  0.00     0.168 HD
HETATM    8  C11 UNL     1      13.843  20.050  64.541  1.00  0.00     0.101 A
HETATM    9  N4  UNL     1      13.057  19.023  64.100  1.00  0.00    -0.341 N
ATOM     10  H4  UNL     1      13.364  18.286  63.464  1.00  0.00     0.167 HD
HETATM   11  C23 UNL     1      11.843  19.120  64.615  1.00  0.00     0.079 A
HETATM   12  C24 UNL     1      10.668  18.359  64.503  1.00  0.00     0.047 A
ENDROOT
BRANCH   1  13
HETATM   13  C7  UNL     1       8.290  17.899  65.050  1.00  0.00    -0.021 A
HETATM   14  C6  UNL     1       7.206  18.091  65.856  1.00  0.00     0.039 A
HETATM   15  C5  UNL     1       6.048  17.315  65.720  1.00  0.00     0.070 A
HETATM   16  C4  UNL     1       5.917  16.320  64.777  1.00  0.00     0.112 A
HETATM   17 CL1  UNL     1       4.746  17.600  66.883  1.00  0.00    -0.081 Cl
HETATM   18  C26 UNL     1       7.037  16.141  63.968  1.00  0.00     0.070 A
HETATM   19  C25 UNL     1       8.195  16.919  64.106  1.00  0.00     0.039 A
HETATM   20 CL3  UNL     1       7.007  14.869  62.772  1.00  0.00    -0.081 Cl
BRANCH  16  21
HETATM   21  O2  UNL     1       4.756  15.579  64.663  1.00  0.00    -0.340 OA
BRANCH  21  22
HETATM   22  C3  UNL     1       3.807  15.796  63.599  1.00  0.00     0.157 C
BRANCH  22  23
HETATM   23  C2  UNL     1       3.330  14.484  63.061  1.00  0.00     0.199 C
BRANCH  23  24
HETATM   24  O1  UNL     1       3.782  14.318  61.744  1.00  0.00    -0.393 OA
HETATM   25  C1  UNL     1       2.687  14.502  60.869  1.00  0.00     0.201 C
ENDBRANCH  23  24
ENDBRANCH  22  23
BRANCH  22  26
HETATM   26  C27 UNL     1       2.656  16.648  64.109  1.00  0.00     0.017 A
HETATM   27  C28 UNL     1       1.718  17.286  63.133  1.00  0.00     0.007 A
HETATM   28  C29 UNL     1       2.631  18.118  63.990  1.00  0.00     0.007 A
ENDBRANCH  22  26
ENDBRANCH  21  22
ENDBRANCH  16  21
ENDBRANCH   1  13
BRANCH   8  29
HETATM   29  C12 UNL     1      15.254  20.196  64.137  1.00  0.00     0.200 C
BRANCH  29  30
HETATM   30  N3  UNL     1      15.577  21.374  63.404  1.00  0.00    -0.359 N
BRANCH  30  31
HETATM   31  C13 UNL     1      15.944  22.553  64.107  1.00  0.00     0.032 A
HETATM   32  C14 UNL     1      17.190  23.169  63.932  1.00  0.00     0.031 A
HETATM   33  C15 UNL     1      17.590  24.292  64.596  1.00  0.00     0.026 A
HETATM   34  C16 UNL     1      16.710  24.862  65.502  1.00  0.00     0.040 A
HETATM   35 CL2  UNL     1      17.187  26.309  66.376  1.00  0.00    -0.084 Cl
HETATM   36  C17 UNL     1      15.477  24.319  65.726  1.00  0.00    -0.038 A
HETATM   37  C18 UNL     1      14.490  24.890  66.686  1.00  0.00     0.050 C
HETATM   38  C19 UNL     1      15.113  23.166  65.020  1.00  0.00     0.037 A
ENDBRANCH  30  31
BRANCH  30  39
HETATM   39  C20 UNL     1      15.582  21.292  61.967  1.00  0.00     0.182 C
HETATM   40  C21 UNL     1      16.042  19.889  61.519  1.00  0.00     0.044 C
BRANCH  39  41
HETATM   41  C22 UNL     1      14.321  21.550  61.281  1.00  0.00     0.196 C
HETATM   42  O3  UNL     1      14.397  21.916  60.071  1.00  0.00    -0.646 OA
HETATM   43  O4  UNL     1      13.076  21.432  61.827  1.00  0.00    -0.646 OA
ENDBRANCH  39  41
ENDBRANCH  30  39
ENDBRANCH  29  30
ENDBRANCH   8  29
TORSDOF 11
ENDMDL