MODEL 3
REMARK VINA RESULT: -8.971481997      6.199     13.604
REMARK  12 active torsions:
REMARK  status: ('A' for Active; 'I' for Inactive)
REMARK    1  A    between atoms: O1_2  and  C2_3
REMARK    2  A    between atoms: C4_5  and  C5_6
REMARK    3  A    between atoms: C6_7  and  C7_8
REMARK    4  A    between atoms: C10_11  and  C11_12
REMARK    5  A    between atoms: C11_12  and  O2_13
REMARK    6  A    between atoms: O2_13  and  C12_14
REMARK    7  A    between atoms: N1_17  and  C15_18
REMARK    8  A    between atoms: C18_22  and  O3_23
REMARK    9  A    between atoms: C22_28  and  O4_29
REMARK   10  A    between atoms: O4_29  and  C23_30
REMARK   11  A    between atoms: C23_30  and  C24_31
REMARK   12  A    between atoms: C28_37  and  O5_38
ROOT
HETATM    1  C2  UNL     1       9.331  17.796  64.992  1.00  0.00     0.102 A
HETATM    2  C3  UNL     1      10.331  18.671  64.642  1.00  0.00     0.051 A
HETATM    3  C4  UNL     1      10.632  19.801  65.398  1.00  0.00    -0.033 A
HETATM    4  C20 UNL     1       9.885  20.009  66.515  1.00  0.00     0.014 A
HETATM    5  C21 UNL     1       8.865  19.143  66.898  1.00  0.00     0.040 A
HETATM    6  C22 UNL     1       8.576  18.032  66.145  1.00  0.00     0.102 A
ENDROOT
BRANCH   3   7
HETATM    7  C5  UNL     1      11.702  20.658  64.948  1.00  0.00     0.012 C
HETATM    8  C6  UNL     1      12.677  21.011  65.742  1.00  0.00     0.012 C
BRANCH   8   9
HETATM    9  C7  UNL     1      13.790  21.867  65.375  1.00  0.00    -0.034 A
HETATM   10  C8  UNL     1      14.485  22.593  66.348  1.00  0.00     0.012 A
HETATM   11  C9  UNL     1      15.548  23.415  66.045  1.00  0.00     0.013 A
HETATM   12  C10 UNL     1      15.971  23.549  64.743  1.00  0.00    -0.001 A
HETATM   13  C18 UNL     1      15.294  22.839  63.782  1.00  0.00     0.074 A
HETATM   14  C19 UNL     1      14.215  22.005  64.084  1.00  0.00     0.048 A
BRANCH  12  15
HETATM   15  C11 UNL     1      17.115  24.426  64.406  1.00  0.00     0.211 C
BRANCH  15  16
HETATM   16  O2  UNL     1      18.294  23.698  64.248  1.00  0.00    -0.364 OA
BRANCH  16  17
HETATM   17  C12 UNL     1      18.875  23.976  63.013  1.00  0.00     0.230 C
HETATM   18  C13 UNL     1      18.536  25.406  62.645  1.00  0.00     0.066 C
HETATM   19  C14 UNL     1      18.471  25.329  61.135  1.00  0.00     0.114 C
HETATM   20  N1  UNL     1      18.324  23.954  60.784  1.00  0.00    -0.228 NA
HETATM   21  N2  UNL     1      18.348  23.205  61.933  1.00  0.00    -0.132 NA
BRANCH  20  22
HETATM   22  C15 UNL     1      19.247  23.509  59.771  1.00  0.00     0.068 C
HETATM   23  C16 UNL     1      18.714  23.740  58.372  1.00  0.00     0.027 C
HETATM   24  C17 UNL     1      19.621  22.073  59.893  1.00  0.00     0.027 C
ENDBRANCH  20  22
ENDBRANCH  16  17
ENDBRANCH  15  16
ENDBRANCH  12  15
BRANCH  13  25
HETATM   25  O3  UNL     1      15.707  22.964  62.474  1.00  0.00    -0.360 OA
ATOM     26  H3  UNL     1      15.043  23.099  61.808  1.00  0.00     0.217 HD
ENDBRANCH  13  25
ENDBRANCH   8   9
ENDBRANCH   3   7
BRANCH   1  27
HETATM   27  O1  UNL     1       9.080  16.694  64.201  1.00  0.00    -0.353 OA
HETATM   28  C1  UNL     1       9.092  16.784  62.809  1.00  0.00     0.210 C
ENDBRANCH   1  27
BRANCH   6  29
HETATM   29  O4  UNL     1       7.568  17.141  66.490  1.00  0.00    -0.344 OA
BRANCH  29  30
HETATM   30  C23 UNL     1       6.245  17.583  66.540  1.00  0.00     0.216 C
BRANCH  30  31
HETATM   31  C24 UNL     1       5.455  17.171  65.359  1.00  0.00    -0.008 A
HETATM   32  C25 UNL     1       5.827  16.162  64.499  1.00  0.00     0.036 A
HETATM   33  C26 UNL     1       5.064  15.800  63.404  1.00  0.00     0.059 A
HETATM   34 CL1  UNL     1       5.534  14.519  62.309  1.00  0.00    -0.082 Cl
HETATM   35  C27 UNL     1       3.882  16.465  63.149  1.00  0.00     0.090 A
HETATM   36 CL2  UNL     1       2.851  16.078  61.790  1.00  0.00    -0.079 Cl
HETATM   37  C28 UNL     1       3.489  17.481  63.999  1.00  0.00     0.114 A
HETATM   38  C30 UNL     1       4.271  17.821  65.086  1.00  0.00     0.077 A
HETATM   39 CL3  UNL     1       3.754  19.111  66.147  1.00  0.00    -0.081 Cl
BRANCH  37  40
HETATM   40  O5  UNL     1       2.306  18.152  63.749  1.00  0.00    -0.352 OA
HETATM   41  C29 UNL     1       1.099  17.773  64.392  1.00  0.00     0.210 C
ENDBRANCH  37  40
ENDBRANCH  30  31
ENDBRANCH  29  30
ENDBRANCH   6  29
TORSDOF 12
ENDMDL