MODEL 5
REMARK VINA RESULT: -8.167239014      7.968     13.075
REMARK  12 active torsions:
REMARK  status: ('A' for Active; 'I' for Inactive)
REMARK    1  A    between atoms: C2_2  and  O1_3
REMARK    2  A    between atoms: O1_3  and  C3_4
REMARK    3  A    between atoms: C5_6  and  N1_7
REMARK       I    between atoms: N1_7  and  C6_9
REMARK    4  A    between atoms: C6_9  and  C7_11
REMARK    5  A    between atoms: C12_18  and  O3_19
REMARK    6  A    between atoms: O3_19  and  C13_20
REMARK    7  A    between atoms: C17_24  and  O4_25
REMARK    8  A    between atoms: O4_25  and  C18_26
REMARK    9  A    between atoms: C18_26  and  C19_27
REMARK   10  A    between atoms: C19_27  and  N2_28
REMARK   11  A    between atoms: N2_28  and  C20_29
REMARK   12  A    between atoms: N2_28  and  C22_31
ROOT
HETATM    1  C7  UNL     1      16.211  22.866  64.161  1.00  0.00     0.069 A
HETATM    2  C8  UNL     1      16.163  23.657  65.326  1.00  0.00     0.044 A
HETATM    3  C9  UNL     1      17.007  24.706  65.488  1.00  0.00     0.036 A
HETATM    4 CL1  UNL     1      16.905  25.668  66.968  1.00  0.00    -0.084 Cl
HETATM    5  C10 UNL     1      17.940  25.057  64.554  1.00  0.00     0.050 A
HETATM    6  C11 UNL     1      17.975  24.259  63.404  1.00  0.00     0.070 A
HETATM    7 CL2  UNL     1      19.238  24.737  62.262  1.00  0.00    -0.081 Cl
HETATM    8  C12 UNL     1      17.137  23.193  63.207  1.00  0.00     0.113 A
ENDROOT
BRANCH   1   9
HETATM    9  C6  UNL     1      15.206  21.823  64.075  1.00  0.00     0.259 C
HETATM   10  N1  UNL     1      13.957  21.914  63.484  1.00  0.00    -0.323 N
ATOM     11  H1  UNL     1      13.694  22.812  63.077  1.00  0.00     0.169 HD
HETATM   12  O2  UNL     1      15.488  20.683  64.595  1.00  0.00    -0.267 OA
BRANCH  10  13
HETATM   13  C5  UNL     1      12.995  20.836  63.398  1.00  0.00     0.038 A
HETATM   14  C4  UNL     1      11.894  20.691  64.173  1.00  0.00     0.068 A
HETATM   15  C3  UNL     1      10.982  19.656  64.021  1.00  0.00     0.097 A
HETATM   16  C28 UNL     1      11.212  18.730  63.032  1.00  0.00     0.068 A
HETATM   17  C27 UNL     1      12.315  18.840  62.225  1.00  0.00    -0.025 A
HETATM   18  N3  UNL     1      10.469  17.560  62.614  1.00  0.00    -0.387 N
HETATM   19  C26 UNL     1      13.206  19.881  62.397  1.00  0.00     0.039 A
HETATM   20  C30 UNL     1      12.316  17.695  61.244  1.00  0.00     0.060 C
HETATM   21  C29 UNL     1      10.894  17.253  61.249  1.00  0.00     0.124 C
ATOM     22  H3  UNL     1       9.782  17.047  63.167  1.00  0.00     0.159 HD
BRANCH  15  23
HETATM   23  O1  UNL     1       9.873  19.546  64.834  1.00  0.00    -0.349 OA
BRANCH  23  24
HETATM   24  C2  UNL     1       9.828  20.331  66.017  1.00  0.00     0.171 C
HETATM   25  C1  UNL     1       9.779  19.433  67.221  1.00  0.00     0.034 C
ENDBRANCH  23  24
ENDBRANCH  15  23
ENDBRANCH  10  13
ENDBRANCH   1   9
BRANCH   8  26
HETATM   26  O3  UNL     1      17.253  22.462  62.058  1.00  0.00    -0.306 OA
BRANCH  26  27
HETATM   27  C13 UNL     1      17.828  22.680  60.867  1.00  0.00     0.104 A
HETATM   28  C14 UNL     1      17.208  23.311  59.823  1.00  0.00    -0.024 A
HETATM   29  C15 UNL     1      15.829  23.767  60.005  1.00  0.00     0.051 C
HETATM   30  C16 UNL     1      17.861  23.519  58.594  1.00  0.00     0.046 A
HETATM   31  C17 UNL     1      19.154  23.092  58.390  1.00  0.00     0.071 A
HETATM   32  C24 UNL     1      19.782  22.451  59.455  1.00  0.00     0.063 A
HETATM   33  C25 UNL     1      19.132  22.257  60.647  1.00  0.00     0.071 A
HETATM   34 CL3  UNL     1      20.093  21.515  61.926  1.00  0.00    -0.081 Cl
BRANCH  31  35
HETATM   35  O4  UNL     1      19.855  23.248  57.229  1.00  0.00    -0.349 OA
BRANCH  35  36
HETATM   36  C18 UNL     1      20.225  24.310  56.471  1.00  0.00     0.195 C
BRANCH  36  37
HETATM   37  C19 UNL     1      21.515  24.089  55.721  1.00  0.00     0.148 C
BRANCH  37  38
HETATM   38  N2  UNL     1      21.741  22.730  55.420  1.00  0.00    -0.392 N
BRANCH  38  39
HETATM   39  C20 UNL     1      21.147  22.157  54.289  1.00  0.00     0.054 C
HETATM   40  C21 UNL     1      21.110  23.001  53.044  1.00  0.00     0.054 C
ENDBRANCH  38  39
BRANCH  38  41
HETATM   41  C22 UNL     1      22.937  22.186  55.903  1.00  0.00     0.117 C
HETATM   42  C23 UNL     1      22.639  21.040  56.876  1.00  0.00     0.026 C
ENDBRANCH  38  41
ENDBRANCH  37  38
ENDBRANCH  36  37
ENDBRANCH  35  36
ENDBRANCH  31  35
ENDBRANCH  26  27
ENDBRANCH   8  26
TORSDOF 12
ENDMDL