MODEL 3
REMARK VINA RESULT: -9.221042237      2.743     12.581
REMARK  12 active torsions:
REMARK  status: ('A' for Active; 'I' for Inactive)
REMARK    1  A    between atoms: O1_2  and  C2_3
REMARK    2  A    between atoms: C4_5  and  O2_6
REMARK    3  A    between atoms: O2_6  and  C5_7
REMARK    4  A    between atoms: N1_10  and  C8_11
REMARK    5  A    between atoms: C8_11  and  C10_13
REMARK    6  A    between atoms: C10_13  and  C11_14
REMARK    7  A    between atoms: C11_14  and  O3_17
REMARK    8  A    between atoms: C18_24  and  N2_25
REMARK       I    between atoms: N2_25  and  C19_27
REMARK    9  A    between atoms: C19_27  and  C20_29
REMARK   10  A    between atoms: C24_35  and  O5_36
REMARK   11  A    between atoms: O5_36  and  C25_37
REMARK   12  A    between atoms: C25_37  and  C26_38
ROOT
HETATM    1  C2  UNL     1      14.192  20.779  63.665  1.00  0.00     0.097 A
HETATM    2  C3  UNL     1      15.049  21.830  63.894  1.00  0.00     0.079 A
HETATM    3  C4  UNL     1      15.739  22.468  62.896  1.00  0.00     0.110 A
HETATM    4  C16 UNL     1      15.511  21.970  61.606  1.00  0.00     0.151 A
HETATM    5  F1  UNL     1      16.158  22.550  60.574  1.00  0.00    -0.203 F
HETATM    6  C17 UNL     1      14.640  20.903  61.378  1.00  0.00     0.077 A
HETATM    7  C18 UNL     1      13.968  20.288  62.385  1.00  0.00     0.071 A
ENDROOT
BRANCH   7   8
HETATM    8  N2  UNL     1      13.060  19.213  62.286  1.00  0.00    -0.320 N
HETATM    9  C19 UNL     1      11.659  19.319  62.357  1.00  0.00     0.260 C
HETATM   10  O4  UNL     1      11.124  20.471  62.514  1.00  0.00    -0.267 OA
ATOM     11  H2  UNL     1      13.452  18.281  62.151  1.00  0.00     0.169 HD
BRANCH   9  12
HETATM   12  C20 UNL     1      10.716  18.214  62.267  1.00  0.00     0.089 A
HETATM   13  C21 UNL     1      10.377  17.736  60.997  1.00  0.00     0.108 A
HETATM   14  N3  UNL     1       9.541  16.707  60.843  1.00  0.00    -0.366 N
HETATM   15  C22 UNL     1       8.963  16.057  61.905  1.00  0.00     0.042 A
ATOM     16  H3  UNL     1       9.323  16.392  59.898  1.00  0.00     0.165 HD
HETATM   17  C23 UNL     1       8.098  14.876  61.627  1.00  0.00     0.071 C
HETATM   18  C24 UNL     1       9.264  16.490  63.153  1.00  0.00     0.130 A
HETATM   19  C32 UNL     1      10.157  17.587  63.317  1.00  0.00     0.168 A
HETATM   20  F2  UNL     1      10.375  17.961  64.584  1.00  0.00    -0.202 F
BRANCH  18  21
HETATM   21  O5  UNL     1       8.752  15.944  64.292  1.00  0.00    -0.346 OA
BRANCH  21  22
HETATM   22  C25 UNL     1       7.520  15.993  64.865  1.00  0.00     0.180 C
BRANCH  22  23
HETATM   23  C26 UNL     1       7.199  16.534  66.184  1.00  0.00     0.010 C
HETATM   24  C27 UNL     1       8.291  17.155  66.988  1.00  0.00     0.007 C
HETATM   25  C28 UNL     1       7.709  18.305  67.819  1.00  0.00     0.000 C
HETATM   26  C29 UNL     1       6.355  17.913  68.368  1.00  0.00     0.000 C
HETATM   27  C30 UNL     1       5.354  17.779  67.229  1.00  0.00     0.000 C
HETATM   28  C31 UNL     1       6.119  17.620  65.960  1.00  0.00     0.007 C
ENDBRANCH  22  23
ENDBRANCH  21  22
ENDBRANCH  18  21
ENDBRANCH   9  12
ENDBRANCH   7   8
BRANCH   1  29
HETATM   29  O1  UNL     1      13.563  20.238  64.782  1.00  0.00    -0.354 OA
HETATM   30  C1  UNL     1      12.709  20.980  65.607  1.00  0.00     0.210 C
ENDBRANCH   1  29
BRANCH   3  31
HETATM   31  O2  UNL     1      16.610  23.525  63.069  1.00  0.00    -0.343 OA
BRANCH  31  32
HETATM   32  C5  UNL     1      17.798  23.447  63.771  1.00  0.00     0.132 C
HETATM   33  C6  UNL     1      17.841  24.529  64.837  1.00  0.00     0.062 C
HETATM   34  C7  UNL     1      18.624  25.735  64.459  1.00  0.00     0.275 C
HETATM   35  N1  UNL     1      18.383  26.098  63.077  1.00  0.00     0.093 N
HETATM   36  C14 UNL     1      18.686  25.045  62.157  1.00  0.00     0.275 C
HETATM   37  C15 UNL     1      19.003  23.738  62.861  1.00  0.00     0.062 C
BRANCH  35  38
HETATM   38  C8  UNL     1      18.888  27.385  62.743  1.00  0.00     0.221 C
HETATM   39  C9  UNL     1      19.877  27.826  63.794  1.00  0.00     0.043 C
BRANCH  38  40
HETATM   40  C10 UNL     1      19.468  27.390  61.358  1.00  0.00     0.072 C
BRANCH  40  41
HETATM   41  C11 UNL     1      18.822  28.410  60.460  1.00  0.00     0.052 C
HETATM   42  C12 UNL     1      19.939  29.139  59.739  1.00  0.00     0.045 C
HETATM   43  C13 UNL     1      17.904  27.831  59.434  1.00  0.00     0.045 C
BRANCH  41  44
HETATM   44  O3  UNL     1      18.166  29.397  61.232  1.00  0.00    -0.391 OA
ATOM     45  H3  UNL     1      17.445  29.010  61.715  1.00  0.00     0.210 HD
ENDBRANCH  41  44
ENDBRANCH  40  41
ENDBRANCH  38  40
ENDBRANCH  35  38
ENDBRANCH  31  32
ENDBRANCH   3  31
TORSDOF 12
ENDMDL