MODEL 4
REMARK VINA RESULT: -7.599525400      2.914      3.988
REMARK  14 active torsions:
REMARK  status: ('A' for Active; 'I' for Inactive)
REMARK    1  A    between atoms: C2_2  and  C3_3
REMARK    2  A    between atoms: C3_3  and  C4_4
REMARK    3  A    between atoms: C4_4  and  C5_5
REMARK    4  A    between atoms: C5_5  and  C6_6
REMARK    5  A    between atoms: C6_6  and  O1_7
REMARK    6  A    between atoms: O1_7  and  C7_8
REMARK    7  A    between atoms: C10_12  and  C11_13
REMARK    8  A    between atoms: C12_14  and  C13_15
REMARK    9  A    between atoms: C13_15  and  O2_16
REMARK   10  A    between atoms: C13_15  and  C14_18
REMARK   11  A    between atoms: C15_19  and  O3_20
REMARK   12  A    between atoms: C18_23  and  C19_24
REMARK   13  A    between atoms: C19_24  and  O4_25
REMARK   14  A    between atoms: C21_30  and  O5_31
ROOT
HETATM    1  C13 UNL     1      14.456  21.341  62.249  1.00  0.00     0.081 C
ENDROOT
BRANCH   1   2
HETATM    2  C12 UNL     1      13.599  20.273  62.734  1.00  0.00     0.038 C
HETATM    3  C11 UNL     1      12.283  20.297  62.466  1.00  0.00     0.014 C
BRANCH   3   4
HETATM    4  C10 UNL     1      11.390  19.253  62.929  1.00  0.00    -0.033 A
HETATM    5  C9  UNL     1      11.035  19.076  64.237  1.00  0.00     0.038 A
HETATM    6  C8  UNL     1      10.178  18.062  64.583  1.00  0.00     0.069 A
HETATM    7  C7  UNL     1       9.629  17.163  63.621  1.00  0.00     0.107 A
HETATM    8 CL1  UNL     1       9.756  17.837  66.263  1.00  0.00    -0.081 Cl
HETATM    9  C23 UNL     1       9.992  17.350  62.349  1.00  0.00     0.046 A
HETATM   10  C22 UNL     1      10.868  18.384  61.964  1.00  0.00     0.033 A
HETATM   11 BR2  UNL     1       9.457  16.161  60.964  1.00  0.00    -0.048 Br
BRANCH   7  12
HETATM   12  O1  UNL     1       8.791  16.208  64.133  1.00  0.00    -0.348 OA
BRANCH  12  13
HETATM   13  C6  UNL     1       7.412  16.276  64.065  1.00  0.00     0.176 C
BRANCH  13  14
HETATM   14  C5  UNL     1       6.553  16.301  65.243  1.00  0.00     0.027 C
BRANCH  14  15
HETATM   15  C4  UNL     1       6.275  17.663  65.793  1.00  0.00     0.002 C
BRANCH  15  16
HETATM   16  C3  UNL     1       5.713  17.637  67.202  1.00  0.00    -0.000 C
BRANCH  16  17
HETATM   17  C2  UNL     1       6.751  18.117  68.173  1.00  0.00    -0.005 C
HETATM   18  C1  UNL     1       7.381  16.897  68.832  1.00  0.00     0.005 C
ENDBRANCH  16  17
ENDBRANCH  15  16
ENDBRANCH  14  15
ENDBRANCH  13  14
ENDBRANCH  12  13
ENDBRANCH   7  12
ENDBRANCH   3   4
ENDBRANCH   1   2
BRANCH   1  19
HETATM   19  O2  UNL     1      14.489  21.437  60.952  1.00  0.00    -0.360 OA
ATOM     20  H2  UNL     1      15.000  22.174  60.636  1.00  0.00     0.217 HD
ENDBRANCH   1  19
BRANCH   1  21
HETATM   21  C14 UNL     1      15.239  22.267  62.997  1.00  0.00     0.065 A
HETATM   22  C15 UNL     1      16.572  22.455  62.595  1.00  0.00     0.085 A
HETATM   23  C17 UNL     1      17.355  23.340  63.287  1.00  0.00     0.054 A
HETATM   24  C18 UNL     1      16.869  24.055  64.372  1.00  0.00     0.031 A
HETATM   25  C20 UNL     1      15.567  23.848  64.738  1.00  0.00     0.059 A
HETATM   26 BR1  UNL     1      14.904  24.845  66.245  1.00  0.00    -0.047 Br
HETATM   27  C21 UNL     1      14.741  22.961  64.064  1.00  0.00     0.099 A
BRANCH  22  28
HETATM   28  O3  UNL     1      17.076  21.764  61.528  1.00  0.00    -0.355 OA
HETATM   29  C16 UNL     1      18.210  22.247  60.835  1.00  0.00     0.210 C
ENDBRANCH  22  28
BRANCH  24  30
HETATM   30  C19 UNL     1      17.712  24.990  65.097  1.00  0.00     0.145 C
HETATM   31  S1  UNL     1      18.182  26.386  64.408  1.00  0.00    -0.052 SA
BRANCH  30  32
HETATM   32  O4  UNL     1      18.111  24.680  66.380  1.00  0.00    -0.350 OA
ATOM     33  H4  UNL     1      19.003  24.389  66.531  1.00  0.00     0.218 HD
ENDBRANCH  30  32
ENDBRANCH  24  30
BRANCH  27  34
HETATM   34  O5  UNL     1      13.463  22.839  64.519  1.00  0.00    -0.358 OA
ATOM     35  H5  UNL     1      13.177  22.158  65.116  1.00  0.00     0.217 HD
ENDBRANCH  27  34
ENDBRANCH   1  21
TORSDOF 14
ENDMDL