MODEL 3
REMARK VINA RESULT: -6.981342675      1.158      1.690
REMARK  15 active torsions:
REMARK  status: ('A' for Active; 'I' for Inactive)
REMARK       I    between atoms: N1_3  and  C3_5
REMARK    1  A    between atoms: C3_5  and  C4_7
REMARK    2  A    between atoms: C4_7  and  C5_8
REMARK    3  A    between atoms: C5_8  and  C7_10
REMARK    4  A    between atoms: C14_18  and  O2_19
REMARK    5  A    between atoms: C14_18  and  C15_21
REMARK    6  A    between atoms: C17_26  and  O3_27
REMARK    7  A    between atoms: O3_27  and  C18_28
REMARK    8  A    between atoms: C18_28  and  C19_30
REMARK    9  A    between atoms: C19_30  and  C20_31
REMARK   10  A    between atoms: C20_31  and  C21_32
REMARK   11  A    between atoms: C21_32  and  C22_33
REMARK   12  A    between atoms: C22_33  and  C23_34
REMARK   13  A    between atoms: C23_34  and  C24_35
REMARK   14  A    between atoms: C24_35  and  C25_36
REMARK   15  A    between atoms: C25_36  and  C26_37
ROOT
HETATM    1  C7  UNL     1      12.972  19.914  63.537  1.00  0.00    -0.028 C
HETATM    2  C8  UNL     1      14.046  20.350  64.380  1.00  0.00    -0.043 C
HETATM    3  C9  UNL     1      13.572  21.325  65.190  1.00  0.00    -0.052 C
HETATM    4  C10 UNL     1      12.105  21.609  64.913  1.00  0.00     0.041 C
HETATM    5  C11 UNL     1      11.859  21.837  63.376  1.00  0.00     0.033 C
HETATM    6  C12 UNL     1      12.920  21.253  62.711  1.00  0.00     0.063 C
HETATM    7  S1  UNL     1      14.246  22.448  63.012  1.00  0.00    -0.148 SA
HETATM    8  C13 UNL     1      14.241  23.554  64.327  1.00  0.00     0.126 C
HETATM    9  C14 UNL     1      15.041  23.160  65.587  1.00  0.00     0.182 C
HETATM   10  C16 UNL     1      14.671  21.747  65.979  1.00  0.00     0.028 C
HETATM   11  C17 UNL     1      13.552  20.800  61.539  1.00  0.00     0.155 C
HETATM   12  C27 UNL     1      14.854  20.107  61.742  1.00  0.00     0.039 C
HETATM   13  C28 UNL     1      15.837  19.988  62.756  1.00  0.00    -0.012 C
HETATM   14  C29 UNL     1      17.067  20.826  62.530  1.00  0.00     0.010 C
HETATM   15  C30 UNL     1      15.423  20.070  64.291  1.00  0.00     0.044 C
ENDROOT
BRANCH  11  16
HETATM   16  O3  UNL     1      13.702  21.919  60.610  1.00  0.00    -0.314 OA
BRANCH  16  17
HETATM   17  C18 UNL     1      14.740  22.144  59.782  1.00  0.00     0.259 C
HETATM   18  O4  UNL     1      14.881  21.409  58.776  1.00  0.00    -0.265 OA
BRANCH  17  19
HETATM   19  C19 UNL     1      15.692  23.268  60.099  1.00  0.00     0.111 C
BRANCH  19  20
HETATM   20  C20 UNL     1      16.937  22.954  59.303  1.00  0.00     0.010 C
BRANCH  20  21
HETATM   21  C21 UNL     1      17.677  24.146  58.818  1.00  0.00     0.000 C
BRANCH  21  22
HETATM   22  C22 UNL     1      16.944  25.402  59.226  1.00  0.00     0.000 C
BRANCH  22  23
HETATM   23  C23 UNL     1      17.862  26.314  60.025  1.00  0.00     0.001 C
BRANCH  23  24
HETATM   24  C24 UNL     1      18.913  25.506  60.720  1.00  0.00     0.010 C
BRANCH  24  25
HETATM   25  C25 UNL     1      18.654  25.305  62.165  1.00  0.00     0.113 C
BRANCH  25  26
HETATM   26  C26 UNL     1      19.086  24.007  62.701  1.00  0.00     0.172 C
HETATM   27  O5  UNL     1      18.794  23.687  63.874  1.00  0.00    -0.648 OA
HETATM   28  O6  UNL     1      19.813  23.135  61.929  1.00  0.00    -0.648 OA
ENDBRANCH  25  26
ENDBRANCH  24  25
ENDBRANCH  23  24
ENDBRANCH  22  23
ENDBRANCH  21  22
ENDBRANCH  20  21
ENDBRANCH  19  20
ENDBRANCH  17  19
ENDBRANCH  16  17
ENDBRANCH  11  16
BRANCH   1  29
HETATM   29  C5  UNL     1      12.163  18.947  63.320  1.00  0.00    -0.067 C
HETATM   30  C6  UNL     1      12.445  17.537  63.757  1.00  0.00     0.044 C
BRANCH  29  31
HETATM   31  C4  UNL     1      10.847  18.881  62.668  1.00  0.00     0.137 C
BRANCH  31  32
HETATM   32  C3  UNL     1       9.790  18.428  63.658  1.00  0.00     0.225 C
HETATM   33  N1  UNL     1       9.653  19.180  64.878  1.00  0.00    -0.341 N
HETATM   34  C2  UNL     1       9.749  18.609  66.030  1.00  0.00     0.059 C
ATOM     35  H1  UNL     1       9.477  20.184  64.831  1.00  0.00     0.167 HD
HETATM   36  C1  UNL     1       9.602  19.422  67.255  1.00  0.00     0.055 C
HETATM   37  O1  UNL     1       9.072  17.435  63.409  1.00  0.00    -0.273 OA
ENDBRANCH  31  32
ENDBRANCH  29  31
ENDBRANCH   1  29
BRANCH   9  38
HETATM   38  O2  UNL     1      16.406  23.385  65.419  1.00  0.00    -0.376 OA
ATOM     39  H2  UNL     1      16.927  22.747  65.892  1.00  0.00     0.211 HD
ENDBRANCH   9  38
BRANCH   9  40
HETATM   40  C15 UNL     1      14.674  24.217  66.631  1.00  0.00     0.422 C
HETATM   41  F1  UNL     1      13.877  23.797  67.631  1.00  0.00    -0.167 F
HETATM   42  F2  UNL     1      15.836  24.709  67.249  1.00  0.00    -0.167 F
HETATM   43  F3  UNL     1      14.112  25.323  66.020  1.00  0.00    -0.167 F
ENDBRANCH   9  40
TORSDOF 15
ENDMDL