MODEL 2
REMARK VINA RESULT: -8.058218462      1.315      2.157
REMARK  11 active torsions:
REMARK  status: ('A' for Active; 'I' for Inactive)
REMARK    1  A    between atoms: O1_2  and  C2_3
REMARK    2  A    between atoms: C7_10  and  N2_11
REMARK    3  A    between atoms: N2_11  and  C8_13
REMARK    4  A    between atoms: C8_13  and  C9_14
REMARK    5  A    between atoms: C9_14  and  N3_15
REMARK    6  A    between atoms: N4_25  and  C18_27
REMARK    7  A    between atoms: C27_38  and  O2_39
REMARK    8  A    between atoms: O2_39  and  C28_40
REMARK    9  A    between atoms: C28_40  and  C29_41
REMARK   10  A    between atoms: C29_41  and  C30_42
REMARK   11  A    between atoms: C30_42  and  N5_43
ROOT
HETATM    1  C2  UNL     1      10.702  17.791  63.885  1.00  0.00     0.103 A
HETATM    2  C3  UNL     1       9.927  16.969  63.108  1.00  0.00     0.070 A
HETATM    3  C4  UNL     1       8.610  16.716  63.471  1.00  0.00     0.048 A
HETATM    4  N1  UNL     1       7.858  15.912  62.705  1.00  0.00    -0.355 N
ATOM      5  H1  UNL     1       8.266  15.496  61.866  1.00  0.00     0.166 HD
HETATM    6  C5  UNL     1       6.571  15.641  63.019  1.00  0.00     0.047 A
HETATM    7  C6  UNL     1       5.830  14.796  62.187  1.00  0.00     0.062 A
HETATM    8  C7  UNL     1       4.528  14.542  62.536  1.00  0.00     0.069 A
HETATM    9  C14 UNL     1       3.974  15.111  63.683  1.00  0.00     0.143 A
HETATM   10  F1  UNL     1       2.686  14.807  63.952  1.00  0.00    -0.204 F
HETATM   11  C15 UNL     1       4.732  15.943  64.486  1.00  0.00     0.060 A
HETATM   12  C16 UNL     1       6.057  16.222  64.161  1.00  0.00     0.021 A
HETATM   13  C17 UNL     1       6.792  17.065  64.994  1.00  0.00     0.058 A
HETATM   14  N4  UNL     1       6.373  17.594  66.007  1.00  0.00    -0.354 N
ATOM     15  H4  UNL     1       7.202  18.110  66.302  1.00  0.00     0.166 HD
HETATM   16  C25 UNL     1       8.140  17.299  64.588  1.00  0.00     0.021 A
HETATM   17  C26 UNL     1       8.915  18.139  65.393  1.00  0.00     0.055 A
HETATM   18  C27 UNL     1      10.218  18.401  65.052  1.00  0.00     0.103 A
ENDROOT
BRANCH  14  19
HETATM   19  C18 UNL     1       5.526  17.928  66.971  1.00  0.00     0.042 A
HETATM   20  C19 UNL     1       4.295  18.540  66.641  1.00  0.00     0.054 A
HETATM   21  C20 UNL     1       3.427  18.876  67.624  1.00  0.00     0.037 A
HETATM   22 CL1  UNL     1       1.891  19.637  67.230  1.00  0.00    -0.084 Cl
HETATM   23  C21 UNL     1       3.711  18.635  68.947  1.00  0.00     0.048 A
HETATM   24  C22 UNL     1       4.895  18.043  69.293  1.00  0.00     0.043 A
HETATM   25 CL2  UNL     1       5.208  17.757  71.011  1.00  0.00    -0.084 Cl
HETATM   26  C23 UNL     1       5.789  17.695  68.328  1.00  0.00    -0.013 A
HETATM   27  C24 UNL     1       7.076  17.054  68.691  1.00  0.00     0.052 C
ENDBRANCH  14  19
BRANCH  18  28
HETATM   28  O2  UNL     1      11.020  19.204  65.782  1.00  0.00    -0.348 OA
BRANCH  28  29
HETATM   29  C28 UNL     1      11.311  20.534  65.805  1.00  0.00     0.177 C
BRANCH  29  30
HETATM   30  C29 UNL     1      12.464  20.995  64.955  1.00  0.00     0.057 C
BRANCH  30  31
HETATM   31  C30 UNL     1      13.591  21.500  65.862  1.00  0.00     0.273 C
BRANCH  31  32
HETATM   32  N5  UNL     1      14.785  21.586  65.037  1.00  0.00     0.080 N
HETATM   33  C31 UNL     1      14.968  20.359  64.269  1.00  0.00     0.309 C
HETATM   34  C32 UNL     1      14.709  22.731  64.139  1.00  0.00     0.309 C
ENDBRANCH  31  32
ENDBRANCH  30  31
ENDBRANCH  29  30
ENDBRANCH  28  29
ENDBRANCH  18  28
BRANCH   8  35
HETATM   35  N2  UNL     1       3.741  13.667  61.731  1.00  0.00    -0.386 N
ATOM     36  H2  UNL     1       3.788  12.659  61.884  1.00  0.00     0.159 HD
BRANCH  35  37
HETATM   37  C8  UNL     1       2.880  14.196  60.704  1.00  0.00     0.140 C
BRANCH  37  38
HETATM   38  C9  UNL     1       1.432  13.888  60.885  1.00  0.00     0.147 C
BRANCH  38  39
HETATM   39  N3  UNL     1       0.729  14.904  61.630  1.00  0.00    -0.365 N
HETATM   40  C10 UNL     1       0.923  16.239  61.612  1.00  0.00     0.090 A
HETATM   41  C11 UNL     1       0.022  16.801  62.481  1.00  0.00     0.019 A
HETATM   42  C12 UNL     1      -0.747  15.797  63.047  1.00  0.00     0.019 A
HETATM   43  C13 UNL     1      -0.273  14.625  62.488  1.00  0.00     0.090 A
ENDBRANCH  38  39
ENDBRANCH  37  38
ENDBRANCH  35  37
ENDBRANCH   8  35
BRANCH   1  44
HETATM   44  O1  UNL     1      12.032  18.040  63.512  1.00  0.00    -0.353 OA
HETATM   45  C1  UNL     1      12.340  18.406  62.195  1.00  0.00     0.210 C
ENDBRANCH   1  44
TORSDOF 11
ENDMDL