MODEL 1
REMARK VINA RESULT: -9.392462358      0.000      0.000
REMARK  13 active torsions:
REMARK  status: ('A' for Active; 'I' for Inactive)
REMARK    1  A    between atoms: C2_2  and  C4_4
REMARK    2  A    between atoms: C4_4  and  C5_5
REMARK    3  A    between atoms: C5_5  and  N1_6
REMARK    4  A    between atoms: C5_5  and  C14_18
REMARK       I    between atoms: N1_6  and  C6_8
REMARK    5  A    between atoms: C6_8  and  O2_10
REMARK    6  A    between atoms: O2_10  and  C7_11
REMARK    7  A    between atoms: C7_11  and  C8_12
REMARK       I    between atoms: C14_18  and  N2_20
REMARK    8  A    between atoms: N2_20  and  C15_22
REMARK    9  A    between atoms: C15_22  and  C17_25
REMARK   10  A    between atoms: C17_25  and  C18_26
REMARK   11  A    between atoms: C17_25  and  C26_39
REMARK   12  A    between atoms: C23_32  and  O4_33
REMARK   13  A    between atoms: O4_33  and  C24_34
ROOT
HETATM    1  C15 UNL     1      16.703  22.552  61.551  1.00  0.00     0.222 C
HETATM    2  C16 UNL     1      15.908  22.596  60.343  1.00  0.00     0.089 C
HETATM    3  N3  UNL     1      15.229  22.618  59.378  1.00  0.00    -0.195 NA
ENDROOT
BRANCH   1   4
HETATM    4  N2  UNL     1      15.800  22.956  62.622  1.00  0.00    -0.339 N
HETATM    5  C14 UNL     1      15.143  22.046  63.463  1.00  0.00     0.241 C
HETATM    6  O3  UNL     1      15.404  20.807  63.215  1.00  0.00    -0.271 OA
ATOM      7  H2  UNL     1      15.638  23.953  62.767  1.00  0.00     0.164 HD
BRANCH   5   8
HETATM    8  C5  UNL     1      14.213  22.335  64.563  1.00  0.00     0.179 C
BRANCH   8   9
HETATM    9  C4  UNL     1      14.785  22.464  65.926  1.00  0.00     0.038 C
BRANCH   9  10
HETATM   10  C2  UNL     1      14.325  23.564  66.795  1.00  0.00    -0.020 C
HETATM   11  C1  UNL     1      14.366  24.839  65.910  1.00  0.00     0.009 C
HETATM   12  C3  UNL     1      15.264  23.881  67.940  1.00  0.00     0.009 C
ENDBRANCH   9  10
ENDBRANCH   8   9
BRANCH   8  13
HETATM   13  N1  UNL     1      13.227  21.220  64.548  1.00  0.00    -0.324 N
HETATM   14  C6  UNL     1      12.043  21.296  63.766  1.00  0.00     0.361 C
HETATM   15  O1  UNL     1      11.780  22.324  63.052  1.00  0.00    -0.238 OA
ATOM     16  H1  UNL     1      13.405  20.387  65.109  1.00  0.00     0.165 HD
BRANCH  14  17
HETATM   17  O2  UNL     1      11.108  20.279  63.719  1.00  0.00    -0.304 OA
BRANCH  17  18
HETATM   18  C7  UNL     1      11.463  18.930  63.479  1.00  0.00     0.185 C
BRANCH  18  19
HETATM   19  C8  UNL     1      10.662  18.498  62.259  1.00  0.00     0.010 C
HETATM   20  C9  UNL     1       9.396  17.835  62.726  1.00  0.00     0.007 C
HETATM   21  C10 UNL     1       9.212  16.552  61.968  1.00  0.00     0.000 C
HETATM   22  C11 UNL     1       9.396  16.684  60.483  1.00  0.00     0.000 C
HETATM   23  C12 UNL     1      10.731  17.275  60.115  1.00  0.00     0.000 C
HETATM   24  C13 UNL     1      11.492  17.560  61.392  1.00  0.00     0.007 C
ENDBRANCH  18  19
ENDBRANCH  17  18
ENDBRANCH  14  17
ENDBRANCH   8  13
ENDBRANCH   5   8
ENDBRANCH   1   4
BRANCH   1  25
HETATM   25  C17 UNL     1      17.951  23.360  61.475  1.00  0.00    -0.029 C
BRANCH  25  26
HETATM   26  C18 UNL     1      18.292  23.789  60.102  1.00  0.00    -0.028 A
HETATM   27  C19 UNL     1      19.173  23.025  59.315  1.00  0.00     0.013 A
HETATM   28  C20 UNL     1      19.511  23.360  58.029  1.00  0.00     0.026 A
HETATM   29  C21 UNL     1      18.970  24.511  57.440  1.00  0.00     0.078 A
HETATM   30  C22 UNL     1      19.294  24.843  56.082  1.00  0.00     0.102 C
HETATM   31  C23 UNL     1      18.111  25.280  58.175  1.00  0.00     0.099 A
HETATM   32  N4  UNL     1      19.556  25.085  54.960  1.00  0.00    -0.191 NA
HETATM   33  C25 UNL     1      17.798  24.902  59.472  1.00  0.00     0.050 A
BRANCH  31  34
HETATM   34  O4  UNL     1      17.565  26.417  57.634  1.00  0.00    -0.254 OA
BRANCH  34  35
HETATM   35  C24 UNL     1      18.053  27.679  58.022  1.00  0.00     0.530 C
HETATM   36  F1  UNL     1      19.405  27.592  58.389  1.00  0.00    -0.144 F
HETATM   37  F2  UNL     1      17.979  28.649  57.059  1.00  0.00    -0.144 F
HETATM   38  F3  UNL     1      17.393  28.163  59.142  1.00  0.00    -0.144 F
ENDBRANCH  34  35
ENDBRANCH  31  34
ENDBRANCH  25  26
BRANCH  25  39
HETATM   39  C26 UNL     1      18.185  24.338  62.557  1.00  0.00     0.018 C
HETATM   40  C27 UNL     1      18.586  23.826  63.899  1.00  0.00     0.009 C
HETATM   41  C28 UNL     1      17.740  24.450  64.976  1.00  0.00     0.001 C
HETATM   42  C29 UNL     1      17.406  25.887  64.792  1.00  0.00     0.000 C
HETATM   43  C30 UNL     1      18.490  26.763  64.270  1.00  0.00     0.000 C
HETATM   44  C31 UNL     1      18.435  26.807  62.752  1.00  0.00     0.001 C
HETATM   45  C32 UNL     1      19.060  25.503  62.200  1.00  0.00     0.009 C
ENDBRANCH  25  39
ENDBRANCH   1  25
TORSDOF 13
ENDMDL