MODEL 4
REMARK VINA RESULT: -8.325790069      0.469      1.523
REMARK  13 active torsions:
REMARK  status: ('A' for Active; 'I' for Inactive)
REMARK    1  A    between atoms: C2_2  and  O1_3
REMARK    2  A    between atoms: O1_3  and  C3_4
REMARK    3  A    between atoms: C6_7  and  N1_8
REMARK    4  A    between atoms: N1_8  and  C7_10
REMARK    5  A    between atoms: C10_14  and  O2_15
REMARK    6  A    between atoms: O2_15  and  C11_16
REMARK    7  A    between atoms: C11_16  and  C12_17
REMARK    8  A    between atoms: C14_19  and  C15_20
REMARK    9  A    between atoms: C24_36  and  O3_37
REMARK   10  A    between atoms: O3_37  and  C25_38
REMARK   11  A    between atoms: C25_38  and  C26_39
REMARK   12  A    between atoms: C26_39  and  C27_40
REMARK   13  A    between atoms: C27_40  and  N4_41
ROOT
HETATM    1  C3  UNL     1      12.098  19.930  62.931  1.00  0.00     0.103 A
HETATM    2  C4  UNL     1      13.160  20.615  62.401  1.00  0.00     0.057 A
HETATM    3  C5  UNL     1      13.860  21.539  63.129  1.00  0.00     0.038 A
HETATM    4  C6  UNL     1      14.930  22.238  62.617  1.00  0.00     0.119 A
HETATM    5  N2  UNL     1      15.554  23.126  63.412  1.00  0.00    -0.332 N
ATOM      6  H2  UNL     1      16.347  23.645  63.035  1.00  0.00     0.168 HD
HETATM    7  C20 UNL     1      15.178  23.359  64.683  1.00  0.00     0.079 A
HETATM    8  C21 UNL     1      15.933  24.370  65.501  1.00  0.00     0.089 C
HETATM    9  N3  UNL     1      14.138  22.686  65.198  1.00  0.00    -0.345 N
ATOM     10  H3  UNL     1      13.840  22.850  66.159  1.00  0.00     0.167 HD
HETATM   11  C22 UNL     1      13.491  21.788  64.422  1.00  0.00     0.050 A
HETATM   12  C23 UNL     1      12.409  21.093  64.967  1.00  0.00     0.070 A
HETATM   13  C24 UNL     1      11.683  20.160  64.269  1.00  0.00     0.104 A
ENDROOT
BRANCH   4  14
HETATM   14  N1  UNL     1      15.270  22.004  61.412  1.00  0.00    -0.342 N
ATOM     15  H1  UNL     1      14.701  21.352  60.872  1.00  0.00     0.167 HD
BRANCH  14  16
HETATM   16  C7  UNL     1      16.409  22.607  60.768  1.00  0.00     0.037 A
HETATM   17  C8  UNL     1      17.602  21.915  60.705  1.00  0.00     0.056 A
HETATM   18  C9  UNL     1      18.718  22.482  60.084  1.00  0.00     0.071 A
HETATM   19 CL1  UNL     1      20.176  21.522  60.083  1.00  0.00    -0.081 Cl
HETATM   20  C10 UNL     1      18.672  23.729  59.521  1.00  0.00     0.112 A
HETATM   21  C18 UNL     1      17.464  24.393  59.602  1.00  0.00     0.071 A
HETATM   22 CL4  UNL     1      17.277  26.013  58.913  1.00  0.00    -0.081 Cl
HETATM   23  C19 UNL     1      16.351  23.854  60.211  1.00  0.00     0.056 A
BRANCH  20  24
HETATM   24  O2  UNL     1      19.715  24.324  58.906  1.00  0.00    -0.347 OA
BRANCH  24  25
HETATM   25  C11 UNL     1      19.929  24.677  57.592  1.00  0.00     0.180 C
BRANCH  25  26
HETATM   26  C12 UNL     1      19.804  23.626  56.550  1.00  0.00     0.011 C
HETATM   27  C13 UNL     1      20.908  22.571  56.793  1.00  0.00     0.014 C
HETATM   28  C14 UNL     1      21.778  23.263  55.737  1.00  0.00     0.025 C
HETATM   29  C17 UNL     1      20.496  23.903  55.237  1.00  0.00     0.014 C
BRANCH  28  30
HETATM   30  C15 UNL     1      22.388  22.243  54.828  1.00  0.00     0.113 C
HETATM   31  C16 UNL     1      23.603  22.832  54.129  1.00  0.00     0.051 C
HETATM   32 CL2  UNL     1      21.217  21.610  53.656  1.00  0.00    -0.102 Cl
HETATM   33 CL3  UNL     1      22.962  20.888  55.828  1.00  0.00    -0.102 Cl
ENDBRANCH  28  30
ENDBRANCH  25  26
ENDBRANCH  24  25
ENDBRANCH  20  24
ENDBRANCH  14  16
ENDBRANCH   4  14
BRANCH   1  34
HETATM   34  O1  UNL     1      11.369  18.995  62.239  1.00  0.00    -0.349 OA
BRANCH  34  35
HETATM   35  C2  UNL     1      11.811  17.754  61.776  1.00  0.00     0.171 C
HETATM   36  C1  UNL     1      11.038  17.353  60.545  1.00  0.00     0.034 C
ENDBRANCH  34  35
ENDBRANCH   1  34
BRANCH  13  37
HETATM   37  O3  UNL     1      10.621  19.466  64.765  1.00  0.00    -0.348 OA
BRANCH  37  38
HETATM   38  C25 UNL     1       9.628  19.780  65.660  1.00  0.00     0.177 C
BRANCH  38  39
HETATM   39  C26 UNL     1       8.402  18.919  65.630  1.00  0.00     0.054 C
BRANCH  39  40
HETATM   40  C27 UNL     1       8.665  17.569  64.983  1.00  0.00     0.234 C
BRANCH  40  41
HETATM   41  N4  UNL     1       8.665  17.648  63.549  1.00  0.00    -0.079 N
HETATM   42  C28 UNL     1       8.529  16.347  62.976  1.00  0.00     0.266 C
ATOM     43  H42 UNL     1       7.951  18.290  63.204  1.00  0.00     0.276 HD
ATOM     44  H41 UNL     1       9.490  18.134  63.196  1.00  0.00     0.276 HD
ENDBRANCH  40  41
ENDBRANCH  39  40
ENDBRANCH  38  39
ENDBRANCH  37  38
ENDBRANCH  13  37
TORSDOF 13
ENDMDL