MODEL 1
REMARK VINA RESULT: -9.902735549      0.000      0.000
REMARK  17 active torsions:
REMARK  status: ('A' for Active; 'I' for Inactive)
REMARK    1  A    between atoms: C2_2  and  C4_4
REMARK    2  A    between atoms: C4_4  and  C5_5
REMARK    3  A    between atoms: C5_5  and  C22_33
REMARK    4  A    between atoms: N1_6  and  C6_8
REMARK    5  A    between atoms: C6_8  and  C7_9
REMARK    6  A    between atoms: C6_8  and  C15_17
REMARK    7  A    between atoms: C7_9  and  C8_10
REMARK    8  A    between atoms: C8_10  and  C9_11
REMARK    9  A    between atoms: C15_17  and  C16_19
REMARK       I    between atoms: C16_19  and  N2_21
REMARK   10  A    between atoms: C20_25  and  C21_26
REMARK   11  A    between atoms: C21_26  and  N3_27
REMARK   12  A    between atoms: C21_26  and  O3_31
REMARK       I    between atoms: C22_33  and  N4_35
REMARK   13  A    between atoms: N4_35  and  C23_37
REMARK   14  A    between atoms: C23_37  and  C24_38
REMARK   15  A    between atoms: C23_37  and  C29_43
REMARK   16  A    between atoms: C24_38  and  C25_39
REMARK   17  A    between atoms: C32_46  and  C33_47
ROOT
HETATM    1  C5  UNL     1      13.769  20.046  64.158  1.00  0.00     0.078 C
HETATM    2  N1  UNL     1      14.072  20.797  63.061  1.00  0.00    -0.355 N
ATOM      3  H1  UNL     1      13.383  20.763  62.310  1.00  0.00     0.166 HD
ENDROOT
BRANCH   2   4
HETATM    4  C6  UNL     1      15.194  21.613  62.809  1.00  0.00     0.066 C
BRANCH   4   5
HETATM    5  C7  UNL     1      15.831  22.140  64.044  1.00  0.00     0.062 C
BRANCH   5   6
HETATM    6  C8  UNL     1      15.286  23.344  64.692  1.00  0.00     0.011 C
BRANCH   6   7
HETATM    7  C9  UNL     1      15.843  23.471  66.066  1.00  0.00    -0.014 C
HETATM    8  C10 UNL     1      14.821  23.879  67.091  1.00  0.00     0.004 C
HETATM    9  C11 UNL     1      15.548  23.777  68.454  1.00  0.00     0.000 C
HETATM   10  C12 UNL     1      16.514  24.925  68.507  1.00  0.00     0.000 C
HETATM   11  C13 UNL     1      17.458  24.914  67.341  1.00  0.00     0.000 C
HETATM   12  C14 UNL     1      16.812  24.674  66.014  1.00  0.00     0.004 C
ENDBRANCH   6   7
ENDBRANCH   5   6
ENDBRANCH   4   5
BRANCH   4  13
HETATM   13  C15 UNL     1      15.896  21.509  61.542  1.00  0.00     0.261 C
HETATM   14  O1  UNL     1      16.699  20.531  61.338  1.00  0.00    -0.280 OA
BRANCH  13  15
HETATM   15  C16 UNL     1      15.785  22.469  60.454  1.00  0.00     0.296 C
HETATM   16  O2  UNL     1      14.824  22.349  59.612  1.00  0.00    -0.264 OA
HETATM   17  N2  UNL     1      16.641  23.562  60.222  1.00  0.00    -0.336 N
HETATM   18  C17 UNL     1      16.154  24.716  59.373  1.00  0.00     0.127 C
HETATM   19  C20 UNL     1      18.015  23.749  60.503  1.00  0.00     0.143 C
HETATM   20  C18 UNL     1      17.232  25.758  59.570  1.00  0.00     0.022 C
HETATM   21  C19 UNL     1      18.457  24.859  59.483  1.00  0.00     0.031 C
BRANCH  19  22
HETATM   22  C21 UNL     1      18.537  24.195  61.761  1.00  0.00     0.339 C
BRANCH  22  23
HETATM   23  N3  UNL     1      18.088  25.150  62.675  1.00  0.00    -0.051 N
ATOM     24  H33 UNL     1      17.411  24.651  63.252  1.00  0.00     0.277 HD
ATOM     25  H32 UNL     1      18.885  25.304  63.293  1.00  0.00     0.277 HD
ATOM     26  H31 UNL     1      17.680  26.077  62.551  1.00  0.00     0.277 HD
ENDBRANCH  22  23
BRANCH  22  27
HETATM   27  O3  UNL     1      19.655  23.607  62.147  1.00  0.00    -0.368 OA
ATOM     28  H3  UNL     1      20.433  24.151  62.106  1.00  0.00     0.212 HD
ENDBRANCH  22  27
ENDBRANCH  19  22
ENDBRANCH  13  15
ENDBRANCH   4  13
ENDBRANCH   2   4
BRANCH   1  29
HETATM   29  C4  UNL     1      13.409  20.641  65.470  1.00  0.00     0.067 C
BRANCH  29  30
HETATM   30  C2  UNL     1      12.154  21.405  65.577  1.00  0.00    -0.017 C
HETATM   31  C1  UNL     1      11.100  20.497  66.249  1.00  0.00     0.010 C
HETATM   32  C3  UNL     1      11.539  21.968  64.352  1.00  0.00     0.010 C
ENDBRANCH  29  30
ENDBRANCH   1  29
BRANCH   1  33
HETATM   33  C22 UNL     1      12.865  18.893  63.808  1.00  0.00     0.264 C
HETATM   34  O4  UNL     1      12.912  17.891  64.558  1.00  0.00    -0.266 OA
HETATM   35  N4  UNL     1      12.017  18.917  62.710  1.00  0.00    -0.351 N
ATOM     36  H4  UNL     1      11.957  19.724  62.090  1.00  0.00     0.163 HD
BRANCH  35  37
HETATM   37  C23 UNL     1      11.159  17.631  62.482  1.00  0.00     0.089 C
BRANCH  37  38
HETATM   38  C24 UNL     1      10.982  17.557  61.028  1.00  0.00     0.030 C
BRANCH  38  39
HETATM   39  C25 UNL     1      10.158  16.572  60.322  1.00  0.00    -0.013 C
HETATM   40  C26 UNL     1       9.464  15.410  60.821  1.00  0.00     0.005 C
HETATM   41  C27 UNL     1       8.111  16.107  60.624  1.00  0.00     0.001 C
HETATM   42  C28 UNL     1       8.820  17.202  59.900  1.00  0.00     0.005 C
ENDBRANCH  38  39
ENDBRANCH  37  38
BRANCH  37  43
HETATM   43  C29 UNL     1      10.033  17.940  63.411  1.00  0.00     0.008 C
HETATM   44  C30 UNL     1       9.081  19.040  62.994  1.00  0.00     0.007 C
HETATM   45  C31 UNL     1       8.247  19.321  64.281  1.00  0.00     0.016 C
HETATM   46  C32 UNL     1       7.240  18.219  64.388  1.00  0.00     0.087 C
HETATM   47  C34 UNL     1       7.820  16.879  64.024  1.00  0.00     0.016 C
HETATM   48  C35 UNL     1       9.334  16.832  64.116  1.00  0.00     0.007 C
BRANCH  46  49
HETATM   49  C33 UNL     1       6.523  18.163  65.703  1.00  0.00     0.177 C
HETATM   50  O5  UNL     1       6.157  19.220  66.259  1.00  0.00    -0.648 OA
HETATM   51  O6  UNL     1       6.289  16.918  66.265  1.00  0.00    -0.648 OA
ENDBRANCH  46  49
ENDBRANCH  37  43
ENDBRANCH  35  37
ENDBRANCH   1  33
TORSDOF 17
ENDMDL