MODEL 1
REMARK VINA RESULT: -10.182879230      0.000      0.000
REMARK  16 active torsions:
REMARK  status: ('A' for Active; 'I' for Inactive)
REMARK    1  A    between atoms: C5_6  and  C6_7
REMARK       I    between atoms: C6_7  and  N2_9
REMARK    2  A    between atoms: N2_9  and  C7_11
REMARK    3  A    between atoms: C7_11  and  C8_12
REMARK    4  A    between atoms: C8_12  and  C9_13
REMARK    5  A    between atoms: C9_13  and  C10_14
REMARK    6  A    between atoms: C10_14  and  C11_15
REMARK    7  A    between atoms: C11_15  and  N3_16
REMARK    8  A    between atoms: C11_15  and  C27_34
REMARK       I    between atoms: N3_16  and  C12_18
REMARK    9  A    between atoms: C12_18  and  C13_20
REMARK   10  A    between atoms: C13_20  and  C14_21
REMARK   11  A    between atoms: C14_21  and  C15_22
REMARK   12  A    between atoms: C15_22  and  C16_23
REMARK   13  A    between atoms: C16_23  and  C17_24
REMARK       I    between atoms: C27_34  and  N4_36
REMARK   14  A    between atoms: C30_39  and  C31_40
REMARK   15  A    between atoms: C31_40  and  N6_44
REMARK   16  A    between atoms: N6_44  and  C32_46
ROOT
HETATM    1  C11 UNL     1      15.485  21.703  64.993  1.00  0.00     0.176 C
ENDROOT
BRANCH   1   2
HETATM    2  C10 UNL     1      14.169  22.013  65.721  1.00  0.00     0.035 C
BRANCH   2   3
HETATM    3  C9  UNL     1      13.254  22.661  64.738  1.00  0.00     0.004 C
BRANCH   3   4
HETATM    4  C8  UNL     1      11.860  22.054  64.764  1.00  0.00     0.020 C
BRANCH   4   5
HETATM    5  C7  UNL     1      11.765  20.888  65.678  1.00  0.00     0.122 C
BRANCH   5   6
HETATM    6  N2  UNL     1      10.499  20.224  65.525  1.00  0.00    -0.359 N
HETATM    7  C6  UNL     1      10.022  19.328  66.508  1.00  0.00     0.251 C
HETATM    8  O1  UNL     1      10.669  19.053  67.557  1.00  0.00    -0.271 OA
ATOM      9  H2  UNL     1       9.936  20.401  64.694  1.00  0.00     0.162 HD
BRANCH   7  10
HETATM   10  C5  UNL     1       8.709  18.646  66.356  1.00  0.00     0.313 C
HETATM   11  N1  UNL     1       7.627  19.544  66.023  1.00  0.00     0.098 N
HETATM   12  C1  UNL     1       7.417  20.526  67.057  1.00  0.00     0.310 C
HETATM   13  C2  UNL     1       6.492  18.601  66.055  1.00  0.00     0.273 C
HETATM   14  C3  UNL     1       6.738  17.757  67.288  1.00  0.00     0.033 C
HETATM   15  C4  UNL     1       8.220  17.970  67.598  1.00  0.00     0.047 C
ENDBRANCH   7  10
ENDBRANCH   5   6
ENDBRANCH   4   5
ENDBRANCH   3   4
ENDBRANCH   2   3
ENDBRANCH   1   2
BRANCH   1  16
HETATM   16  N3  UNL     1      15.097  21.191  63.694  1.00  0.00    -0.348 N
HETATM   17  C12 UNL     1      14.758  19.857  63.427  1.00  0.00     0.218 C
HETATM   18  O2  UNL     1      14.771  19.014  64.350  1.00  0.00    -0.274 OA
ATOM     19  H3  UNL     1      15.069  21.850  62.916  1.00  0.00     0.163 HD
BRANCH  17  20
HETATM   20  C13 UNL     1      14.381  19.432  62.060  1.00  0.00     0.103 C
BRANCH  20  21
HETATM   21  C14 UNL     1      13.192  20.163  61.527  1.00  0.00     0.009 C
BRANCH  21  22
HETATM   22  C15 UNL     1      11.913  19.630  62.133  1.00  0.00     0.001 C
BRANCH  22  23
HETATM   23  C16 UNL     1      11.440  18.350  61.524  1.00  0.00     0.005 C
BRANCH  23  24
HETATM   24  C17 UNL     1       9.950  18.298  61.463  1.00  0.00    -0.006 C
HETATM   25  C18 UNL     1       9.440  17.220  60.532  1.00  0.00    -0.009 C
HETATM   26  C19 UNL     1       7.953  17.495  60.274  1.00  0.00     0.010 C
HETATM   27  C23 UNL     1       9.496  15.841  61.137  1.00  0.00     0.010 C
HETATM   28  C20 UNL     1       7.199  17.473  61.576  1.00  0.00    -0.013 C
HETATM   29  C21 UNL     1       7.288  16.087  62.187  1.00  0.00     0.009 C
HETATM   30  C26 UNL     1       7.771  18.523  62.491  1.00  0.00     0.010 C
HETATM   31  C22 UNL     1       8.756  15.815  62.444  1.00  0.00    -0.013 C
HETATM   32  C24 UNL     1       9.331  16.826  63.402  1.00  0.00     0.010 C
HETATM   33  C25 UNL     1       9.249  18.202  62.776  1.00  0.00    -0.009 C
ENDBRANCH  23  24
ENDBRANCH  22  23
ENDBRANCH  21  22
ENDBRANCH  20  21
ENDBRANCH  17  20
ENDBRANCH   1  16
BRANCH   1  34
HETATM   34  C27 UNL     1      16.320  22.907  64.883  1.00  0.00     0.243 C
HETATM   35  O3  UNL     1      16.977  23.052  63.821  1.00  0.00    -0.271 OA
HETATM   36  N4  UNL     1      16.390  23.883  65.940  1.00  0.00    -0.339 N
HETATM   37  C28 UNL     1      15.764  23.962  67.237  1.00  0.00     0.129 C
HETATM   38  C30 UNL     1      17.024  25.134  66.187  1.00  0.00     0.155 C
HETATM   39  C29 UNL     1      16.875  24.865  67.695  1.00  0.00     0.053 C
BRANCH  38  40
HETATM   40  C31 UNL     1      18.417  25.340  65.782  1.00  0.00     0.094 C
HETATM   41  N5  UNL     1      19.297  25.725  66.599  1.00  0.00    -0.387 N
ATOM     42  H52 UNL     1      19.048  25.873  67.577  1.00  0.00     0.157 HD
ATOM     43  H51 UNL     1      20.267  25.868  66.316  1.00  0.00     0.157 HD
BRANCH  40  44
HETATM   44  N6  UNL     1      18.765  25.133  64.416  1.00  0.00    -0.374 N
ATOM     45  H6  UNL     1      19.092  24.201  64.163  1.00  0.00     0.161 HD
BRANCH  44  46
HETATM   46  C32 UNL     1      18.706  26.088  63.372  1.00  0.00     0.082 C
HETATM   47  C33 UNL     1      19.637  27.269  63.514  1.00  0.00     0.025 C
HETATM   48  C34 UNL     1      19.070  28.344  62.580  1.00  0.00     0.002 C
HETATM   49  C35 UNL     1      19.085  27.824  61.174  1.00  0.00     0.000 C
HETATM   50  C36 UNL     1      18.247  26.582  61.053  1.00  0.00     0.002 C
HETATM   51  C37 UNL     1      18.884  25.530  61.976  1.00  0.00     0.025 C
ENDBRANCH  44  46
ENDBRANCH  40  44
ENDBRANCH  38  40
ENDBRANCH   1  34
TORSDOF 16
ENDMDL