MODEL 5
REMARK VINA RESULT: -8.984611578      1.272      1.628
REMARK  15 active torsions:
REMARK  status: ('A' for Active; 'I' for Inactive)
REMARK    1  A    between atoms: C9_9  and  N1_10
REMARK    2  A    between atoms: C20_21  and  C21_22
REMARK    3  A    between atoms: C21_22  and  C22_23
REMARK    4  A    between atoms: C22_23  and  C23_24
REMARK    5  A    between atoms: N2_26  and  C25_28
REMARK    6  A    between atoms: C25_28  and  C26_29
REMARK    7  A    between atoms: C26_29  and  C27_30
REMARK    8  A    between atoms: C27_30  and  C28_31
REMARK    9  A    between atoms: C28_31  and  N3_32
REMARK   10  A    between atoms: C28_31  and  C33_42
REMARK       I    between atoms: N3_32  and  C29_34
REMARK   11  A    between atoms: C29_34  and  C30_36
REMARK   12  A    between atoms: C30_36  and  C31_37
REMARK       I    between atoms: C33_42  and  N5_44
REMARK   13  A    between atoms: N5_44  and  C34_46
REMARK   14  A    between atoms: C34_46  and  C35_47
REMARK   15  A    between atoms: C34_46  and  C37_49
ROOT
HETATM    1  C23 UNL     1      15.540  23.572  65.812  1.00  0.00    -0.018 C
HETATM    2  C24 UNL     1      14.437  24.568  65.812  1.00  0.00     0.063 C
HETATM    3  N2  UNL     1      16.696  23.865  66.100  1.00  0.00    -0.377 N
ATOM      4  H2  UNL     1      17.302  23.046  66.040  1.00  0.00     0.164 HD
ENDROOT
BRANCH   3   5
HETATM    5  C25 UNL     1      17.418  24.981  66.484  1.00  0.00     0.061 C
BRANCH   5   6
HETATM    6  C26 UNL     1      18.210  25.691  65.425  1.00  0.00     0.047 C
BRANCH   6   7
HETATM    7  C27 UNL     1      18.490  24.825  64.204  1.00  0.00     0.040 C
BRANCH   7   8
HETATM    8  C28 UNL     1      18.727  25.681  62.990  1.00  0.00     0.177 C
BRANCH   8   9
HETATM    9  N3  UNL     1      19.929  26.485  63.083  1.00  0.00    -0.348 N
HETATM   10  C29 UNL     1      19.872  27.915  62.935  1.00  0.00     0.220 C
HETATM   11  O1  UNL     1      18.802  28.490  62.711  1.00  0.00    -0.274 OA
ATOM     12  H3  UNL     1      20.826  26.031  63.256  1.00  0.00     0.163 HD
BRANCH  10  13
HETATM   13  C30 UNL     1      21.123  28.677  63.054  1.00  0.00     0.137 C
BRANCH  13  14
HETATM   14  C31 UNL     1      20.995  29.907  63.937  1.00  0.00     0.220 A
HETATM   15  C32 UNL     1      21.764  31.133  63.608  1.00  0.00     0.266 A
HETATM   16  N4  UNL     1      20.366  31.019  63.226  1.00  0.00    -0.067 N
ATOM     17  H42 UNL     1      19.859  31.106  62.345  1.00  0.00     0.277 HD
ATOM     18  H41 UNL     1      19.535  31.589  63.386  1.00  0.00     0.277 HD
ENDBRANCH  13  14
ENDBRANCH  10  13
ENDBRANCH   8   9
BRANCH   8  19
HETATM   19  C33 UNL     1      18.673  24.896  61.734  1.00  0.00     0.241 C
HETATM   20  O2  UNL     1      19.519  25.089  60.848  1.00  0.00    -0.271 OA
HETATM   21  N5  UNL     1      17.648  23.937  61.551  1.00  0.00    -0.346 N
ATOM     22  H5  UNL     1      16.976  23.802  62.307  1.00  0.00     0.163 HD
BRANCH  21  23
HETATM   23  C34 UNL     1      17.499  23.139  60.356  1.00  0.00     0.173 C
BRANCH  23  24
HETATM   24  C35 UNL     1      17.659  21.663  60.563  1.00  0.00     0.030 C
HETATM   25  C36 UNL     1      19.123  21.263  60.698  1.00  0.00     0.007 C
ENDBRANCH  23  24
BRANCH  23  26
HETATM   26  C37 UNL     1      16.133  23.420  59.761  1.00  0.00     0.254 C
HETATM   27  N6  UNL     1      15.206  22.375  59.583  1.00  0.00    -0.060 NA
HETATM   28  O3  UNL     1      15.855  24.587  59.437  1.00  0.00    -0.275 OA
ENDBRANCH  23  26
ENDBRANCH  21  23
ENDBRANCH   8  19
ENDBRANCH   7   8
ENDBRANCH   6   7
ENDBRANCH   5   6
ENDBRANCH   3   5
BRANCH   1  29
HETATM   29  C22 UNL     1      15.163  22.181  65.434  1.00  0.00     0.052 C
BRANCH  29  30
HETATM   30  C21 UNL     1      13.926  22.066  64.594  1.00  0.00     0.015 C
BRANCH  30  31
HETATM   31  C20 UNL     1      13.604  20.600  64.449  1.00  0.00     0.022 C
HETATM   32  C2  UNL     1      14.029  20.122  63.117  1.00  0.00    -0.084 C
HETATM   33  C1  UNL     1      15.095  19.387  62.868  1.00  0.00     0.014 C
HETATM   34  C3  UNL     1      13.146  20.495  61.960  1.00  0.00     0.034 C
HETATM   35  C4  UNL     1      11.839  19.746  62.259  1.00  0.00     0.010 C
HETATM   36  C5  UNL     1      11.275  20.310  63.511  1.00  0.00    -0.001 C
HETATM   37  C6  UNL     1       9.988  19.623  63.935  1.00  0.00    -0.005 C
HETATM   38  C18 UNL     1      12.159  20.264  64.721  1.00  0.00    -0.033 C
HETATM   39  C7  UNL     1       9.027  19.374  62.812  1.00  0.00     0.007 C
HETATM   40  C15 UNL     1       9.322  20.524  64.935  1.00  0.00    -0.008 C
HETATM   41  C8  UNL     1       7.966  18.434  63.348  1.00  0.00     0.036 C
HETATM   42  C9  UNL     1       7.702  18.606  64.809  1.00  0.00     0.223 C
HETATM   43  C14 UNL     1       7.983  19.988  65.341  1.00  0.00     0.041 C
HETATM   44  C16 UNL     1      10.168  20.879  66.111  1.00  0.00     0.006 C
HETATM   45  C17 UNL     1      11.584  21.219  65.730  1.00  0.00     0.010 C
HETATM   46  C19 UNL     1      12.177  18.882  65.387  1.00  0.00     0.016 C
BRANCH  42  47
HETATM   47  N1  UNL     1       8.291  17.617  65.660  1.00  0.00     0.093 N
HETATM   48  C10 UNL     1       7.685  17.722  67.002  1.00  0.00     0.273 C
HETATM   49  C11 UNL     1       8.444  16.579  67.688  1.00  0.00     0.032 C
HETATM   50  C12 UNL     1       8.366  15.513  66.607  1.00  0.00     0.032 C
HETATM   51  C13 UNL     1       7.902  16.253  65.342  1.00  0.00     0.273 C
ENDBRANCH  42  47
ENDBRANCH  30  31
ENDBRANCH  29  30
ENDBRANCH   1  29
TORSDOF 15
ENDMDL