MODEL 3
REMARK VINA RESULT: -6.429510201      1.740      2.393
REMARK  17 active torsions:
REMARK  status: ('A' for Active; 'I' for Inactive)
REMARK    1  A    between atoms: C2_2  and  C3_3
REMARK    2  A    between atoms: C3_3  and  C4_5
REMARK    3  A    between atoms: C4_5  and  C5_6
REMARK    4  A    between atoms: C5_6  and  C6_7
REMARK    5  A    between atoms: C6_7  and  C7_8
REMARK    6  A    between atoms: C7_8  and  C8_9
REMARK    7  A    between atoms: C8_9  and  C9_10
REMARK    8  A    between atoms: C9_10  and  C10_11
REMARK    9  A    between atoms: C12_16  and  C13_17
REMARK   10  A    between atoms: C13_17  and  C14_18
REMARK   11  A    between atoms: C18_25  and  C19_26
REMARK   12  A    between atoms: C19_26  and  C20_27
REMARK   13  A    between atoms: C23_30  and  O4_31
REMARK   14  A    between atoms: C24_35  and  C25_36
REMARK   15  A    between atoms: C25_36  and  C26_37
REMARK   16  A    between atoms: C30_44  and  C31_45
REMARK   17  A    between atoms: C31_45  and  C32_46
ROOT
HETATM    1  C10 UNL     1       6.689  19.066  66.226  1.00  0.00     0.149 C
HETATM    2  C11 UNL     1       6.553  17.642  66.431  1.00  0.00     0.229 C
HETATM    3  O2  UNL     1       6.188  17.205  67.543  1.00  0.00    -0.273 OA
HETATM    4  N1  UNL     1       6.814  16.685  65.428  1.00  0.00    -0.347 N
ATOM      5  H1  UNL     1       7.249  15.807  65.714  1.00  0.00     0.163 HD
HETATM    6  C12 UNL     1       6.505  16.860  63.996  1.00  0.00     0.177 C
HETATM    7  C17 UNL     1       5.933  15.546  63.583  1.00  0.00     0.244 C
HETATM    8  O3  UNL     1       6.797  14.822  62.951  1.00  0.00    -0.271 OA
HETATM    9  N2  UNL     1       4.674  15.029  63.778  1.00  0.00    -0.325 N
ATOM     10  H2  UNL     1       4.689  14.148  64.291  1.00  0.00     0.169 HD
HETATM   11  C18 UNL     1       3.356  15.436  63.430  1.00  0.00     0.063 C
HETATM   12  C23 UNL     1       2.339  15.399  64.500  1.00  0.00     0.159 C
HETATM   13  N3  UNL     1       2.394  15.613  65.871  1.00  0.00    -0.356 N
ATOM     14  H3  UNL     1       2.452  14.749  66.409  1.00  0.00     0.162 HD
HETATM   15  C24 UNL     1       2.387  16.786  66.690  1.00  0.00     0.176 C
HETATM   16  C29 UNL     1       2.648  18.064  65.941  1.00  0.00     0.241 C
HETATM   17  O5  UNL     1       1.655  18.324  65.153  1.00  0.00    -0.271 OA
HETATM   18  N4  UNL     1       3.720  18.918  65.988  1.00  0.00    -0.348 N
ATOM     19  H4  UNL     1       4.241  18.973  65.113  1.00  0.00     0.163 HD
HETATM   20  C30 UNL     1       4.252  19.756  67.036  1.00  0.00     0.155 C
HETATM   21  C35 UNL     1       5.702  19.973  66.818  1.00  0.00     0.162 C
HETATM   22  O6  UNL     1       6.187  21.064  67.172  1.00  0.00    -0.295 OA
ENDROOT
BRANCH   1  23
HETATM   23  C9  UNL     1       8.093  19.453  66.660  1.00  0.00     0.022 C
BRANCH  23  24
HETATM   24  C8  UNL     1       9.011  19.787  65.553  1.00  0.00     0.001 C
BRANCH  24  25
HETATM   25  C7  UNL     1      10.258  18.913  65.678  1.00  0.00     0.000 C
BRANCH  25  26
HETATM   26  C6  UNL     1      11.448  19.621  66.205  1.00  0.00     0.000 C
BRANCH  26  27
HETATM   27  C5  UNL     1      11.405  21.069  65.855  1.00  0.00     0.007 C
BRANCH  27  28
HETATM   28  C4  UNL     1      12.436  21.468  64.830  1.00  0.00     0.078 C
BRANCH  28  29
HETATM   29  C3  UNL     1      11.848  21.266  63.453  1.00  0.00     0.126 C
HETATM   30  O1  UNL     1      10.728  21.671  63.199  1.00  0.00    -0.298 OA
BRANCH  29  31
HETATM   31  C2  UNL     1      12.621  20.573  62.389  1.00  0.00     0.074 C
HETATM   32  C1  UNL     1      12.887  19.118  62.801  1.00  0.00     0.013 C
ENDBRANCH  29  31
ENDBRANCH  28  29
ENDBRANCH  27  28
ENDBRANCH  26  27
ENDBRANCH  25  26
ENDBRANCH  24  25
ENDBRANCH  23  24
ENDBRANCH   1  23
BRANCH  20  33
HETATM   33  C31 UNL     1       3.841  19.417  68.415  1.00  0.00     0.037 C
BRANCH  33  34
HETATM   34  C32 UNL     1       3.008  20.545  69.013  1.00  0.00    -0.020 C
HETATM   35  C33 UNL     1       2.614  20.003  70.410  1.00  0.00     0.009 C
HETATM   36  C34 UNL     1       1.708  20.588  68.240  1.00  0.00     0.009 C
ENDBRANCH  33  34
ENDBRANCH  20  33
BRANCH   6  37
HETATM   37  C13 UNL     1       7.865  17.114  63.368  1.00  0.00     0.038 C
BRANCH  37  38
HETATM   38  C14 UNL     1       7.872  18.361  62.572  1.00  0.00    -0.020 C
HETATM   39  C15 UNL     1       9.269  18.626  62.046  1.00  0.00     0.009 C
HETATM   40  C16 UNL     1       6.963  18.223  61.341  1.00  0.00     0.009 C
ENDBRANCH  37  38
ENDBRANCH   6  37
BRANCH  15  41
HETATM   41  C25 UNL     1       1.071  17.032  67.357  1.00  0.00     0.038 C
BRANCH  41  42
HETATM   42  C26 UNL     1       0.927  16.516  68.730  1.00  0.00    -0.020 C
HETATM   43  C27 UNL     1       0.135  17.284  69.720  1.00  0.00     0.009 C
HETATM   44  C28 UNL     1       2.329  16.327  69.338  1.00  0.00     0.009 C
ENDBRANCH  41  42
ENDBRANCH  15  41
BRANCH  11  45
HETATM   45  C19 UNL     1       3.210  16.580  62.479  1.00  0.00     0.065 C
BRANCH  45  46
HETATM   46  C20 UNL     1       2.595  16.129  61.148  1.00  0.00    -0.017 C
HETATM   47  C21 UNL     1       2.666  14.618  61.096  1.00  0.00     0.010 C
HETATM   48  C22 UNL     1       1.119  16.473  61.258  1.00  0.00     0.010 C
ENDBRANCH  45  46
ENDBRANCH  11  45
BRANCH  12  49
HETATM   49  O4  UNL     1       1.153  15.099  64.052  1.00  0.00    -0.345 OA
ATOM     50  H4  UNL     1       0.522  15.794  64.199  1.00  0.00     0.219 HD
ENDBRANCH  12  49
TORSDOF 17
ENDMDL