MODEL 2
REMARK VINA RESULT: -9.761065151      0.974      1.133
REMARK  17 active torsions:
REMARK  status: ('A' for Active; 'I' for Inactive)
REMARK    1  A    between atoms: C2_2  and  C3_4
REMARK    2  A    between atoms: C3_4  and  N1_5
REMARK    3  A    between atoms: C3_4  and  C32_48
REMARK       I    between atoms: N1_5  and  C4_7
REMARK    4  A    between atoms: C4_7  and  C5_9
REMARK    5  A    between atoms: C5_9  and  C6_10
REMARK    6  A    between atoms: C5_9  and  N2_17
REMARK    7  A    between atoms: C6_10  and  C7_11
REMARK       I    between atoms: N2_17  and  C13_19
REMARK       I    between atoms: C13_19  and  N3_21
REMARK       I    between atoms: N3_21  and  C14_23
REMARK    8  A    between atoms: C14_23  and  C15_25
REMARK       I    between atoms: C15_25  and  N4_27
REMARK    9  A    between atoms: N4_27  and  C16_29
REMARK   10  A    between atoms: C16_29  and  C17_30
REMARK   11  A    between atoms: C17_30  and  N5_33
REMARK   12  A    between atoms: N5_33  and  C21_35
REMARK   13  A    between atoms: C21_35  and  O6_36
REMARK   14  A    between atoms: C21_35  and  C22_38
REMARK   15  A    between atoms: C22_38  and  C24_40
REMARK   16  A    between atoms: C24_40  and  C25_41
REMARK   17  A    between atoms: C25_41  and  C26_42
ROOT
HETATM    1  N2  UNL     1      13.492  20.756  65.123  1.00  0.00    -0.330 N
ATOM      2  H2  UNL     1      13.714  19.824  65.473  1.00  0.00     0.165 HD
HETATM    3  C13 UNL     1      12.191  21.301  65.331  1.00  0.00     0.323 C
HETATM    4  O3  UNL     1      11.958  22.365  64.699  1.00  0.00    -0.247 OA
HETATM    5  N3  UNL     1      11.241  20.735  66.179  1.00  0.00    -0.271 N
ATOM      6  H3  UNL     1      11.319  20.317  67.105  1.00  0.00     0.174 HD
HETATM    7  C14 UNL     1       9.844  20.988  65.099  1.00  0.00     0.317 C
HETATM    8  O4  UNL     1      10.221  21.250  64.070  1.00  0.00    -0.262 OA
ENDROOT
BRANCH   7   9
HETATM    9  C15 UNL     1       8.701  20.760  65.882  1.00  0.00     0.309 C
HETATM   10  O5  UNL     1       8.400  21.491  66.877  1.00  0.00    -0.262 OA
HETATM   11  N4  UNL     1       7.803  19.689  65.631  1.00  0.00    -0.351 N
ATOM     12  H4  UNL     1       7.991  19.006  64.897  1.00  0.00     0.162 HD
BRANCH  11  13
HETATM   13  C16 UNL     1       6.600  19.597  66.457  1.00  0.00     0.153 C
BRANCH  13  14
HETATM   14  C17 UNL     1       6.229  18.184  66.730  1.00  0.00     0.042 C
HETATM   15  C18 UNL     1       5.397  18.187  68.015  1.00  0.00     0.040 C
HETATM   16  C19 UNL     1       7.464  17.311  66.964  1.00  0.00     0.040 C
BRANCH  14  17
HETATM   17  N5  UNL     1       5.404  17.652  65.657  1.00  0.00    -0.359 N
HETATM   18  C20 UNL     1       4.011  18.030  65.653  1.00  0.00     0.152 C
BRANCH  17  19
HETATM   19  C21 UNL     1       5.963  16.844  64.635  1.00  0.00     0.117 C
BRANCH  19  20
HETATM   20  O6  UNL     1       5.329  15.607  64.731  1.00  0.00    -0.349 OA
ATOM     21  H6  UNL     1       6.007  14.982  64.961  1.00  0.00     0.219 HD
ENDBRANCH  19  20
BRANCH  19  22
HETATM   22  C22 UNL     1       6.893  16.830  63.601  1.00  0.00     0.056 C
HETATM   23  C23 UNL     1       7.813  15.548  63.811  1.00  0.00     0.018 C
BRANCH  22  24
HETATM   24  C24 UNL     1       6.735  16.919  62.173  1.00  0.00     0.013 C
BRANCH  24  25
HETATM   25  C25 UNL     1       6.947  18.117  61.344  1.00  0.00     0.005 C
BRANCH  25  26
HETATM   26  C26 UNL     1       8.443  18.107  60.970  1.00  0.00    -0.014 C
HETATM   27  C27 UNL     1       8.885  16.688  60.625  1.00  0.00     0.004 C
HETATM   28  C28 UNL     1      10.290  16.850  60.019  1.00  0.00     0.000 C
HETATM   29  C29 UNL     1      11.211  17.476  61.043  1.00  0.00     0.000 C
HETATM   30  C30 UNL     1      10.514  17.793  62.346  1.00  0.00     0.000 C
HETATM   31  C31 UNL     1       9.221  18.567  62.158  1.00  0.00     0.004 C
ENDBRANCH  25  26
ENDBRANCH  24  25
ENDBRANCH  22  24
ENDBRANCH  19  22
ENDBRANCH  17  19
ENDBRANCH  14  17
ENDBRANCH  13  14
ENDBRANCH  11  13
ENDBRANCH   7   9
BRANCH   1  32
HETATM   32  C5  UNL     1      14.503  21.522  64.414  1.00  0.00     0.178 C
BRANCH  32  33
HETATM   33  C4  UNL     1      15.133  20.946  63.258  1.00  0.00     0.241 C
HETATM   34  N1  UNL     1      16.136  21.714  62.570  1.00  0.00    -0.348 N
ATOM     35  H1  UNL     1      16.355  22.636  62.945  1.00  0.00     0.163 HD
HETATM   36  O2  UNL     1      14.803  19.802  62.858  1.00  0.00    -0.271 OA
BRANCH  34  37
HETATM   37  C3  UNL     1      16.872  21.281  61.375  1.00  0.00     0.157 C
BRANCH  37  38
HETATM   38  C2  UNL     1      15.934  21.699  60.260  1.00  0.00     0.145 C
HETATM   39  C1  UNL     1      15.726  23.132  60.010  1.00  0.00     0.093 C
HETATM   40  O1  UNL     1      15.387  20.867  59.597  1.00  0.00    -0.296 OA
ENDBRANCH  37  38
BRANCH  37  41
HETATM   41  C32 UNL     1      18.163  22.018  61.314  1.00  0.00     0.007 C
HETATM   42  C33 UNL     1      18.540  22.827  62.504  1.00  0.00     0.012 C
HETATM   43  C34 UNL     1      19.324  21.446  60.618  1.00  0.00     0.012 C
ENDBRANCH  37  41
ENDBRANCH  34  37
ENDBRANCH  32  33
BRANCH  32  44
HETATM   44  C6  UNL     1      15.446  22.044  65.512  1.00  0.00     0.039 C
BRANCH  44  45
HETATM   45  C7  UNL     1      15.102  23.312  66.166  1.00  0.00    -0.012 C
HETATM   46  C8  UNL     1      14.858  23.475  67.603  1.00  0.00     0.005 C
HETATM   47  C9  UNL     1      16.015  24.164  68.313  1.00  0.00     0.000 C
HETATM   48  C10 UNL     1      17.229  24.382  67.449  1.00  0.00     0.000 C
HETATM   49  C11 UNL     1      16.904  25.082  66.167  1.00  0.00     0.000 C
HETATM   50  C12 UNL     1      15.668  24.559  65.530  1.00  0.00     0.005 C
ENDBRANCH  44  45
ENDBRANCH  32  44
ENDBRANCH   1  32
TORSDOF 17
ENDMDL