MODEL 3
REMARK VINA RESULT: -8.317874975      0.672      1.089
REMARK  18 active torsions:
REMARK  status: ('A' for Active; 'I' for Inactive)
REMARK    1  A    between atoms: C2_2  and  C3_3
REMARK    2  A    between atoms: C3_3  and  C4_4
REMARK    3  A    between atoms: C4_4  and  N1_5
REMARK       I    between atoms: N1_5  and  C5_7
REMARK    4  A    between atoms: C5_7  and  C6_9
REMARK    5  A    between atoms: C9_12  and  C10_13
REMARK    6  A    between atoms: N2_16  and  C13_17
REMARK    7  A    between atoms: C13_17  and  O2_18
REMARK    8  A    between atoms: C13_17  and  C14_20
REMARK    9  A    between atoms: C14_20  and  C15_21
REMARK   10  A    between atoms: C14_20  and  N3_25
REMARK   11  A    between atoms: C15_21  and  C16_22
REMARK       I    between atoms: N3_25  and  C19_27
REMARK   12  A    between atoms: C19_27  and  C20_29
REMARK   13  A    between atoms: C20_29  and  N4_30
REMARK   14  A    between atoms: C20_29  and  C30_46
REMARK       I    between atoms: N4_30  and  C21_32
REMARK   15  A    between atoms: C21_32  and  C22_34
REMARK   16  A    between atoms: C22_34  and  N5_35
REMARK   17  A    between atoms: C22_34  and  C23_39
REMARK   18  A    between atoms: C30_46  and  C32_48
ROOT
HETATM    1  C14 UNL     1       8.724  16.842  62.891  1.00  0.00     0.159 C
ENDROOT
BRANCH   1   2
HETATM    2  C13 UNL     1       7.702  16.149  63.670  1.00  0.00     0.138 C
BRANCH   2   3
HETATM    3  N2  UNL     1       6.789  16.673  64.621  1.00  0.00    -0.344 N
HETATM    4  C6  UNL     1       5.628  17.488  64.200  1.00  0.00     0.184 C
HETATM    5  C7  UNL     1       4.878  17.543  65.495  1.00  0.00     0.033 A
HETATM    6  C8  UNL     1       6.129  17.975  66.314  1.00  0.00     0.024 A
HETATM    7  C34 UNL     1       4.834  18.411  66.587  1.00  0.00    -0.035 A
HETATM    8  C9  UNL     1       6.790  16.632  66.073  1.00  0.00     0.095 C
HETATM    9  C35 UNL     1       4.473  19.879  66.302  1.00  0.00     0.016 C
HETATM   10  C36 UNL     1       4.175  17.970  67.887  1.00  0.00     0.016 C
BRANCH   4  11
HETATM   11  C5  UNL     1       4.805  16.827  63.163  1.00  0.00     0.241 C
HETATM   12  N1  UNL     1       4.330  15.522  63.394  1.00  0.00    -0.359 N
ATOM     13  H1  UNL     1       4.570  15.076  64.279  1.00  0.00     0.162 HD
HETATM   14  O1  UNL     1       4.531  17.404  62.098  1.00  0.00    -0.271 OA
BRANCH  12  15
HETATM   15  C4  UNL     1       3.533  14.782  62.465  1.00  0.00     0.122 C
BRANCH  15  16
HETATM   16  C3  UNL     1       2.348  14.075  63.046  1.00  0.00     0.019 C
BRANCH  16  17
HETATM   17  C2  UNL     1       2.749  12.847  63.838  1.00  0.00    -0.003 C
HETATM   18  C1  UNL     1       3.544  11.957  62.873  1.00  0.00     0.005 C
ENDBRANCH  16  17
ENDBRANCH  15  16
ENDBRANCH  12  15
ENDBRANCH   4  11
BRANCH   8  19
HETATM   19  C10 UNL     1       8.160  16.794  66.710  1.00  0.00     0.001 C
HETATM   20  C11 UNL     1       8.591  15.334  67.023  1.00  0.00     0.011 C
HETATM   21  C12 UNL     1       8.104  17.469  68.039  1.00  0.00     0.011 C
ENDBRANCH   8  19
ENDBRANCH   2   3
BRANCH   2  22
HETATM   22  O2  UNL     1       7.612  14.866  63.469  1.00  0.00    -0.348 OA
ATOM     23  H2  UNL     1       7.629  14.334  64.255  1.00  0.00     0.219 HD
ENDBRANCH   2  22
ENDBRANCH   1   2
BRANCH   1  24
HETATM   24  C15 UNL     1       8.175  17.269  61.522  1.00  0.00     0.037 C
BRANCH  24  25
HETATM   25  C16 UNL     1       9.032  16.807  60.381  1.00  0.00    -0.020 C
HETATM   26  C17 UNL     1       9.414  15.343  60.547  1.00  0.00     0.009 C
HETATM   27  C18 UNL     1      10.392  17.543  60.403  1.00  0.00     0.009 C
ENDBRANCH  24  25
ENDBRANCH   1  24
BRANCH   1  28
HETATM   28  N3  UNL     1       9.171  17.997  63.668  1.00  0.00    -0.347 N
HETATM   29  C19 UNL     1      10.417  18.418  64.047  1.00  0.00     0.241 C
HETATM   30  O3  UNL     1      11.460  17.745  63.692  1.00  0.00    -0.271 OA
ATOM     31  H3  UNL     1       8.413  18.602  63.986  1.00  0.00     0.163 HD
BRANCH  29  32
HETATM   32  C20 UNL     1      10.779  19.604  64.861  1.00  0.00     0.180 C
BRANCH  32  33
HETATM   33  N4  UNL     1      12.161  19.988  64.693  1.00  0.00    -0.346 N
HETATM   34  C21 UNL     1      12.606  21.179  64.054  1.00  0.00     0.249 C
HETATM   35  O4  UNL     1      11.802  22.010  63.571  1.00  0.00    -0.271 OA
ATOM     36  H4  UNL     1      12.873  19.357  65.061  1.00  0.00     0.163 HD
BRANCH  34  37
HETATM   37  C22 UNL     1      14.063  21.489  63.930  1.00  0.00     0.278 C
BRANCH  37  38
HETATM   38  N5  UNL     1      14.873  20.510  64.595  1.00  0.00    -0.066 N
ATOM     39  H53 UNL     1      15.409  20.925  65.357  1.00  0.00     0.275 HD
ATOM     40  H52 UNL     1      14.302  19.861  65.137  1.00  0.00     0.275 HD
ATOM     41  H51 UNL     1      15.480  20.015  63.941  1.00  0.00     0.275 HD
ENDBRANCH  37  38
BRANCH  37  42
HETATM   42  C23 UNL     1      14.470  21.491  62.450  1.00  0.00     0.025 C
HETATM   43  C24 UNL     1      13.998  20.276  61.736  1.00  0.00     0.007 C
HETATM   44  C25 UNL     1      13.307  20.676  60.455  1.00  0.00     0.000 C
HETATM   45  C26 UNL     1      14.121  21.714  59.738  1.00  0.00     0.000 C
HETATM   46  C27 UNL     1      15.592  21.477  59.821  1.00  0.00     0.000 C
HETATM   47  C28 UNL     1      16.253  22.313  60.898  1.00  0.00     0.000 C
HETATM   48  C29 UNL     1      15.925  21.784  62.280  1.00  0.00     0.007 C
ENDBRANCH  37  42
ENDBRANCH  34  37
ENDBRANCH  32  33
BRANCH  32  49
HETATM   49  C30 UNL     1      10.396  19.630  66.279  1.00  0.00     0.013 C
HETATM   50  C31 UNL     1      11.367  19.015  67.249  1.00  0.00     0.012 C
BRANCH  49  51
HETATM   51  C32 UNL     1       9.904  20.987  66.755  1.00  0.00     0.002 C
HETATM   52  C33 UNL     1       8.380  21.004  66.785  1.00  0.00     0.005 C
ENDBRANCH  49  51
ENDBRANCH  32  49
ENDBRANCH  29  32
ENDBRANCH   1  28
TORSDOF 18
ENDMDL