MODEL 4
REMARK VINA RESULT: -10.139888087      1.862     10.977
REMARK  15 active torsions:
REMARK  status: ('A' for Active; 'I' for Inactive)
REMARK    1  A    between atoms: C2_2  and  C4_4
REMARK    2  A    between atoms: C4_4  and  N1_5
REMARK       I    between atoms: N1_5  and  C5_7
REMARK    3  A    between atoms: C5_7  and  C6_9
REMARK    4  A    between atoms: C6_9  and  N2_10
REMARK    5  A    between atoms: C6_9  and  C30_44
REMARK    6  A    between atoms: N2_10  and  C7_12
REMARK    7  A    between atoms: C7_12  and  O2_13
REMARK    8  A    between atoms: C8_15  and  C9_16
REMARK    9  A    between atoms: C8_15  and  N3_20
REMARK       I    between atoms: N3_20  and  C13_22
REMARK   10  A    between atoms: C13_22  and  C14_24
REMARK   11  A    between atoms: C14_24  and  C15_25
REMARK   12  A    between atoms: C14_24  and  N4_28
REMARK   13  A    between atoms: C15_25  and  C16_26
REMARK       I    between atoms: N4_28  and  C18_29
REMARK   14  A    between atoms: C18_29  and  C19_31
REMARK       I    between atoms: N5_36  and  C24_37
REMARK   15  A    between atoms: C24_37  and  C25_39
ROOT
HETATM    1  C7  UNL     1      12.479  18.664  64.674  1.00  0.00     0.168 C
HETATM    2  C8  UNL     1      12.616  19.855  65.301  1.00  0.00     0.086 C
ENDROOT
BRANCH   2   3
HETATM    3  C9  UNL     1      11.504  20.634  66.025  1.00  0.00     0.036 C
HETATM    4  C10 UNL     1      10.321  20.067  66.517  1.00  0.00    -0.085 C
HETATM    5  C11 UNL     1      10.125  19.040  67.510  1.00  0.00     0.043 C
HETATM    6  C12 UNL     1       9.360  21.279  66.827  1.00  0.00     0.043 C
ENDBRANCH   2   3
BRANCH   2   7
HETATM    7  N3  UNL     1      13.589  20.870  65.095  1.00  0.00    -0.317 N
HETATM    8  C13 UNL     1      14.238  21.734  64.205  1.00  0.00     0.282 C
HETATM    9  O3  UNL     1      14.023  21.770  62.999  1.00  0.00    -0.265 OA
ATOM     10  H3  UNL     1      14.001  21.051  66.011  1.00  0.00     0.169 HD
BRANCH   8  11
HETATM   11  C14 UNL     1      15.283  22.645  64.804  1.00  0.00     0.156 C
BRANCH  11  12
HETATM   12  C15 UNL     1      14.854  23.671  65.776  1.00  0.00     0.078 C
BRANCH  12  13
HETATM   13  C16 UNL     1      15.947  23.921  66.815  1.00  0.00     0.003 C
HETATM   14  C17 UNL     1      15.525  23.819  68.231  1.00  0.00     0.005 C
ENDBRANCH  12  13
ENDBRANCH  11  12
BRANCH  11  15
HETATM   15  N4  UNL     1      16.395  22.712  64.039  1.00  0.00    -0.364 NA
HETATM   16  C18 UNL     1      17.537  22.779  63.275  1.00  0.00     0.339 C
HETATM   17  O4  UNL     1      18.673  22.972  63.649  1.00  0.00    -0.250 OA
BRANCH  16  18
HETATM   18  C19 UNL     1      17.181  22.603  61.826  1.00  0.00     0.097 C
HETATM   19  C20 UNL     1      17.234  21.179  61.401  1.00  0.00     0.064 C
HETATM   20  C21 UNL     1      16.488  20.878  60.140  1.00  0.00     0.008 C
HETATM   21  C22 UNL     1      15.830  22.074  59.503  1.00  0.00     0.021 C
HETATM   22  C23 UNL     1      16.351  23.401  59.767  1.00  0.00     0.132 C
HETATM   23  N5  UNL     1      17.507  23.379  60.748  1.00  0.00    -0.315 N
HETATM   24  C24 UNL     1      18.564  24.242  60.403  1.00  0.00     0.228 C
HETATM   25  O5  UNL     1      19.319  24.713  61.261  1.00  0.00    -0.273 OA
BRANCH  24  26
HETATM   26  C25 UNL     1      18.793  24.570  58.967  1.00  0.00     0.078 C
HETATM   27  C26 UNL     1      17.719  25.290  58.243  1.00  0.00     0.014 C
HETATM   28  C27 UNL     1      17.722  26.674  58.756  1.00  0.00     0.001 C
HETATM   29  C28 UNL     1      19.081  26.871  59.453  1.00  0.00     0.001 C
HETATM   30  C29 UNL     1      19.880  25.717  58.962  1.00  0.00     0.014 C
ENDBRANCH  24  26
ENDBRANCH  16  18
ENDBRANCH  11  15
ENDBRANCH   8  11
ENDBRANCH   2   7
BRANCH   1  31
HETATM   31  N2  UNL     1      11.657  17.852  63.882  1.00  0.00    -0.331 N
ATOM     32  H2  UNL     1      12.153  17.067  63.459  1.00  0.00     0.168 HD
BRANCH  31  33
HETATM   33  C6  UNL     1      10.310  17.889  63.551  1.00  0.00     0.105 C
BRANCH  33  34
HETATM   34  C5  UNL     1       9.064  17.347  64.110  1.00  0.00     0.272 C
HETATM   35  N1  UNL     1       8.102  18.325  64.603  1.00  0.00    -0.331 N
ATOM     36  H1  UNL     1       8.417  19.290  64.504  1.00  0.00     0.168 HD
HETATM   37  O1  UNL     1       8.789  16.176  64.191  1.00  0.00    -0.266 OA
BRANCH  35  38
HETATM   38  C4  UNL     1       6.847  18.212  65.181  1.00  0.00     0.097 C
BRANCH  38  39
HETATM   39  C2  UNL     1       6.445  18.628  66.489  1.00  0.00    -0.056 C
HETATM   40  C1  UNL     1       6.637  17.874  67.563  1.00  0.00     0.020 C
HETATM   41  C3  UNL     1       5.763  19.950  66.792  1.00  0.00     0.049 C
ENDBRANCH  38  39
ENDBRANCH  35  38
ENDBRANCH  33  34
BRANCH  33  42
HETATM   42  C30 UNL     1      10.170  18.155  62.022  1.00  0.00    -0.048 C
HETATM   43  C31 UNL     1      11.206  17.438  61.214  1.00  0.00     0.037 C
HETATM   44  C32 UNL     1      10.676  16.304  60.390  1.00  0.00     0.004 C
HETATM   45  C33 UNL     1       9.314  16.567  59.766  1.00  0.00     0.001 C
HETATM   46  C34 UNL     1       8.309  16.911  60.811  1.00  0.00     0.004 C
HETATM   47  C35 UNL     1       8.842  18.196  61.437  1.00  0.00     0.037 C
ENDBRANCH  33  42
ENDBRANCH  31  33
ENDBRANCH   1  31
BRANCH   1  48
HETATM   48  O2  UNL     1      13.595  17.791  64.901  1.00  0.00    -0.344 OA
ATOM     49  H2  UNL     1      13.161  17.030  65.269  1.00  0.00     0.219 HD
ENDBRANCH   1  48
TORSDOF 15
ENDMDL