MODEL 2
REMARK VINA RESULT: -9.671086791      2.043      4.235
REMARK  17 active torsions:
REMARK  status: ('A' for Active; 'I' for Inactive)
REMARK    1  A    between atoms: C2_2  and  C3_3
REMARK    2  A    between atoms: N1_7  and  C7_8
REMARK    3  A    between atoms: C7_8  and  C8_9
REMARK    4  A    between atoms: N2_17  and  C15_18
REMARK    5  A    between atoms: C15_18  and  O2_19
REMARK    6  A    between atoms: C16_21  and  C17_22
REMARK    7  A    between atoms: C16_21  and  N3_28
REMARK    8  A    between atoms: C17_22  and  C18_23
REMARK       I    between atoms: N3_28  and  C23_30
REMARK    9  A    between atoms: C23_30  and  C24_32
REMARK   10  A    between atoms: C24_32  and  C25_33
REMARK   11  A    between atoms: C24_32  and  N5_42
REMARK   12  A    between atoms: C25_33  and  C26_34
REMARK   13  A    between atoms: C26_34  and  C27_35
REMARK   14  A    between atoms: C27_35  and  C28_36
REMARK   15  A    between atoms: C28_36  and  C29_37
REMARK   16  A    between atoms: C29_37  and  N4_38
REMARK       I    between atoms: N5_42  and  C30_44
REMARK       I    between atoms: C30_44  and  N6_46
REMARK   17  A    between atoms: N6_46  and  C31_48
ROOT
HETATM    1  C15 UNL     1      10.706  18.310  63.390  1.00  0.00     0.170 C
HETATM    2  C16 UNL     1      11.251  19.608  63.657  1.00  0.00     0.064 C
ENDROOT
BRANCH   2   3
HETATM    3  C17 UNL     1      10.591  20.888  63.781  1.00  0.00     0.066 C
BRANCH   3   4
HETATM    4  C18 UNL     1       9.913  21.252  65.068  1.00  0.00    -0.009 C
HETATM    5  C19 UNL     1       8.625  20.418  65.237  1.00  0.00     0.005 C
HETATM    6  C20 UNL     1       8.265  20.646  66.669  1.00  0.00     0.000 C
HETATM    7  C21 UNL     1       9.430  21.355  67.337  1.00  0.00     0.000 C
HETATM    8  C22 UNL     1      10.604  21.131  66.345  1.00  0.00     0.005 C
ENDBRANCH   3   4
ENDBRANCH   2   3
BRANCH   2   9
HETATM    9  N3  UNL     1      12.702  19.695  63.422  1.00  0.00    -0.325 N
HETATM   10  C23 UNL     1      13.310  20.057  62.211  1.00  0.00     0.244 C
HETATM   11  O3  UNL     1      12.563  20.333  61.257  1.00  0.00    -0.271 OA
ATOM     12  H3  UNL     1      13.317  19.473  64.205  1.00  0.00     0.169 HD
BRANCH  10  13
HETATM   13  C24 UNL     1      14.813  20.118  62.065  1.00  0.00     0.178 C
BRANCH  13  14
HETATM   14  C25 UNL     1      15.162  20.619  60.720  1.00  0.00     0.035 C
BRANCH  14  15
HETATM   15  C26 UNL     1      16.574  20.913  60.422  1.00  0.00     0.002 C
BRANCH  15  16
HETATM   16  C27 UNL     1      17.081  22.292  60.392  1.00  0.00     0.002 C
BRANCH  16  17
HETATM   17  C28 UNL     1      18.045  22.615  61.517  1.00  0.00     0.027 C
BRANCH  17  18
HETATM   18  C29 UNL     1      19.283  21.767  61.288  1.00  0.00     0.229 C
BRANCH  18  19
HETATM   19  N4  UNL     1      19.894  21.396  62.563  1.00  0.00    -0.079 N
ATOM     20  H43 UNL     1      20.912  21.368  62.500  1.00  0.00     0.274 HD
ATOM     21  H42 UNL     1      19.805  22.139  63.256  1.00  0.00     0.274 HD
ATOM     22  H41 UNL     1      19.512  20.514  62.902  1.00  0.00     0.274 HD
ENDBRANCH  18  19
ENDBRANCH  17  18
ENDBRANCH  16  17
ENDBRANCH  15  16
ENDBRANCH  14  15
ENDBRANCH  13  14
BRANCH  13  23
HETATM   23  N5  UNL     1      15.483  20.673  63.176  1.00  0.00    -0.330 N
HETATM   24  C30 UNL     1      15.173  21.820  63.927  1.00  0.00     0.317 C
HETATM   25  O4  UNL     1      14.194  22.539  63.639  1.00  0.00    -0.247 OA
HETATM   26  N6  UNL     1      15.951  22.234  65.063  1.00  0.00    -0.339 N
ATOM     27  H6  UNL     1      16.760  21.673  65.329  1.00  0.00     0.164 HD
ATOM     28  H5  UNL     1      16.315  20.168  63.479  1.00  0.00     0.165 HD
BRANCH  26  29
HETATM   29  C31 UNL     1      15.641  23.396  65.838  1.00  0.00     0.086 C
HETATM   30  C32 UNL     1      16.867  24.264  66.033  1.00  0.00     0.025 C
HETATM   31  C33 UNL     1      17.104  24.271  67.532  1.00  0.00     0.002 C
HETATM   32  C34 UNL     1      15.653  24.241  68.028  1.00  0.00     0.002 C
HETATM   33  C35 UNL     1      15.149  23.028  67.234  1.00  0.00     0.025 C
ENDBRANCH  26  29
ENDBRANCH  13  23
ENDBRANCH  10  13
ENDBRANCH   2   9
BRANCH   1  34
HETATM   34  N2  UNL     1       9.670  17.761  62.657  1.00  0.00    -0.270 N
HETATM   35  C3  UNL     1       9.614  17.598  61.244  1.00  0.00     0.124 C
HETATM   36  C4  UNL     1       8.582  16.559  60.783  1.00  0.00     0.027 C
HETATM   37  C5  UNL     1       8.776  15.204  61.353  1.00  0.00     0.014 C
HETATM   38  C6  UNL     1       7.223  17.097  61.154  1.00  0.00     0.134 C
HETATM   39  N1  UNL     1       7.230  17.128  62.623  1.00  0.00    -0.333 N
HETATM   40  C14 UNL     1       8.450  17.322  63.326  1.00  0.00     0.327 C
HETATM   41  O1  UNL     1       8.431  17.095  64.562  1.00  0.00    -0.247 OA
BRANCH  35  42
HETATM   42  C2  UNL     1      10.859  17.202  60.564  1.00  0.00    -0.011 C
HETATM   43  C1  UNL     1      11.014  16.748  59.351  1.00  0.00     0.009 C
ENDBRANCH  35  42
BRANCH  39  44
HETATM   44  C7  UNL     1       5.983  16.964  63.316  1.00  0.00     0.132 C
BRANCH  44  45
HETATM   45  C8  UNL     1       4.903  16.298  62.498  1.00  0.00     0.004 C
HETATM   46  C9  UNL     1       3.584  17.037  62.528  1.00  0.00     0.006 C
HETATM   47  C10 UNL     1       2.552  16.373  61.654  1.00  0.00     0.000 C
HETATM   48  C11 UNL     1       2.958  14.943  61.296  1.00  0.00     0.000 C
HETATM   49  C12 UNL     1       3.411  14.292  62.590  1.00  0.00     0.000 C
HETATM   50  C13 UNL     1       4.713  14.893  63.076  1.00  0.00     0.006 C
ENDBRANCH  44  45
ENDBRANCH  39  44
ENDBRANCH   1  34
BRANCH   1  51
HETATM   51  O2  UNL     1      11.394  17.321  64.024  1.00  0.00    -0.344 OA
ATOM     52  H2  UNL     1      12.234  17.192  63.599  1.00  0.00     0.219 HD
ENDBRANCH   1  51
TORSDOF 17
ENDMDL