MODEL 4
REMARK VINA RESULT: -9.162930921      1.699      2.133
REMARK  14 active torsions:
REMARK  status: ('A' for Active; 'I' for Inactive)
REMARK    1  A    between atoms: C8_8  and  C9_9
REMARK    2  A    between atoms: C9_9  and  C10_10
REMARK    3  A    between atoms: C10_10  and  C11_11
REMARK       I    between atoms: C11_11  and  N1_13
REMARK       I    between atoms: N1_13  and  C12_15
REMARK    4  A    between atoms: C12_15  and  C13_17
REMARK       I    between atoms: N2_19  and  C15_20
REMARK       I    between atoms: C15_20  and  N3_22
REMARK    5  A    between atoms: N3_22  and  C16_24
REMARK    6  A    between atoms: C23_31  and  C24_32
REMARK       I    between atoms: C24_32  and  N4_34
REMARK    7  A    between atoms: N4_34  and  C25_36
REMARK    8  A    between atoms: C25_36  and  C26_37
REMARK    9  A    between atoms: C26_37  and  C27_38
REMARK   10  A    between atoms: C27_38  and  C28_39
REMARK   11  A    between atoms: C28_39  and  C29_40
REMARK   12  A    between atoms: C29_40  and  C30_41
REMARK   13  A    between atoms: C30_41  and  C31_42
REMARK   14  A    between atoms: C31_42  and  C32_43
ROOT
HETATM    1  C13 UNL     1      11.037  20.500  63.087  1.00  0.00     0.111 C
HETATM    2  C14 UNL     1      11.936  21.480  63.762  1.00  0.00     0.142 C
HETATM    3  N2  UNL     1      13.158  20.756  64.023  1.00  0.00    -0.333 N
HETATM    4  C15 UNL     1      14.244  21.253  64.802  1.00  0.00     0.318 C
HETATM    5  O3  UNL     1      15.232  20.530  64.961  1.00  0.00    -0.247 OA
HETATM    6  N3  UNL     1      14.152  22.554  65.360  1.00  0.00    -0.338 N
ATOM      7  H3  UNL     1      13.303  23.089  65.183  1.00  0.00     0.164 HD
HETATM    8  C22 UNL     1      13.138  19.465  63.371  1.00  0.00     0.142 C
HETATM    9  C23 UNL     1      11.961  19.553  62.396  1.00  0.00     0.110 C
ENDROOT
BRANCH   1  10
HETATM   10  C12 UNL     1      10.055  19.872  63.995  1.00  0.00     0.230 C
HETATM   11  N1  UNL     1      10.448  19.480  65.283  1.00  0.00    -0.297 N
HETATM   12  C11 UNL     1       9.639  18.856  66.275  1.00  0.00     0.224 C
ATOM     13  H1  UNL     1      11.420  19.663  65.537  1.00  0.00     0.171 HD
HETATM   14  O1  UNL     1      10.224  18.549  67.369  1.00  0.00    -0.273 OA
HETATM   15  O2  UNL     1       8.884  19.699  63.598  1.00  0.00    -0.273 OA
BRANCH  12  16
HETATM   16  C10 UNL     1       8.219  18.564  66.105  1.00  0.00     0.108 C
BRANCH  16  17
HETATM   17  C9  UNL     1       7.334  18.748  67.287  1.00  0.00     0.048 C
BRANCH  17  18
HETATM   18  C8  UNL     1       5.920  18.830  66.876  1.00  0.00    -0.057 A
HETATM   19  C7  UNL     1       5.376  20.126  66.789  1.00  0.00     0.007 A
HETATM   20  C6  UNL     1       4.060  20.273  66.444  1.00  0.00     0.008 A
HETATM   21  C5  UNL     1       3.213  19.224  66.172  1.00  0.00    -0.051 A
HETATM   22  C4  UNL     1       1.768  19.149  65.784  1.00  0.00     0.048 C
HETATM   23  C34 UNL     1       3.739  17.959  66.258  1.00  0.00    -0.051 A
HETATM   24  C2  UNL     1       1.413  17.709  66.049  1.00  0.00    -0.040 C
HETATM   25  C1  UNL     1       0.406  17.300  64.986  1.00  0.00     0.015 C
HETATM   26  C3  UNL     1       0.833  17.565  67.439  1.00  0.00     0.015 C
HETATM   27  C35 UNL     1       2.704  16.972  65.929  1.00  0.00     0.048 C
HETATM   28  C33 UNL     1       5.083  17.783  66.609  1.00  0.00     0.014 A
ENDBRANCH  17  18
ENDBRANCH  16  17
ENDBRANCH  12  16
ENDBRANCH   1  10
BRANCH   9  29
HETATM   29  C24 UNL     1      11.433  18.218  62.091  1.00  0.00     0.224 C
HETATM   30  O4  UNL     1      11.561  17.302  62.969  1.00  0.00    -0.273 OA
HETATM   31  N4  UNL     1      10.793  17.908  60.870  1.00  0.00    -0.361 N
ATOM     32  H4  UNL     1      10.712  18.660  60.186  1.00  0.00     0.162 HD
BRANCH  31  33
HETATM   33  C25 UNL     1      10.242  16.625  60.504  1.00  0.00     0.122 C
BRANCH  33  34
HETATM   34  C26 UNL     1       8.796  16.590  60.889  1.00  0.00     0.020 C
BRANCH  34  35
HETATM   35  C27 UNL     1       8.224  17.965  60.739  1.00  0.00     0.002 C
BRANCH  35  36
HETATM   36  C28 UNL     1       6.864  18.100  61.320  1.00  0.00     0.000 C
BRANCH  36  37
HETATM   37  C29 UNL     1       6.315  16.773  61.761  1.00  0.00     0.001 C
BRANCH  37  38
HETATM   38  C30 UNL     1       5.365  17.034  62.930  1.00  0.00     0.010 C
BRANCH  38  39
HETATM   39  C31 UNL     1       4.235  16.061  62.769  1.00  0.00     0.113 C
BRANCH  39  40
HETATM   40  C32 UNL     1       3.095  16.736  62.122  1.00  0.00     0.172 C
HETATM   41  O5  UNL     1       2.782  17.904  62.487  1.00  0.00    -0.648 OA
HETATM   42  O6  UNL     1       2.382  16.076  61.119  1.00  0.00    -0.648 OA
ENDBRANCH  39  40
ENDBRANCH  38  39
ENDBRANCH  37  38
ENDBRANCH  36  37
ENDBRANCH  35  36
ENDBRANCH  34  35
ENDBRANCH  33  34
ENDBRANCH  31  33
ENDBRANCH   9  29
BRANCH   6  43
HETATM   43  C16 UNL     1      15.183  23.173  66.163  1.00  0.00     0.086 C
HETATM   44  C17 UNL     1      14.907  23.089  67.629  1.00  0.00     0.025 C
HETATM   45  C18 UNL     1      15.646  24.189  68.343  1.00  0.00     0.002 C
HETATM   46  C19 UNL     1      16.985  24.521  67.707  1.00  0.00     0.000 C
HETATM   47  C20 UNL     1      16.790  24.998  66.282  1.00  0.00     0.002 C
HETATM   48  C21 UNL     1      15.394  24.621  65.790  1.00  0.00     0.025 C
ENDBRANCH   6  43
TORSDOF 14
ENDMDL