MODEL 5
REMARK VINA RESULT: -6.193871723      4.255     10.209
REMARK  16 active torsions:
REMARK  status: ('A' for Active; 'I' for Inactive)
REMARK    1  A    between atoms: C2_2  and  C3_3
REMARK    2  A    between atoms: C3_3  and  C4_4
REMARK    3  A    between atoms: C4_4  and  C5_5
REMARK    4  A    between atoms: C5_5  and  C6_6
REMARK    5  A    between atoms: C6_6  and  C7_7
REMARK    6  A    between atoms: C7_7  and  C8_8
REMARK    7  A    between atoms: C8_8  and  C9_9
REMARK    8  A    between atoms: C9_9  and  C10_10
REMARK       I    between atoms: N2_15  and  C12_16
REMARK       I    between atoms: C12_16  and  N3_18
REMARK    9  A    between atoms: C19_26  and  C20_27
REMARK   10  A    between atoms: C20_27  and  C21_28
REMARK   11  A    between atoms: C25_35  and  C26_36
REMARK   12  A    between atoms: C26_36  and  C27_37
REMARK   13  A    between atoms: C27_37  and  C28_38
REMARK   14  A    between atoms: C28_38  and  C29_39
REMARK   15  A    between atoms: C29_39  and  N6_40
REMARK   16  A    between atoms: C30_44  and  O4_45
ROOT
HETATM    1  C10 UNL     1       7.427  18.281  66.519  1.00  0.00     0.083 C
HETATM    2  C11 UNL     1       7.105  16.862  66.099  1.00  0.00     0.241 C
HETATM    3  O1  UNL     1       6.822  16.068  67.072  1.00  0.00    -0.271 OA
HETATM    4  N1  UNL     1       7.084  16.312  64.814  1.00  0.00    -0.259 N
ATOM      5  H1  UNL     1       7.879  15.697  64.637  1.00  0.00     0.190 HD
HETATM    6  N2  UNL     1       6.222  16.411  63.714  1.00  0.00    -0.202 N
HETATM    7  C12 UNL     1       6.785  16.930  62.505  1.00  0.00     0.344 C
HETATM    8  O2  UNL     1       5.965  16.911  61.499  1.00  0.00    -0.245 OA
HETATM    9  N3  UNL     1       8.033  17.445  62.206  1.00  0.00    -0.329 N
HETATM   10  C13 UNL     1       9.204  17.674  62.972  1.00  0.00     0.155 C
HETATM   11  C14 UNL     1      10.264  16.713  62.406  1.00  0.00     0.256 C
HETATM   12  N4  UNL     1      10.552  17.016  61.051  1.00  0.00    -0.072 N
HETATM   13  C15 UNL     1      11.969  17.394  60.970  1.00  0.00     0.272 C
HETATM   14  C16 UNL     1      10.440  15.810  60.226  1.00  0.00     0.272 C
HETATM   15  C17 UNL     1       9.702  18.056  60.564  1.00  0.00     0.256 C
HETATM   16  C18 UNL     1       8.236  17.861  60.787  1.00  0.00     0.155 C
HETATM   17  C19 UNL     1       4.807  16.009  63.754  1.00  0.00     0.107 C
HETATM   18  C24 UNL     1       3.831  17.122  63.668  1.00  0.00     0.266 C
HETATM   19  O3  UNL     1       3.572  17.487  62.483  1.00  0.00    -0.266 OA
HETATM   20  N5  UNL     1       3.169  17.811  64.671  1.00  0.00    -0.348 N
ATOM     21  H5  UNL     1       3.402  18.804  64.694  1.00  0.00     0.163 HD
HETATM   22  C25 UNL     1       2.222  17.431  65.689  1.00  0.00     0.117 C
HETATM   23  C30 UNL     1       2.372  18.061  67.018  1.00  0.00     0.163 C
HETATM   24  C31 UNL     1       3.496  17.688  67.857  1.00  0.00     0.003 C
HETATM   25  C32 UNL     1       4.675  18.217  68.035  1.00  0.00    -0.028 C
HETATM   26  C33 UNL     1       5.292  19.395  67.437  1.00  0.00     0.032 C
HETATM   27  C34 UNL     1       6.302  19.218  66.392  1.00  0.00    -0.002 C
HETATM   28  C35 UNL     1       6.711  20.629  65.935  1.00  0.00     0.011 C
ENDROOT
BRANCH  17  29
HETATM   29  C20 UNL     1       4.423  14.839  62.930  1.00  0.00     0.069 C
BRANCH  29  30
HETATM   30  C21 UNL     1       3.020  14.427  62.819  1.00  0.00    -0.017 C
HETATM   31  C22 UNL     1       2.410  14.238  61.473  1.00  0.00     0.010 C
HETATM   32  C23 UNL     1       2.697  13.216  63.705  1.00  0.00     0.010 C
ENDBRANCH  29  30
ENDBRANCH  17  29
BRANCH   1  33
HETATM   33  C9  UNL     1       8.218  18.237  67.780  1.00  0.00     0.014 C
BRANCH  33  34
HETATM   34  C8  UNL     1       9.679  18.508  67.683  1.00  0.00     0.001 C
BRANCH  34  35
HETATM   35  C7  UNL     1      10.032  19.249  66.403  1.00  0.00     0.000 C
BRANCH  35  36
HETATM   36  C6  UNL     1      10.201  20.720  66.606  1.00  0.00     0.000 C
BRANCH  36  37
HETATM   37  C5  UNL     1      10.930  21.399  65.469  1.00  0.00     0.000 C
BRANCH  37  38
HETATM   38  C4  UNL     1      10.472  20.818  64.173  1.00  0.00     0.004 C
BRANCH  38  39
HETATM   39  C3  UNL     1      11.553  20.506  63.192  1.00  0.00     0.026 C
BRANCH  39  40
HETATM   40  C2  UNL     1      12.746  20.066  64.002  1.00  0.00    -0.037 C
HETATM   41  C1  UNL     1      12.960  18.776  64.171  1.00  0.00     0.007 C
ENDBRANCH  39  40
ENDBRANCH  38  39
ENDBRANCH  37  38
ENDBRANCH  36  37
ENDBRANCH  35  36
ENDBRANCH  34  35
ENDBRANCH  33  34
ENDBRANCH   1  33
BRANCH  22  42
HETATM   42  C26 UNL     1       0.863  17.854  65.164  1.00  0.00     0.028 C
BRANCH  42  43
HETATM   43  C27 UNL     1      -0.077  16.768  64.808  1.00  0.00     0.004 C
BRANCH  43  44
HETATM   44  C28 UNL     1       0.019  16.493  63.317  1.00  0.00     0.027 C
BRANCH  44  45
HETATM   45  C29 UNL     1       0.081  17.870  62.648  1.00  0.00     0.229 C
BRANCH  45  46
HETATM   46  N6  UNL     1       0.823  17.738  61.418  1.00  0.00    -0.079 N
ATOM     47  H63 UNL     1       1.661  18.319  61.398  1.00  0.00     0.274 HD
ATOM     48  H62 UNL     1       1.283  16.831  61.331  1.00  0.00     0.274 HD
ATOM     49  H61 UNL     1       0.189  17.934  60.644  1.00  0.00     0.274 HD
ENDBRANCH  45  46
ENDBRANCH  44  45
ENDBRANCH  43  44
ENDBRANCH  42  43
ENDBRANCH  22  42
BRANCH  23  50
HETATM   50  O4  UNL     1       2.120  19.417  66.866  1.00  0.00    -0.390 OA
ATOM     51  H4  UNL     1       2.646  19.878  67.508  1.00  0.00     0.210 HD
ENDBRANCH  23  50
TORSDOF 16
ENDMDL