MODEL 4
REMARK VINA RESULT: -9.535222131      1.948      4.501
REMARK  15 active torsions:
REMARK  status: ('A' for Active; 'I' for Inactive)
REMARK    1  A    between atoms: C2_2  and  C3_3
REMARK    2  A    between atoms: C3_3  and  C4_4
REMARK    3  A    between atoms: C4_4  and  C5_5
REMARK       I    between atoms: N1_8  and  C8_9
REMARK    4  A    between atoms: C8_9  and  C9_11
REMARK    5  A    between atoms: C9_11  and  C10_12
REMARK    6  A    between atoms: C9_11  and  N2_18
REMARK    7  A    between atoms: C10_12  and  C11_13
REMARK       I    between atoms: N2_18  and  C16_20
REMARK    8  A    between atoms: C16_20  and  C17_22
REMARK    9  A    between atoms: C17_22  and  N3_23
REMARK   10  A    between atoms: C17_22  and  C31_45
REMARK       I    between atoms: N3_23  and  C18_25
REMARK   11  A    between atoms: C18_25  and  C19_27
REMARK   12  A    between atoms: C19_27  and  N4_29
REMARK       I    between atoms: N4_29  and  C21_31
REMARK   13  A    between atoms: C21_31  and  C22_33
REMARK   14  A    between atoms: C22_33  and  N5_34
REMARK   15  A    between atoms: C22_33  and  C25_39
REMARK       I    between atoms: N5_34  and  C23_36
ROOT
HETATM    1  C17 UNL     1      15.525  22.746  66.283  1.00  0.00     0.180 C
ENDROOT
BRANCH   1   2
HETATM    2  C16 UNL     1      14.654  21.806  65.563  1.00  0.00     0.241 C
HETATM    3  N2  UNL     1      13.370  22.089  65.026  1.00  0.00    -0.346 N
ATOM      4  H2  UNL     1      12.977  23.023  65.143  1.00  0.00     0.163 HD
HETATM    5  O2  UNL     1      15.064  20.593  65.383  1.00  0.00    -0.271 OA
BRANCH   3   6
HETATM    6  C9  UNL     1      12.611  21.094  64.322  1.00  0.00     0.177 C
BRANCH   6   7
HETATM    7  C8  UNL     1      11.148  21.168  64.564  1.00  0.00     0.242 C
HETATM    8  N1  UNL     1      10.391  20.207  65.244  1.00  0.00    -0.350 N
HETATM    9  C7  UNL     1       8.955  20.343  65.399  1.00  0.00     0.126 C
HETATM   10  C34 UNL     1      10.981  19.034  65.858  1.00  0.00     0.126 C
HETATM   11  C6  UNL     1       8.387  18.907  65.334  1.00  0.00     0.024 C
HETATM   12  C5  UNL     1       8.697  18.261  66.620  1.00  0.00    -0.012 C
HETATM   13  C35 UNL     1      10.130  18.587  67.028  1.00  0.00     0.024 C
HETATM   14  O1  UNL     1      10.570  22.200  64.108  1.00  0.00    -0.271 OA
BRANCH  12  15
HETATM   15  C4  UNL     1       7.828  18.511  67.781  1.00  0.00     0.005 C
BRANCH  15  16
HETATM   16  C3  UNL     1       6.625  17.737  68.062  1.00  0.00     0.000 C
BRANCH  16  17
HETATM   17  C2  UNL     1       5.294  18.212  67.622  1.00  0.00    -0.005 C
HETATM   18  C1  UNL     1       5.389  19.765  67.467  1.00  0.00     0.005 C
ENDBRANCH  16  17
ENDBRANCH  15  16
ENDBRANCH  12  15
ENDBRANCH   6   7
BRANCH   6  19
HETATM   19  C10 UNL     1      13.001  20.958  62.893  1.00  0.00     0.039 C
BRANCH  19  20
HETATM   20  C11 UNL     1      12.733  19.667  62.219  1.00  0.00    -0.012 C
HETATM   21  C12 UNL     1      12.793  18.427  63.044  1.00  0.00     0.005 C
HETATM   22  C13 UNL     1      11.865  17.490  62.237  1.00  0.00     0.000 C
HETATM   23  C14 UNL     1      10.670  18.391  62.021  1.00  0.00     0.000 C
HETATM   24  C15 UNL     1      11.304  19.709  61.653  1.00  0.00     0.005 C
ENDBRANCH  19  20
ENDBRANCH   6  19
ENDBRANCH   3   6
ENDBRANCH   1   2
BRANCH   1  25
HETATM   25  N3  UNL     1      16.370  23.437  65.352  1.00  0.00    -0.346 N
HETATM   26  C18 UNL     1      17.583  24.066  65.709  1.00  0.00     0.240 C
HETATM   27  O3  UNL     1      17.974  24.051  66.898  1.00  0.00    -0.271 OA
ATOM     28  H3  UNL     1      16.077  23.477  64.376  1.00  0.00     0.163 HD
BRANCH  26  29
HETATM   29  C19 UNL     1      18.441  24.774  64.706  1.00  0.00     0.172 C
HETATM   30  C20 UNL     1      18.648  26.209  65.071  1.00  0.00     0.042 C
BRANCH  29  31
HETATM   31  N4  UNL     1      17.754  24.777  63.413  1.00  0.00    -0.346 N
HETATM   32  C21 UNL     1      18.266  24.016  62.332  1.00  0.00     0.241 C
HETATM   33  O4  UNL     1      19.346  23.362  62.590  1.00  0.00    -0.271 OA
ATOM     34  H4  UNL     1      16.904  25.328  63.289  1.00  0.00     0.163 HD
BRANCH  32  35
HETATM   35  C22 UNL     1      17.704  23.897  60.983  1.00  0.00     0.180 C
BRANCH  35  36
HETATM   36  N5  UNL     1      17.408  22.502  60.659  1.00  0.00    -0.348 N
HETATM   37  C23 UNL     1      16.544  21.709  61.471  1.00  0.00     0.214 C
HETATM   38  C24 UNL     1      16.221  20.304  61.186  1.00  0.00     0.117 C
HETATM   39  O5  UNL     1      16.050  22.283  62.486  1.00  0.00    -0.274 OA
ATOM     40  H5  UNL     1      17.831  22.085  59.830  1.00  0.00     0.163 HD
ENDBRANCH  35  36
BRANCH  35  41
HETATM   41  C25 UNL     1      18.482  24.593  59.894  1.00  0.00     0.018 C
HETATM   42  C26 UNL     1      17.752  24.628  58.583  1.00  0.00     0.007 C
HETATM   43  C27 UNL     1      17.273  26.051  58.353  1.00  0.00     0.000 C
HETATM   44  C28 UNL     1      18.550  26.867  58.128  1.00  0.00     0.000 C
HETATM   45  C29 UNL     1      19.325  26.934  59.420  1.00  0.00     0.000 C
HETATM   46  C30 UNL     1      18.751  25.984  60.405  1.00  0.00     0.007 C
ENDBRANCH  35  41
ENDBRANCH  32  35
ENDBRANCH  29  31
ENDBRANCH  26  29
ENDBRANCH   1  25
BRANCH   1  47
HETATM   47  C31 UNL     1      14.565  23.741  66.957  1.00  0.00     0.009 C
HETATM   48  C32 UNL     1      14.996  23.951  68.383  1.00  0.00     0.012 C
HETATM   49  C33 UNL     1      14.505  25.050  66.254  1.00  0.00     0.012 C
ENDBRANCH   1  47
TORSDOF 15
ENDMDL