MODEL 1
REMARK VINA RESULT: -9.078919538      0.000      0.000
REMARK  15 active torsions:
REMARK  status: ('A' for Active; 'I' for Inactive)
REMARK    1  A    between atoms: C7_10  and  C8_11
REMARK    2  A    between atoms: C8_11  and  C9_12
REMARK    3  A    between atoms: C9_12  and  C10_13
REMARK    4  A    between atoms: C10_13  and  C11_14
REMARK    5  A    between atoms: C11_14  and  N2_15
REMARK    6  A    between atoms: N2_15  and  C12_17
REMARK    7  A    between atoms: C12_17  and  C13_18
REMARK    8  A    between atoms: C13_18  and  C14_19
REMARK    9  A    between atoms: C14_19  and  C15_20
REMARK   10  A    between atoms: C15_20  and  C16_21
REMARK   11  A    between atoms: C16_21  and  C17_22
REMARK       I    between atoms: N3_25  and  C20_26
REMARK       I    between atoms: C20_26  and  N5_30
REMARK   12  A    between atoms: C23_33  and  N6_34
REMARK   13  A    between atoms: N6_34  and  S1_36
REMARK   14  A    between atoms: S1_36  and  N7_39
REMARK   15  A    between atoms: N7_39  and  C25_41
ROOT
HETATM    1  C17 UNL     1      16.535  23.114  66.021  1.00  0.00     0.006 C
HETATM    2  C18 UNL     1      15.778  23.620  67.200  1.00  0.00     0.027 C
HETATM    3  C19 UNL     1      14.629  22.605  67.348  1.00  0.00     0.141 C
HETATM    4  N3  UNL     1      14.340  22.293  65.965  1.00  0.00    -0.218 N
HETATM    5  C20 UNL     1      13.057  22.206  65.371  1.00  0.00     0.671 C
HETATM    6  N4  UNL     1      12.663  23.088  64.536  1.00  0.00    -0.235 N
ATOM      7  H41 UNL     1      11.739  23.026  64.108  1.00  0.00     0.174 HD
ATOM      8  H42 UNL     1      13.279  23.864  64.297  1.00  0.00     0.174 HD
HETATM    9  N5  UNL     1      12.202  21.129  65.704  1.00  0.00    -0.218 N
HETATM   10  C21 UNL     1      10.794  21.327  65.921  1.00  0.00     0.143 C
HETATM   11  C22 UNL     1       9.959  20.265  65.231  1.00  0.00     0.046 C
HETATM   12  C23 UNL     1      10.543  18.899  65.377  1.00  0.00     0.097 C
HETATM   13  C28 UNL     1      11.667  18.911  66.404  1.00  0.00     0.046 C
HETATM   14  C29 UNL     1      12.759  19.778  65.831  1.00  0.00     0.143 C
HETATM   15  C30 UNL     1      15.629  22.090  65.344  1.00  0.00     0.145 C
ENDROOT
BRANCH   1  16
HETATM   16  C16 UNL     1      16.940  24.127  65.015  1.00  0.00     0.006 C
BRANCH  16  17
HETATM   17  C15 UNL     1      17.286  25.504  65.461  1.00  0.00     0.000 C
BRANCH  17  18
HETATM   18  C14 UNL     1      18.704  25.869  65.533  1.00  0.00     0.002 C
BRANCH  18  19
HETATM   19  C13 UNL     1      19.103  27.198  64.952  1.00  0.00     0.019 C
BRANCH  19  20
HETATM   20  C12 UNL     1      19.739  27.187  63.605  1.00  0.00     0.113 C
BRANCH  20  21
HETATM   21  N2  UNL     1      18.834  27.471  62.551  1.00  0.00    -0.421 N
ATOM     22  H2  UNL     1      18.537  28.423  62.334  1.00  0.00     0.153 HD
BRANCH  21  23
HETATM   23  C11 UNL     1      18.363  26.346  61.813  1.00  0.00     0.113 C
BRANCH  23  24
HETATM   24  C10 UNL     1      18.134  26.646  60.354  1.00  0.00     0.019 C
BRANCH  24  25
HETATM   25  C9  UNL     1      16.992  25.890  59.751  1.00  0.00     0.006 C
BRANCH  25  26
HETATM   26  C8  UNL     1      17.338  24.570  59.153  1.00  0.00     0.044 C
BRANCH  26  27
HETATM   27  C7  UNL     1      16.918  23.400  59.958  1.00  0.00     0.011 A
HETATM   28  C6  UNL     1      17.876  22.619  60.607  1.00  0.00     0.252 A
HETATM   29  N1  UNL     1      17.531  21.553  61.350  1.00  0.00    -0.322 N
HETATM   30  O1  UNL     1      19.081  22.965  60.459  1.00  0.00    -0.268 OA
HETATM   31  C5  UNL     1      16.241  21.165  61.521  1.00  0.00     0.045 A
ATOM     32  H1  UNL     1      18.268  21.014  61.804  1.00  0.00     0.169 HD
HETATM   33  C4  UNL     1      15.896  20.069  62.288  1.00  0.00     0.031 A
HETATM   34  C32 UNL     1      15.250  21.904  60.900  1.00  0.00    -0.008 A
HETATM   35  C3  UNL     1      14.560  19.706  62.438  1.00  0.00     0.009 A
HETATM   36  C2  UNL     1      13.565  20.432  61.826  1.00  0.00    -0.061 A
HETATM   37  C1  UNL     1      12.158  20.002  62.019  1.00  0.00     0.048 C
HETATM   38  C33 UNL     1      13.939  21.520  61.067  1.00  0.00     0.020 A
HETATM   39  C31 UNL     1      15.612  22.999  60.137  1.00  0.00     0.026 A
ENDBRANCH  26  27
ENDBRANCH  25  26
ENDBRANCH  24  25
ENDBRANCH  23  24
ENDBRANCH  21  23
ENDBRANCH  20  21
ENDBRANCH  19  20
ENDBRANCH  18  19
ENDBRANCH  17  18
ENDBRANCH  16  17
ENDBRANCH   1  16
BRANCH  12  40
HETATM   40  N6  UNL     1       9.502  17.974  65.765  1.00  0.00    -0.302 N
ATOM     41  H6  UNL     1       9.305  17.704  66.728  1.00  0.00     0.173 HD
BRANCH  40  42
HETATM   42  S1  UNL     1       8.633  17.380  64.393  1.00  0.00     0.299 S
HETATM   43  O2  UNL     1       7.201  17.782  64.500  1.00  0.00    -0.188 OA
HETATM   44  O3  UNL     1       8.724  15.881  64.412  1.00  0.00    -0.188 OA
BRANCH  42  45
HETATM   45  N7  UNL     1       9.277  17.935  62.911  1.00  0.00    -0.193 NA
HETATM   46  C24 UNL     1       8.365  18.900  62.327  1.00  0.00     0.131 C
BRANCH  45  47
HETATM   47  C25 UNL     1       9.486  16.823  62.026  1.00  0.00     0.075 A
HETATM   48  C26 UNL     1       9.509  17.073  60.535  1.00  0.00     0.022 A
HETATM   49  C27 UNL     1      10.793  16.802  61.265  1.00  0.00     0.022 A
ENDBRANCH  45  47
ENDBRANCH  42  45
ENDBRANCH  40  42
ENDBRANCH  12  40
TORSDOF 15
ENDMDL