MODEL 4
REMARK VINA RESULT: -7.585788967      4.974     12.883
REMARK  16 active torsions:
REMARK  status: ('A' for Active; 'I' for Inactive)
REMARK    1  A    between atoms: C2_2  and  C3_3
REMARK    2  A    between atoms: C3_3  and  C5_5
REMARK    3  A    between atoms: C5_5  and  N1_6
REMARK    4  A    between atoms: C5_5  and  C31_44
REMARK       I    between atoms: N1_6  and  C6_8
REMARK       I    between atoms: C6_8  and  N2_10
REMARK    5  A    between atoms: N2_10  and  C7_12
REMARK    6  A    between atoms: C7_12  and  C8_13
REMARK    7  A    between atoms: C7_12  and  C18_26
REMARK       I    between atoms: C8_13  and  N3_15
REMARK    8  A    between atoms: N3_15  and  C9_17
REMARK    9  A    between atoms: C9_17  and  C10_18
REMARK   10  A    between atoms: C9_17  and  C14_22
REMARK   11  A    between atoms: C10_18  and  C11_19
REMARK   12  A    between atoms: C14_22  and  C15_23
REMARK       I    between atoms: C18_26  and  N4_28
REMARK   13  A    between atoms: C19_29  and  C20_30
REMARK       I    between atoms: C20_30  and  N5_32
REMARK   14  A    between atoms: N5_32  and  C21_34
REMARK   15  A    between atoms: C31_44  and  C32_46
REMARK   16  A    between atoms: C32_46  and  C33_47
ROOT
HETATM    1  C7  UNL     1      17.301  22.158  63.414  1.00  0.00     0.271 C
ENDROOT
BRANCH   1   2
HETATM    2  N2  UNL     1      15.937  22.382  63.907  1.00  0.00    -0.322 N
HETATM    3  C6  UNL     1      14.987  21.379  64.117  1.00  0.00     0.317 C
HETATM    4  N1  UNL     1      13.695  21.717  64.592  1.00  0.00    -0.331 N
HETATM    5  O1  UNL     1      15.203  20.148  63.911  1.00  0.00    -0.247 OA
ATOM      6  H1  UNL     1      13.476  22.700  64.749  1.00  0.00     0.165 HD
ATOM      7  H2  UNL     1      15.662  23.343  64.111  1.00  0.00     0.165 HD
BRANCH   4   8
HETATM    8  C5  UNL     1      12.657  20.710  64.866  1.00  0.00     0.159 C
BRANCH   8   9
HETATM    9  C3  UNL     1      12.563  19.764  63.702  1.00  0.00     0.011 C
HETATM   10  C4  UNL     1      11.438  20.042  62.758  1.00  0.00     0.012 C
BRANCH   9  11
HETATM   11  C2  UNL     1      12.269  18.372  64.301  1.00  0.00     0.002 C
HETATM   12  C1  UNL     1      11.261  17.670  63.408  1.00  0.00     0.005 C
ENDBRANCH   9  11
ENDBRANCH   8   9
BRANCH   8  13
HETATM   13  C31 UNL     1      11.407  21.387  65.250  1.00  0.00     0.150 C
HETATM   14  O5  UNL     1      10.967  22.307  64.536  1.00  0.00    -0.296 OA
BRANCH  13  15
HETATM   15  C32 UNL     1      10.603  21.068  66.440  1.00  0.00     0.084 C
BRANCH  15  16
HETATM   16  C33 UNL     1       9.143  20.821  66.060  1.00  0.00    -0.016 C
HETATM   17  C34 UNL     1       8.182  21.271  67.125  1.00  0.00     0.010 C
HETATM   18  C35 UNL     1       8.941  19.345  65.832  1.00  0.00     0.010 C
ENDBRANCH  15  16
ENDBRANCH  13  15
ENDBRANCH   8  13
ENDBRANCH   4   8
ENDBRANCH   1   2
BRANCH   1  19
HETATM   19  C8  UNL     1      17.324  22.207  61.950  1.00  0.00     0.250 C
HETATM   20  O2  UNL     1      17.830  21.209  61.329  1.00  0.00    -0.271 OA
HETATM   21  N3  UNL     1      16.839  23.252  61.154  1.00  0.00    -0.354 N
ATOM     22  H3  UNL     1      16.426  24.071  61.600  1.00  0.00     0.162 HD
BRANCH  21  23
HETATM   23  C9  UNL     1      16.913  23.191  59.677  1.00  0.00     0.085 C
BRANCH  23  24
HETATM   24  C10 UNL     1      17.511  24.406  59.115  1.00  0.00     0.029 C
BRANCH  24  25
HETATM   25  C11 UNL     1      17.174  25.732  59.704  1.00  0.00    -0.021 C
HETATM   26  C12 UNL     1      16.001  26.357  58.892  1.00  0.00     0.009 C
HETATM   27  C13 UNL     1      18.255  26.783  59.607  1.00  0.00     0.009 C
ENDBRANCH  24  25
ENDBRANCH  23  24
BRANCH  23  28
HETATM   28  C14 UNL     1      15.635  22.712  59.124  1.00  0.00     0.029 C
BRANCH  28  29
HETATM   29  C15 UNL     1      14.598  22.251  60.055  1.00  0.00    -0.013 A
HETATM   30  C16 UNL     1      14.432  20.898  60.582  1.00  0.00     0.005 A
HETATM   31  C17 UNL     1      13.472  21.423  59.524  1.00  0.00     0.005 A
ENDBRANCH  28  29
ENDBRANCH  23  28
ENDBRANCH  21  23
ENDBRANCH   1  19
BRANCH   1  32
HETATM   32  C18 UNL     1      18.204  23.200  64.050  1.00  0.00     0.253 C
HETATM   33  O3  UNL     1      19.207  23.456  63.339  1.00  0.00    -0.270 OA
HETATM   34  N4  UNL     1      17.904  23.790  65.302  1.00  0.00    -0.331 N
HETATM   35  C19 UNL     1      18.685  24.769  65.968  1.00  0.00     0.180 C
HETATM   36  C27 UNL     1      16.734  23.446  66.075  1.00  0.00     0.101 A
HETATM   37  C25 UNL     1      18.127  24.896  67.377  1.00  0.00     0.042 C
HETATM   38  C26 UNL     1      16.882  24.061  67.416  1.00  0.00     0.021 A
HETATM   39  C28 UNL     1      15.721  24.367  66.569  1.00  0.00    -0.021 A
HETATM   40  C29 UNL     1      15.453  25.710  65.979  1.00  0.00     0.017 C
HETATM   41  C30 UNL     1      14.407  23.711  67.044  1.00  0.00     0.017 C
BRANCH  35  42
HETATM   42  C20 UNL     1      18.941  26.045  65.347  1.00  0.00     0.241 C
HETATM   43  O4  UNL     1      18.511  27.071  66.005  1.00  0.00    -0.271 OA
HETATM   44  N5  UNL     1      19.579  26.387  64.145  1.00  0.00    -0.351 N
ATOM     45  H5  UNL     1      19.943  25.620  63.580  1.00  0.00     0.163 HD
BRANCH  44  46
HETATM   46  C21 UNL     1      19.767  27.706  63.639  1.00  0.00     0.022 C
HETATM   47  C22 UNL     1      20.243  28.715  64.657  1.00  0.00     0.037 C
HETATM   48  C23 UNL     1      20.885  27.651  62.584  1.00  0.00     0.037 C
HETATM   49  C24 UNL     1      18.573  28.274  62.929  1.00  0.00     0.037 C
ENDBRANCH  44  46
ENDBRANCH  35  42
ENDBRANCH   1  32
TORSDOF 16
ENDMDL