MODEL 3
REMARK VINA RESULT: -9.083342407      1.337      2.163
REMARK  15 active torsions:
REMARK  status: ('A' for Active; 'I' for Inactive)
REMARK       I    between atoms: C2_2  and  N1_4
REMARK    1  A    between atoms: N1_4  and  C3_6
REMARK    2  A    between atoms: C3_6  and  C4_7
REMARK    3  A    between atoms: C3_6  and  C32_46
REMARK       I    between atoms: C4_7  and  N2_9
REMARK    4  A    between atoms: N2_9  and  C5_11
REMARK    5  A    between atoms: C5_11  and  C6_12
REMARK    6  A    between atoms: C7_13  and  C8_14
REMARK    7  A    between atoms: C8_14  and  C9_15
REMARK    8  A    between atoms: C9_15  and  C10_16
REMARK    9  A    between atoms: C10_16  and  C11_17
REMARK   10  A    between atoms: C11_17  and  C12_18
REMARK   11  A    between atoms: C12_18  and  C13_19
REMARK   12  A    between atoms: N3_22  and  C14_23
REMARK   13  A    between atoms: C14_23  and  C15_24
REMARK   14  A    between atoms: C14_23  and  C19_28
REMARK   15  A    between atoms: C15_24  and  C16_25
REMARK       I    between atoms: C19_28  and  N4_30
REMARK       I    between atoms: N4_30  and  C20_32
REMARK       I    between atoms: C20_32  and  N5_34
ROOT
HETATM    1  C6  UNL     1       6.863  18.419  63.649  1.00  0.00     0.275 A
HETATM    2  C7  UNL     1       8.345  18.003  63.440  1.00  0.00     0.259 A
HETATM    3  N3  UNL     1       7.944  18.843  64.473  1.00  0.00     0.117 N
ENDROOT
BRANCH   3   4
HETATM    4  C14 UNL     1       7.985  18.681  65.890  1.00  0.00     0.316 C
BRANCH   4   5
HETATM    5  C15 UNL     1       7.060  19.736  66.438  1.00  0.00     0.049 C
BRANCH   5   6
HETATM    6  C16 UNL     1       6.184  19.375  67.566  1.00  0.00    -0.020 C
HETATM    7  C17 UNL     1       6.067  17.849  67.597  1.00  0.00     0.009 C
HETATM    8  C18 UNL     1       4.774  19.887  67.211  1.00  0.00     0.009 C
ENDBRANCH   5   6
ENDBRANCH   4   5
BRANCH   4   9
HETATM    9  C19 UNL     1       9.366  18.873  66.396  1.00  0.00     0.259 C
HETATM   10  O5  UNL     1       9.747  18.174  67.414  1.00  0.00    -0.271 OA
HETATM   11  N4  UNL     1      10.346  19.759  65.887  1.00  0.00    -0.277 N
HETATM   12  C20 UNL     1      11.640  19.863  66.489  1.00  0.00     0.325 C
ATOM     13  H4  UNL     1      10.125  20.335  65.074  1.00  0.00     0.173 HD
HETATM   14  O6  UNL     1      11.889  19.157  67.522  1.00  0.00    -0.247 OA
HETATM   15  N5  UNL     1      12.653  20.696  66.010  1.00  0.00    -0.334 N
HETATM   16  C21 UNL     1      13.926  20.767  66.734  1.00  0.00     0.128 C
HETATM   17  C31 UNL     1      12.532  21.468  64.818  1.00  0.00     0.128 C
HETATM   18  C22 UNL     1      14.398  22.184  66.908  1.00  0.00     0.029 C
HETATM   19  C23 UNL     1      14.353  22.938  65.588  1.00  0.00    -0.037 C
HETATM   20  C24 UNL     1      15.301  22.352  64.596  1.00  0.00     0.010 C
HETATM   21  C29 UNL     1      14.637  24.391  65.881  1.00  0.00     0.010 C
HETATM   22  C30 UNL     1      12.915  22.894  65.069  1.00  0.00     0.029 C
HETATM   23  C25 UNL     1      16.642  23.005  64.525  1.00  0.00     0.005 C
HETATM   24  C26 UNL     1      17.065  23.740  65.756  1.00  0.00    -0.019 C
HETATM   25  C27 UNL     1      18.286  24.584  65.352  1.00  0.00     0.010 C
HETATM   26  C28 UNL     1      16.040  24.674  66.306  1.00  0.00     0.005 C
ENDBRANCH   4   9
ENDBRANCH   3   4
BRANCH   1  27
HETATM   27  C5  UNL     1       6.045  17.197  63.970  1.00  0.00     0.161 C
BRANCH  27  28
HETATM   28  N2  UNL     1       4.708  17.152  63.516  1.00  0.00    -0.357 N
HETATM   29  C4  UNL     1       4.214  16.328  62.481  1.00  0.00     0.240 C
HETATM   30  O2  UNL     1       5.089  15.573  61.928  1.00  0.00    -0.271 OA
ATOM     31  H2  UNL     1       4.040  17.770  63.977  1.00  0.00     0.162 HD
BRANCH  29  32
HETATM   32  C3  UNL     1       2.833  16.254  61.998  1.00  0.00     0.179 C
BRANCH  32  33
HETATM   33  N1  UNL     1       1.912  16.867  62.970  1.00  0.00    -0.348 N
HETATM   34  C2  UNL     1       1.152  18.009  62.662  1.00  0.00     0.214 C
HETATM   35  C1  UNL     1       0.213  18.655  63.599  1.00  0.00     0.117 C
HETATM   36  O1  UNL     1       1.291  18.497  61.515  1.00  0.00    -0.274 OA
ATOM     37  H1  UNL     1       1.823  16.450  63.897  1.00  0.00     0.163 HD
ENDBRANCH  32  33
BRANCH  32  38
HETATM   38  C32 UNL     1       2.357  14.854  61.725  1.00  0.00     0.009 C
HETATM   39  C33 UNL     1       1.892  14.181  63.014  1.00  0.00     0.012 C
HETATM   40  C34 UNL     1       1.226  14.727  60.753  1.00  0.00     0.012 C
ENDBRANCH  32  38
ENDBRANCH  29  32
ENDBRANCH  27  28
ENDBRANCH   1  27
BRANCH   2  41
HETATM   41  C8  UNL     1       9.060  18.686  62.289  1.00  0.00     0.038 C
BRANCH  41  42
HETATM   42  C9  UNL     1      10.541  18.845  62.525  1.00  0.00     0.002 C
BRANCH  42  43
HETATM   43  C10 UNL     1      11.229  17.828  61.633  1.00  0.00     0.001 C
BRANCH  43  44
HETATM   44  C11 UNL     1      10.325  17.196  60.627  1.00  0.00     0.010 C
BRANCH  44  45
HETATM   45  C12 UNL     1      10.224  15.710  60.828  1.00  0.00     0.113 C
BRANCH  45  46
HETATM   46  C13 UNL     1       8.821  15.254  60.936  1.00  0.00     0.172 C
HETATM   47  O3  UNL     1       7.907  15.519  60.125  1.00  0.00    -0.648 OA
HETATM   48  O4  UNL     1       8.493  14.457  62.040  1.00  0.00    -0.648 OA
ENDBRANCH  45  46
ENDBRANCH  44  45
ENDBRANCH  43  44
ENDBRANCH  42  43
ENDBRANCH  41  42
ENDBRANCH   2  41
TORSDOF 15
ENDMDL