MODEL 1
REMARK VINA RESULT: -9.414926553      0.000      0.000
REMARK  17 active torsions:
REMARK  status: ('A' for Active; 'I' for Inactive)
REMARK    1  A    between atoms: C2_2  and  C3_3
REMARK    2  A    between atoms: C3_3  and  N1_4
REMARK    3  A    between atoms: N1_4  and  C5_6
REMARK    4  A    between atoms: C5_6  and  O1_7
REMARK    5  A    between atoms: C5_6  and  C6_9
REMARK    6  A    between atoms: C9_12  and  C10_13
REMARK    7  A    between atoms: C10_13  and  N2_14
REMARK    8  A    between atoms: N3_17  and  C12_18
REMARK    9  A    between atoms: C12_18  and  C13_19
REMARK   10  A    between atoms: C19_25  and  C20_26
REMARK   11  A    between atoms: C20_26  and  C21_27
REMARK   12  A    between atoms: C21_27  and  C22_28
REMARK   13  A    between atoms: C22_28  and  C23_29
REMARK   14  A    between atoms: C23_29  and  N4_30
REMARK       I    between atoms: N4_30  and  C24_32
REMARK       I    between atoms: C24_32  and  N5_34
REMARK   15  A    between atoms: N5_34  and  C25_36
REMARK   16  A    between atoms: C28_39  and  C29_40
REMARK       I    between atoms: C29_40  and  N6_42
REMARK   17  A    between atoms: N6_42  and  C30_44
ROOT
HETATM    1  N2  UNL     1      13.844  21.321  62.360  1.00  0.00    -0.313 N
HETATM    2  C11 UNL     1      13.714  19.960  62.721  1.00  0.00     0.322 C
HETATM    3  O2  UNL     1      14.442  19.027  62.287  1.00  0.00    -0.247 OA
HETATM    4  N3  UNL     1      12.605  19.824  63.670  1.00  0.00    -0.327 N
HETATM    5  C19 UNL     1      12.202  21.154  63.960  1.00  0.00     0.121 C
HETATM    6  C28 UNL     1      13.361  22.041  63.518  1.00  0.00     0.204 C
ENDROOT
BRANCH   1   7
HETATM    7  C10 UNL     1      14.347  21.883  61.106  1.00  0.00     0.185 C
BRANCH   7   8
HETATM    8  C9  UNL     1      15.784  22.218  61.254  1.00  0.00     0.028 A
HETATM    9  C8  UNL     1      16.770  21.359  61.559  1.00  0.00     0.029 A
HETATM   10  C7  UNL     1      17.939  22.126  61.584  1.00  0.00     0.036 A
HETATM   11  C6  UNL     1      17.659  23.439  61.295  1.00  0.00     0.083 A
HETATM   12  N7  UNL     1      16.300  23.438  61.099  1.00  0.00    -0.355 N
ATOM     13  H7  UNL     1      15.753  24.266  60.864  1.00  0.00     0.166 HD
BRANCH  11  14
HETATM   14  C5  UNL     1      18.480  24.628  61.198  1.00  0.00     0.165 C
BRANCH  14  15
HETATM   15  N1  UNL     1      18.547  25.681  62.076  1.00  0.00    -0.364 N
HETATM   16  C4  UNL     1      18.510  27.055  61.471  1.00  0.00     0.151 C
BRANCH  15  17
HETATM   17  C3  UNL     1      18.646  25.680  63.488  1.00  0.00     0.124 C
BRANCH  17  18
HETATM   18  C2  UNL     1      18.851  27.059  64.104  1.00  0.00     0.015 C
HETATM   19  C1  UNL     1      19.408  26.970  65.494  1.00  0.00     0.006 C
ENDBRANCH  17  18
ENDBRANCH  15  17
ENDBRANCH  14  15
BRANCH  14  20
HETATM   20  O1  UNL     1      19.239  24.678  60.143  1.00  0.00    -0.344 OA
ATOM     21  H1  UNL     1      19.758  23.909  59.940  1.00  0.00     0.219 HD
ENDBRANCH  14  20
ENDBRANCH  11  14
ENDBRANCH   7   8
ENDBRANCH   1   7
BRANCH   6  22
HETATM   22  C29 UNL     1      14.417  22.190  64.542  1.00  0.00     0.243 C
HETATM   23  O4  UNL     1      15.227  21.239  64.710  1.00  0.00    -0.271 OA
HETATM   24  N6  UNL     1      14.605  23.326  65.365  1.00  0.00    -0.355 N
ATOM     25  H6  UNL     1      13.970  24.115  65.243  1.00  0.00     0.162 HD
BRANCH  24  26
HETATM   26  C30 UNL     1      15.633  23.437  66.358  1.00  0.00     0.084 C
HETATM   27  C31 UNL     1      15.129  23.552  67.756  1.00  0.00     0.025 C
HETATM   28  C32 UNL     1      16.165  24.275  68.561  1.00  0.00     0.002 C
HETATM   29  C33 UNL     1      16.956  25.048  67.561  1.00  0.00     0.002 C
HETATM   30  C34 UNL     1      16.449  24.713  66.186  1.00  0.00     0.025 C
ENDBRANCH  24  26
ENDBRANCH   6  22
BRANCH   4  31
HETATM   31  C12 UNL     1      12.195  18.502  64.040  1.00  0.00     0.132 C
BRANCH  31  32
HETATM   32  C13 UNL     1      11.128  17.866  63.199  1.00  0.00     0.004 C
HETATM   33  C14 UNL     1       9.977  18.824  63.103  1.00  0.00     0.006 C
HETATM   34  C15 UNL     1       8.877  18.474  62.194  1.00  0.00     0.000 C
HETATM   35  C16 UNL     1       9.259  17.734  60.942  1.00  0.00     0.000 C
HETATM   36  C17 UNL     1      10.362  16.735  61.187  1.00  0.00     0.000 C
HETATM   37  C18 UNL     1      11.554  17.488  61.810  1.00  0.00     0.006 C
ENDBRANCH  31  32
ENDBRANCH   4  31
BRANCH   5  38
HETATM   38  C20 UNL     1      11.711  21.521  65.306  1.00  0.00     0.028 C
BRANCH  38  39
HETATM   39  C21 UNL     1      10.230  21.501  65.442  1.00  0.00     0.004 C
BRANCH  39  40
HETATM   40  C22 UNL     1       9.790  20.959  66.823  1.00  0.00     0.020 C
BRANCH  40  41
HETATM   41  C23 UNL     1       9.344  19.541  66.772  1.00  0.00     0.124 C
BRANCH  41  42
HETATM   42  N4  UNL     1       8.036  19.418  66.198  1.00  0.00    -0.343 N
HETATM   43  C24 UNL     1       7.467  18.223  65.719  1.00  0.00     0.316 C
HETATM   44  O3  UNL     1       8.124  17.155  65.792  1.00  0.00    -0.247 OA
HETATM   45  N5  UNL     1       6.153  18.190  65.148  1.00  0.00    -0.339 N
ATOM     46  H5  UNL     1       5.600  19.045  65.082  1.00  0.00     0.164 HD
ATOM     47  H4  UNL     1       7.472  20.265  66.131  1.00  0.00     0.164 HD
BRANCH  45  48
HETATM   48  C25 UNL     1       5.622  16.948  64.671  1.00  0.00     0.078 C
HETATM   49  C26 UNL     1       5.681  16.838  63.166  1.00  0.00     0.032 C
HETATM   50  C27 UNL     1       4.163  16.795  65.078  1.00  0.00     0.032 C
ENDBRANCH  45  48
ENDBRANCH  41  42
ENDBRANCH  40  41
ENDBRANCH  39  40
ENDBRANCH  38  39
ENDBRANCH   5  38
TORSDOF 17
ENDMDL