MODEL 1
REMARK VINA RESULT: -8.196346904      0.000      0.000
REMARK  16 active torsions:
REMARK  status: ('A' for Active; 'I' for Inactive)
REMARK    1  A    between atoms: C2_2  and  C3_3
REMARK    2  A    between atoms: C3_3  and  C4_4
REMARK    3  A    between atoms: C4_4  and  C5_5
REMARK    4  A    between atoms: C5_5  and  C6_6
REMARK    5  A    between atoms: C6_6  and  C7_7
REMARK    6  A    between atoms: C11_14  and  C12_15
REMARK    7  A    between atoms: C12_15  and  N2_16
REMARK       I    between atoms: N2_16  and  C13_17
REMARK    8  A    between atoms: N2_16  and  C23_30
REMARK    9  A    between atoms: C13_17  and  C14_19
REMARK   10  A    between atoms: C14_19  and  C15_20
REMARK   11  A    between atoms: C15_20  and  C16_21
REMARK   12  A    between atoms: C16_21  and  C17_22
REMARK   13  A    between atoms: C17_22  and  C18_23
REMARK   14  A    between atoms: C18_23  and  O3_24
REMARK   15  A    between atoms: C23_30  and  C25_32
REMARK   16  A    between atoms: C31_42  and  C32_43
ROOT
HETATM    1  C7  UNL     1       5.140  18.366  67.804  1.00  0.00     0.176 C
HETATM    2  N1  UNL     1       6.144  17.421  67.419  1.00  0.00    -0.347 N
ATOM      3  H1  UNL     1       5.777  16.499  67.185  1.00  0.00     0.163 HD
HETATM    4  C8  UNL     1       7.529  17.526  67.302  1.00  0.00     0.226 C
HETATM    5  O1  UNL     1       8.289  16.703  67.946  1.00  0.00    -0.273 OA
HETATM    6  C9  UNL     1       8.363  18.482  66.515  1.00  0.00     0.112 C
HETATM    7  C10 UNL     1       9.644  18.771  67.344  1.00  0.00     0.025 C
HETATM    8  C11 UNL     1       8.760  18.079  65.187  1.00  0.00     0.016 C
HETATM    9  C27 UNL     1       8.019  16.876  64.656  1.00  0.00     0.159 C
HETATM   10  O4  UNL     1       8.128  15.853  65.289  1.00  0.00    -0.293 OA
HETATM   11  C28 UNL     1       7.221  16.931  63.458  1.00  0.00     0.103 C
HETATM   12  C29 UNL     1       5.840  17.537  63.561  1.00  0.00     0.130 C
HETATM   13  N3  UNL     1       4.829  16.572  63.883  1.00  0.00    -0.359 N
ATOM     14  H3  UNL     1       4.867  15.702  63.352  1.00  0.00     0.162 HD
HETATM   15  C30 UNL     1       3.791  16.661  64.830  1.00  0.00     0.240 C
HETATM   16  O5  UNL     1       3.618  15.567  65.502  1.00  0.00    -0.271 OA
HETATM   17  C31 UNL     1       2.907  17.750  65.162  1.00  0.00     0.180 C
HETATM   18  N4  UNL     1       3.362  18.837  65.959  1.00  0.00    -0.346 N
ATOM     19  H4  UNL     1       2.693  19.607  65.967  1.00  0.00     0.163 HD
HETATM   20  C35 UNL     1       4.470  19.115  66.721  1.00  0.00     0.241 C
HETATM   21  O6  UNL     1       5.032  20.248  66.435  1.00  0.00    -0.271 OA
ENDROOT
BRANCH   8  22
HETATM   22  C12 UNL     1       8.953  19.101  64.137  1.00  0.00     0.106 C
BRANCH  22  23
HETATM   23  N2  UNL     1      10.224  19.614  63.794  1.00  0.00    -0.323 N
HETATM   24  C13 UNL     1      10.552  20.935  64.357  1.00  0.00     0.224 C
HETATM   25  O2  UNL     1       9.672  21.449  65.072  1.00  0.00    -0.273 OA
BRANCH  24  26
HETATM   26  C14 UNL     1      11.811  21.620  64.109  1.00  0.00     0.103 C
BRANCH  26  27
HETATM   27  C15 UNL     1      12.669  21.906  65.300  1.00  0.00     0.009 C
BRANCH  27  28
HETATM   28  C16 UNL     1      13.673  22.979  65.216  1.00  0.00     0.004 C
BRANCH  28  29
HETATM   29  C17 UNL     1      14.964  22.580  65.934  1.00  0.00     0.038 C
BRANCH  29  30
HETATM   30  C18 UNL     1      15.510  23.864  66.503  1.00  0.00     0.058 C
HETATM   31  C19 UNL     1      15.433  23.798  68.031  1.00  0.00     0.038 C
HETATM   32  C20 UNL     1      16.448  24.918  68.344  1.00  0.00     0.003 C
HETATM   33  C21 UNL     1      17.614  24.560  67.456  1.00  0.00     0.003 C
HETATM   34  C22 UNL     1      16.961  24.000  66.201  1.00  0.00     0.038 C
BRANCH  30  35
HETATM   35  O3  UNL     1      14.741  24.925  66.012  1.00  0.00    -0.390 OA
ATOM     36  H3  UNL     1      14.805  25.649  66.624  1.00  0.00     0.210 HD
ENDBRANCH  30  35
ENDBRANCH  29  30
ENDBRANCH  28  29
ENDBRANCH  27  28
ENDBRANCH  26  27
ENDBRANCH  24  26
BRANCH  23  37
HETATM   37  C23 UNL     1      11.258  18.988  63.081  1.00  0.00     0.088 C
HETATM   38  C24 UNL     1      11.054  18.497  61.697  1.00  0.00     0.033 C
BRANCH  37  39
HETATM   39  C25 UNL     1      11.984  17.850  63.817  1.00  0.00     0.021 C
HETATM   40  C26 UNL     1      12.892  18.232  64.898  1.00  0.00     0.007 C
ENDBRANCH  37  39
ENDBRANCH  23  37
ENDBRANCH  22  23
ENDBRANCH   8  22
BRANCH   1  41
HETATM   41  C6  UNL     1       4.076  17.671  68.692  1.00  0.00     0.035 C
BRANCH  41  42
HETATM   42  C5  UNL     1       3.306  18.640  69.513  1.00  0.00     0.002 C
BRANCH  42  43
HETATM   43  C4  UNL     1       1.835  18.399  69.362  1.00  0.00     0.000 C
BRANCH  43  44
HETATM   44  C3  UNL     1       1.159  19.521  68.643  1.00  0.00    -0.000 C
BRANCH  44  45
HETATM   45  C2  UNL     1       1.941  20.799  68.911  1.00  0.00    -0.005 C
HETATM   46  C1  UNL     1       1.857  21.686  67.702  1.00  0.00     0.005 C
ENDBRANCH  44  45
ENDBRANCH  43  44
ENDBRANCH  42  43
ENDBRANCH  41  42
ENDBRANCH   1  41
BRANCH  17  47
HETATM   47  C32 UNL     1       2.277  18.236  63.842  1.00  0.00     0.009 C
HETATM   48  C33 UNL     1       1.469  19.489  64.019  1.00  0.00     0.012 C
HETATM   49  C34 UNL     1       1.404  17.178  63.240  1.00  0.00     0.012 C
ENDBRANCH  17  47
TORSDOF 16
ENDMDL