MODEL 5
REMARK VINA RESULT: -9.194149035      1.094      2.914
REMARK  16 active torsions:
REMARK  status: ('A' for Active; 'I' for Inactive)
REMARK    1  A    between atoms: C2_2  and  C3_3
REMARK    2  A    between atoms: C3_3  and  C5_5
REMARK    3  A    between atoms: C5_5  and  C6_6
REMARK    4  A    between atoms: C5_5  and  N1_13
REMARK    5  A    between atoms: C6_6  and  C7_7
REMARK       I    between atoms: N1_13  and  C13_15
REMARK    6  A    between atoms: C13_15  and  C14_17
REMARK    7  A    between atoms: C14_17  and  N2_18
REMARK    8  A    between atoms: C14_17  and  C23_32
REMARK       I    between atoms: N2_18  and  C15_20
REMARK    9  A    between atoms: C15_20  and  C16_22
REMARK   10  A    between atoms: C16_22  and  C18_24
REMARK   11  A    between atoms: C18_24  and  C19_25
REMARK   12  A    between atoms: C23_32  and  O4_33
REMARK   13  A    between atoms: C23_32  and  C24_35
REMARK       I    between atoms: C24_35  and  N4_37
REMARK   14  A    between atoms: N4_37  and  C25_39
REMARK   15  A    between atoms: C25_39  and  C26_40
REMARK   16  A    between atoms: C26_40  and  C27_41
ROOT
HETATM    1  C14 UNL     1      14.874  20.862  64.109  1.00  0.00     0.239 C
ENDROOT
BRANCH   1   2
HETATM    2  C13 UNL     1      13.750  20.049  64.575  1.00  0.00     0.247 C
HETATM    3  N1  UNL     1      12.413  20.425  64.766  1.00  0.00    -0.354 N
ATOM      4  H1  UNL     1      12.143  21.387  64.564  1.00  0.00     0.162 HD
HETATM    5  O1  UNL     1      13.982  18.804  64.853  1.00  0.00    -0.271 OA
BRANCH   3   6
HETATM    6  C5  UNL     1      11.372  19.476  65.252  1.00  0.00     0.088 C
BRANCH   6   7
HETATM    7  C3  UNL     1      10.673  20.121  66.420  1.00  0.00     0.004 C
HETATM    8  C4  UNL     1      10.227  19.148  67.482  1.00  0.00     0.012 C
BRANCH   7   9
HETATM    9  C2  UNL     1       9.645  21.144  66.091  1.00  0.00     0.002 C
HETATM   10  C1  UNL     1       8.680  21.491  67.165  1.00  0.00     0.005 C
ENDBRANCH   7   9
ENDBRANCH   6   7
BRANCH   6  11
HETATM   11  C6  UNL     1      10.498  19.083  64.117  1.00  0.00     0.030 C
BRANCH  11  12
HETATM   12  C7  UNL     1      10.726  17.679  63.603  1.00  0.00    -0.013 C
HETATM   13  C8  UNL     1       9.483  16.890  63.388  1.00  0.00     0.005 C
HETATM   14  C9  UNL     1       8.629  17.422  62.258  1.00  0.00     0.000 C
HETATM   15  C10 UNL     1       9.422  17.862  61.068  1.00  0.00     0.000 C
HETATM   16  C11 UNL     1      10.780  17.210  61.140  1.00  0.00     0.000 C
HETATM   17  C12 UNL     1      11.522  17.772  62.335  1.00  0.00     0.005 C
ENDBRANCH  11  12
ENDBRANCH   6  11
ENDBRANCH   3   6
ENDBRANCH   1   2
BRANCH   1  18
HETATM   18  N2  UNL     1      15.101  21.871  65.171  1.00  0.00    -0.342 N
HETATM   19  C15 UNL     1      14.323  22.969  65.471  1.00  0.00     0.222 C
HETATM   20  O2  UNL     1      13.275  23.316  64.893  1.00  0.00    -0.273 OA
ATOM     21  H2  UNL     1      15.931  21.736  65.747  1.00  0.00     0.163 HD
BRANCH  19  22
HETATM   22  C16 UNL     1      14.767  23.858  66.613  1.00  0.00     0.075 C
HETATM   23  C17 UNL     1      15.212  22.987  67.736  1.00  0.00     0.020 C
BRANCH  22  24
HETATM   24  C18 UNL     1      15.847  24.729  66.043  1.00  0.00     0.038 C
BRANCH  24  25
HETATM   25  C19 UNL     1      17.235  24.202  66.188  1.00  0.00     0.085 C
HETATM   26  C20 UNL     1      18.198  25.314  66.616  1.00  0.00     0.034 C
HETATM   27  C21 UNL     1      18.427  26.020  65.287  1.00  0.00     0.105 C
HETATM   28  C22 UNL     1      18.437  24.895  64.323  1.00  0.00     0.217 C
HETATM   29  O3  UNL     1      18.903  24.897  63.175  1.00  0.00    -0.274 OA
HETATM   30  N3  UNL     1      17.808  23.757  64.936  1.00  0.00    -0.356 N
ATOM     31  H3  UNL     1      17.771  22.811  64.557  1.00  0.00     0.162 HD
ENDBRANCH  24  25
ENDBRANCH  22  24
ENDBRANCH  19  22
ENDBRANCH   1  18
BRANCH   1  32
HETATM   32  C23 UNL     1      14.672  21.552  62.828  1.00  0.00     0.143 C
BRANCH  32  33
HETATM   33  O4  UNL     1      13.463  21.617  62.355  1.00  0.00    -0.357 OA
ATOM     34  H4  UNL     1      12.837  22.168  62.808  1.00  0.00     0.217 HD
ENDBRANCH  32  33
BRANCH  32  35
HETATM   35  C24 UNL     1      15.645  22.203  61.981  1.00  0.00     0.273 C
HETATM   36  O5  UNL     1      16.855  22.327  62.256  1.00  0.00    -0.266 OA
HETATM   37  N4  UNL     1      15.263  22.769  60.714  1.00  0.00    -0.355 N
ATOM     38  H4  UNL     1      14.285  22.693  60.437  1.00  0.00     0.162 HD
BRANCH  37  39
HETATM   39  C25 UNL     1      16.159  23.430  59.814  1.00  0.00     0.123 C
BRANCH  39  40
HETATM   40  C26 UNL     1      16.039  24.896  59.696  1.00  0.00     0.029 C
BRANCH  40  41
HETATM   41  C27 UNL     1      17.192  25.654  59.144  1.00  0.00    -0.038 C
HETATM   42  C28 UNL     1      16.813  26.538  57.974  1.00  0.00     0.014 C
HETATM   43  C29 UNL     1      18.031  27.073  57.296  1.00  0.00    -0.013 C
HETATM   44  C30 UNL     1      18.829  27.912  58.275  1.00  0.00     0.009 C
HETATM   45  C34 UNL     1      18.936  25.990  56.753  1.00  0.00     0.009 C
HETATM   46  C31 UNL     1      19.202  27.040  59.444  1.00  0.00    -0.013 C
HETATM   47  C32 UNL     1      20.103  25.944  58.981  1.00  0.00     0.009 C
HETATM   48  C36 UNL     1      17.959  26.480  60.117  1.00  0.00     0.014 C
HETATM   49  C33 UNL     1      19.352  25.145  57.936  1.00  0.00    -0.013 C
HETATM   50  C35 UNL     1      18.123  24.575  58.555  1.00  0.00     0.014 C
ENDBRANCH  40  41
ENDBRANCH  39  40
ENDBRANCH  37  39
ENDBRANCH  32  35
ENDBRANCH   1  32
TORSDOF 16
ENDMDL