MODEL 4
REMARK VINA RESULT: -8.765633937      2.820      5.895
REMARK  15 active torsions:
REMARK  status: ('A' for Active; 'I' for Inactive)
REMARK    1  A    between atoms: C2_2  and  C3_3
REMARK    2  A    between atoms: C3_3  and  C4_4
REMARK    3  A    between atoms: C4_4  and  N1_5
REMARK    4  A    between atoms: C4_4  and  C33_45
REMARK       I    between atoms: N1_5  and  C5_7
REMARK    5  A    between atoms: C5_7  and  C6_9
REMARK    6  A    between atoms: C6_9  and  C7_10
REMARK    7  A    between atoms: C7_10  and  C8_11
REMARK    8  A    between atoms: C7_10  and  C10_13
REMARK       I    between atoms: C10_13  and  N2_15
REMARK    9  A    between atoms: N2_15  and  C11_17
REMARK   10  A    between atoms: C11_17  and  C12_18
REMARK   11  A    between atoms: C11_17  and  C18_27
REMARK   12  A    between atoms: C12_18  and  S1_19
REMARK   13  A    between atoms: S1_19  and  C13_22
REMARK       I    between atoms: C18_27  and  N3_29
REMARK   14  A    between atoms: N3_29  and  C19_31
REMARK   15  A    between atoms: C28_40  and  C30_42
ROOT
HETATM    1  C11 UNL     1      12.192  19.050  65.479  1.00  0.00     0.190 C
ENDROOT
BRANCH   1   2
HETATM    2  N2  UNL     1      12.616  20.452  65.562  1.00  0.00    -0.347 N
HETATM    3  C10 UNL     1      13.937  20.862  65.445  1.00  0.00     0.223 C
HETATM    4  O2  UNL     1      14.771  19.886  65.248  1.00  0.00    -0.273 OA
ATOM      5  H2  UNL     1      11.901  21.164  65.713  1.00  0.00     0.163 HD
BRANCH   3   6
HETATM    6  C7  UNL     1      14.546  22.179  65.507  1.00  0.00     0.086 C
BRANCH   6   7
HETATM    7  C6  UNL     1      15.947  22.337  65.065  1.00  0.00     0.117 C
BRANCH   7   8
HETATM    8  C5  UNL     1      16.254  22.294  63.635  1.00  0.00     0.219 C
HETATM    9  N1  UNL     1      17.567  22.595  63.214  1.00  0.00    -0.348 N
ATOM     10  H1  UNL     1      18.275  22.835  63.909  1.00  0.00     0.163 HD
HETATM   11  O1  UNL     1      15.435  22.008  62.736  1.00  0.00    -0.274 OA
BRANCH   9  12
HETATM   12  C4  UNL     1      17.929  22.566  61.793  1.00  0.00     0.173 C
BRANCH  12  13
HETATM   13  C3  UNL     1      17.954  23.958  61.266  1.00  0.00     0.034 C
BRANCH  13  14
HETATM   14  C2  UNL     1      17.470  24.176  59.883  1.00  0.00    -0.002 C
HETATM   15  C1  UNL     1      16.209  23.334  59.618  1.00  0.00     0.005 C
ENDBRANCH  13  14
ENDBRANCH  12  13
BRANCH  12  16
HETATM   16  C33 UNL     1      19.171  21.794  61.663  1.00  0.00     0.254 C
HETATM   17  N4  UNL     1      19.712  21.276  60.455  1.00  0.00    -0.060 NA
HETATM   18  O6  UNL     1      19.870  21.534  62.701  1.00  0.00    -0.275 OA
ENDBRANCH  12  16
ENDBRANCH   9  12
ENDBRANCH   7   8
ENDBRANCH   6   7
BRANCH   6  19
HETATM   19  C8  UNL     1      14.223  22.833  66.842  1.00  0.00     0.010 C
HETATM   20  C9  UNL     1      15.117  24.016  67.108  1.00  0.00     0.006 C
ENDBRANCH   6  19
ENDBRANCH   3   6
ENDBRANCH   1   2
BRANCH   1  21
HETATM   21  C12 UNL     1      12.066  18.598  64.055  1.00  0.00     0.175 C
BRANCH  21  22
HETATM   22  S1  UNL     1      11.200  19.658  62.987  1.00  0.00     0.150 S
HETATM   23  O3  UNL     1       9.990  20.289  63.536  1.00  0.00    -0.227 OA
HETATM   24  O4  UNL     1      12.085  20.756  62.438  1.00  0.00    -0.227 OA
BRANCH  22  25
HETATM   25  C13 UNL     1      10.708  18.718  61.538  1.00  0.00     0.108 C
HETATM   26  C14 UNL     1       9.257  18.293  61.655  1.00  0.00     0.020 C
HETATM   27  C15 UNL     1       9.190  16.875  61.157  1.00  0.00     0.001 C
HETATM   28  C16 UNL     1      10.584  16.419  60.862  1.00  0.00     0.001 C
HETATM   29  C17 UNL     1      11.497  17.432  61.521  1.00  0.00     0.020 C
ENDBRANCH  22  25
ENDBRANCH  21  22
ENDBRANCH   1  21
BRANCH   1  30
HETATM   30  C18 UNL     1      10.996  18.808  66.303  1.00  0.00     0.241 C
HETATM   31  O5  UNL     1      11.000  19.237  67.481  1.00  0.00    -0.271 OA
HETATM   32  N3  UNL     1       9.825  18.126  65.888  1.00  0.00    -0.354 N
ATOM     33  H3  UNL     1       9.800  17.765  64.934  1.00  0.00     0.162 HD
BRANCH  32  34
HETATM   34  C19 UNL     1       8.666  17.907  66.717  1.00  0.00     0.093 C
HETATM   35  C20 UNL     1       8.035  16.547  66.489  1.00  0.00     0.032 C
HETATM   36  C21 UNL     1       6.522  16.839  66.398  1.00  0.00     0.004 C
HETATM   37  C22 UNL     1       6.339  17.239  64.963  1.00  0.00    -0.043 C
HETATM   38  C28 UNL     1       6.451  18.024  67.286  1.00  0.00    -0.028 C
HETATM   39  C23 UNL     1       7.093  16.318  63.982  1.00  0.00     0.015 C
HETATM   40  C24 UNL     1       4.957  17.247  64.438  1.00  0.00     0.015 C
HETATM   41  C25 UNL     1       7.031  18.604  65.018  1.00  0.00     0.021 C
HETATM   42  C26 UNL     1       7.485  18.812  66.440  1.00  0.00    -0.015 C
HETATM   43  C27 UNL     1       7.634  20.206  66.864  1.00  0.00     0.018 C
HETATM   44  C29 UNL     1       7.122  17.709  68.625  1.00  0.00     0.016 C
BRANCH  38  45
HETATM   45  C30 UNL     1       5.268  18.734  67.662  1.00  0.00    -0.013 C
HETATM   46  C31 UNL     1       4.500  19.730  66.940  1.00  0.00     0.010 C
HETATM   47  C32 UNL     1       4.253  17.655  68.130  1.00  0.00     0.010 C
ENDBRANCH  38  45
ENDBRANCH  32  34
ENDBRANCH   1  30
TORSDOF 15
ENDMDL