MODEL 2
REMARK VINA RESULT: -6.537700782      0.735      1.145
REMARK  14 active torsions:
REMARK  status: ('A' for Active; 'I' for Inactive)
REMARK    1  A    between atoms: C2_2  and  C3_3
REMARK    2  A    between atoms: C3_3  and  C4_4
REMARK    3  A    between atoms: C4_4  and  N1_5
REMARK    4  A    between atoms: C4_4  and  C34_45
REMARK       I    between atoms: N1_5  and  C5_7
REMARK    5  A    between atoms: C5_7  and  C6_9
REMARK    6  A    between atoms: C11_14  and  C12_15
REMARK    7  A    between atoms: C12_15  and  N2_16
REMARK    8  A    between atoms: N2_16  and  C13_19
REMARK       I    between atoms: N3_23  and  C17_24
REMARK    9  A    between atoms: C17_24  and  C18_26
REMARK   10  A    between atoms: C18_26  and  C19_27
REMARK   11  A    between atoms: C18_26  and  N4_34
REMARK   12  A    between atoms: C19_27  and  C20_28
REMARK       I    between atoms: N4_34  and  C26_36
REMARK   13  A    between atoms: C28_39  and  C29_40
REMARK   14  A    between atoms: C34_45  and  C35_47
ROOT
HETATM    1  C6  UNL     1       7.104  17.066  64.482  1.00  0.00     0.105 C
HETATM    2  C7  UNL     1       7.635  18.189  63.672  1.00  0.00     0.007 C
HETATM    3  C8  UNL     1       8.553  17.682  62.585  1.00  0.00     0.006 C
HETATM    4  C9  UNL     1       9.593  18.745  62.180  1.00  0.00     0.001 C
HETATM    5  C10 UNL     1      10.543  18.831  63.338  1.00  0.00     0.007 C
HETATM    6  C11 UNL     1       9.798  19.166  64.572  1.00  0.00     0.017 C
HETATM    7  C15 UNL     1       8.300  19.283  64.433  1.00  0.00     0.014 C
HETATM    8  C16 UNL     1       7.783  19.497  65.829  1.00  0.00     0.132 C
HETATM    9  N3  UNL     1       6.521  18.852  66.013  1.00  0.00    -0.344 N
HETATM   10  C17 UNL     1       5.447  19.639  66.521  1.00  0.00     0.243 C
HETATM   11  O2  UNL     1       5.737  20.851  66.823  1.00  0.00    -0.271 OA
HETATM   12  C28 UNL     1       6.406  17.434  65.730  1.00  0.00     0.104 C
ENDROOT
BRANCH  10  13
HETATM   13  C18 UNL     1       4.054  19.165  66.721  1.00  0.00     0.177 C
BRANCH  13  14
HETATM   14  C19 UNL     1       3.159  20.302  66.216  1.00  0.00     0.039 C
BRANCH  14  15
HETATM   15  C20 UNL     1       1.959  19.833  65.473  1.00  0.00    -0.012 C
HETATM   16  C21 UNL     1       0.736  19.968  66.308  1.00  0.00     0.005 C
HETATM   17  C22 UNL     1      -0.463  19.562  65.435  1.00  0.00     0.000 C
HETATM   18  C23 UNL     1      -0.331  18.095  65.157  1.00  0.00     0.000 C
HETATM   19  C24 UNL     1       0.914  17.906  64.319  1.00  0.00     0.000 C
HETATM   20  C25 UNL     1       2.136  18.387  65.066  1.00  0.00     0.005 C
ENDBRANCH  14  15
ENDBRANCH  13  14
BRANCH  13  21
HETATM   21  N4  UNL     1       3.854  19.064  68.175  1.00  0.00    -0.348 N
HETATM   22  C26 UNL     1       3.466  17.874  68.802  1.00  0.00     0.214 C
HETATM   23  C27 UNL     1       3.279  17.836  70.267  1.00  0.00     0.117 C
HETATM   24  O3  UNL     1       3.265  16.809  68.150  1.00  0.00    -0.274 OA
ATOM     25  H4  UNL     1       4.004  19.894  68.748  1.00  0.00     0.163 HD
ENDBRANCH  13  21
ENDBRANCH  10  13
BRANCH  12  26
HETATM   26  C29 UNL     1       6.733  16.651  66.966  1.00  0.00     0.009 C
HETATM   27  C30 UNL     1       7.072  17.370  68.197  1.00  0.00     0.007 C
HETATM   28  C31 UNL     1       7.929  16.425  69.040  1.00  0.00     0.000 C
HETATM   29  C32 UNL     1       8.563  15.472  68.087  1.00  0.00     0.000 C
HETATM   30  C33 UNL     1       7.860  15.663  66.790  1.00  0.00     0.007 C
ENDBRANCH  12  26
BRANCH   1  31
HETATM   31  C5  UNL     1       6.196  16.245  63.633  1.00  0.00     0.224 C
HETATM   32  N1  UNL     1       4.900  16.545  63.225  1.00  0.00    -0.349 N
ATOM     33  H1  UNL     1       4.467  17.421  63.518  1.00  0.00     0.163 HD
HETATM   34  O1  UNL     1       6.670  15.113  63.223  1.00  0.00    -0.273 OA
BRANCH  32  35
HETATM   35  C4  UNL     1       4.162  15.622  62.386  1.00  0.00     0.164 C
BRANCH  35  36
HETATM   36  C3  UNL     1       2.916  16.348  61.849  1.00  0.00     0.033 C
BRANCH  36  37
HETATM   37  C2  UNL     1       2.121  15.353  61.029  1.00  0.00    -0.002 C
HETATM   38  C1  UNL     1       0.644  15.564  61.309  1.00  0.00     0.005 C
ENDBRANCH  36  37
ENDBRANCH  35  36
BRANCH  35  39
HETATM   39  C34 UNL     1       3.647  14.483  63.188  1.00  0.00     0.236 C
HETATM   40  O4  UNL     1       3.864  13.293  62.797  1.00  0.00    -0.285 OA
BRANCH  39  41
HETATM   41  C35 UNL     1       2.894  14.673  64.421  1.00  0.00     0.302 C
HETATM   42  N5  UNL     1       1.578  14.141  64.540  1.00  0.00    -0.054 NA
HETATM   43  O5  UNL     1       3.353  15.295  65.406  1.00  0.00    -0.268 OA
ENDBRANCH  39  41
ENDBRANCH  35  39
ENDBRANCH  32  35
ENDBRANCH   1  31
BRANCH   6  44
HETATM   44  C12 UNL     1      10.296  20.503  65.092  1.00  0.00     0.237 C
BRANCH  44  45
HETATM   45  N2  UNL     1      11.324  20.242  66.061  1.00  0.00    -0.075 N
ATOM     46  H22 UNL     1      10.947  20.269  67.009  1.00  0.00     0.277 HD
ATOM     47  H21 UNL     1      11.618  19.266  66.028  1.00  0.00     0.277 HD
BRANCH  45  48
HETATM   48  C13 UNL     1      12.460  21.132  65.926  1.00  0.00     0.228 C
HETATM   49  C14 UNL     1      12.125  22.136  64.842  1.00  0.00     0.034 C
ENDBRANCH  45  48
ENDBRANCH  44  45
ENDBRANCH   6  44
TORSDOF 14
ENDMDL