MODEL 5
REMARK VINA RESULT: -9.306473535      3.308     10.835
REMARK  12 active torsions:
REMARK  status: ('A' for Active; 'I' for Inactive)
REMARK    1  A    between atoms: C1_2  and  C2_4
REMARK    2  A    between atoms: C2_4  and  C3_5
REMARK    3  A    between atoms: C3_5  and  N1_6
REMARK    4  A    between atoms: N2_9  and  C6_10
REMARK    5  A    between atoms: C6_10  and  C7_11
REMARK    6  A    between atoms: C7_11  and  C8_12
REMARK       I    between atoms: C8_12  and  N3_14
REMARK    7  A    between atoms: N3_14  and  C9_16
REMARK    8  A    between atoms: C13_20  and  C14_21
REMARK    9  A    between atoms: C14_21  and  N4_22
REMARK   10  A    between atoms: N7_34  and  C22_35
REMARK   11  A    between atoms: C22_35  and  C23_36
REMARK   12  A    between atoms: C23_36  and  N8_37
ROOT
HETATM    1  C9  UNL     1      18.371  23.737  19.367  1.00  0.00     0.104 A
HETATM    2  C10 UNL     1      17.461  22.945  20.018  1.00  0.00     0.050 A
HETATM    3  C11 UNL     1      16.690  21.996  19.342  1.00  0.00     0.014 A
HETATM    4  C12 UNL     1      15.777  21.200  19.996  1.00  0.00     0.043 A
HETATM    5  C13 UNL     1      15.052  20.287  19.268  1.00  0.00     0.055 A
HETATM    6  N5  UNL     1      15.273  20.215  17.945  1.00  0.00    -0.301 N
ATOM      7  H5  UNL     1      14.738  19.537  17.401  1.00  0.00     0.186 HD
HETATM    8  N6  UNL     1      16.147  20.976  17.313  1.00  0.00    -0.284 N
ATOM      9  H6  UNL     1      16.268  20.874  16.305  1.00  0.00     0.188 HD
HETATM   10  C21 UNL     1      16.886  21.890  17.985  1.00  0.00     0.135 A
HETATM   11  N7  UNL     1      17.752  22.631  17.306  1.00  0.00    -0.295 N
HETATM   12  C30 UNL     1      18.476  23.531  17.976  1.00  0.00     0.276 A
HETATM   13  O4  UNL     1      19.327  24.275  17.388  1.00  0.00    -0.265 OA
ENDROOT
BRANCH   1  14
HETATM   14  N3  UNL     1      19.167  24.680  20.009  1.00  0.00    -0.323 N
HETATM   15  C8  UNL     1      20.422  24.510  20.601  1.00  0.00     0.224 C
HETATM   16  O3  UNL     1      20.993  23.402  20.618  1.00  0.00    -0.273 OA
ATOM     17  H3  UNL     1      18.783  25.624  20.055  1.00  0.00     0.169 HD
BRANCH  15  18
HETATM   18  C7  UNL     1      21.147  25.665  21.253  1.00  0.00     0.133 C
BRANCH  18  19
HETATM   19  C6  UNL     1      22.583  25.686  20.821  1.00  0.00     0.281 C
BRANCH  19  20
HETATM   20  N2  UNL     1      22.983  26.833  20.072  1.00  0.00     0.092 N
HETATM   21  C5  UNL     1      23.973  26.415  19.075  1.00  0.00     0.302 C
HETATM   22  C4  UNL     1      24.020  27.354  17.900  1.00  0.00     0.302 C
HETATM   23  N1  UNL     1      22.749  27.371  17.194  1.00  0.00     0.092 N
HETATM   24  C32 UNL     1      21.709  26.785  17.986  1.00  0.00     0.302 C
HETATM   25  C31 UNL     1      21.809  27.377  19.393  1.00  0.00     0.302 C
BRANCH  23  26
HETATM   26  C3  UNL     1      22.894  26.814  15.887  1.00  0.00     0.283 C
BRANCH  26  27
HETATM   27  C2  UNL     1      22.328  27.696  14.790  1.00  0.00     0.143 C
BRANCH  27  28
HETATM   28  C1  UNL     1      20.854  27.582  14.811  1.00  0.00     0.174 C
HETATM   29  O1  UNL     1      20.123  28.549  15.131  1.00  0.00    -0.648 OA
HETATM   30  O2  UNL     1      20.310  26.342  14.456  1.00  0.00    -0.648 OA
ENDBRANCH  27  28
ENDBRANCH  26  27
ENDBRANCH  23  26
ENDBRANCH  19  20
ENDBRANCH  18  19
ENDBRANCH  15  18
ENDBRANCH   1  14
BRANCH  11  31
HETATM   31  C22 UNL     1      17.944  22.517  15.867  1.00  0.00     0.164 C
BRANCH  31  32
HETATM   32  C23 UNL     1      17.156  23.538  15.109  1.00  0.00     0.292 C
BRANCH  32  33
HETATM   33  N8  UNL     1      15.931  22.949  14.605  1.00  0.00     0.090 N
HETATM   34  C24 UNL     1      16.048  21.510  14.451  1.00  0.00     0.272 C
HETATM   35  C25 UNL     1      14.903  21.094  13.543  1.00  0.00     0.030 C
HETATM   36  C26 UNL     1      13.765  20.614  14.382  1.00  0.00     0.002 C
HETATM   37  C27 UNL     1      12.871  21.710  14.852  1.00  0.00     0.002 C
HETATM   38  C28 UNL     1      13.486  23.072  14.884  1.00  0.00     0.030 C
HETATM   39  C29 UNL     1      14.827  23.151  15.539  1.00  0.00     0.272 C
ENDBRANCH  32  33
ENDBRANCH  31  32
ENDBRANCH  11  31
BRANCH   5  40
HETATM   40  C14 UNL     1      14.062  19.423  19.947  1.00  0.00     0.331 C
BRANCH  40  41
HETATM   41  N4  UNL     1      13.371  18.638  18.976  1.00  0.00     0.103 N
HETATM   42  C15 UNL     1      11.911  18.857  19.054  1.00  0.00     0.224 C
HETATM   43  C16 UNL     1      11.423  17.897  18.018  1.00  0.00     0.038 C
HETATM   44  C20 UNL     1      11.619  18.294  20.416  1.00  0.00     0.038 C
HETATM   45  C17 UNL     1      12.430  16.747  18.144  1.00  0.00     0.038 C
HETATM   46  C18 UNL     1      13.361  17.213  19.244  1.00  0.00     0.224 C
HETATM   47  C19 UNL     1      12.594  17.141  20.538  1.00  0.00     0.038 C
ENDBRANCH  40  41
ENDBRANCH   5  40
TORSDOF 12
ENDMDL