MODEL 1
REMARK VINA RESULT: -7.773181694      0.000      0.000
REMARK  19 active torsions:
REMARK  status: ('A' for Active; 'I' for Inactive)
REMARK    1  A    between atoms: C2_2  and  C3_3
REMARK    2  A    between atoms: C3_3  and  C4_4
REMARK    3  A    between atoms: C4_4  and  O1_5
REMARK    4  A    between atoms: O1_5  and  C5_6
REMARK       I    between atoms: C5_6  and  N1_8
REMARK    5  A    between atoms: C9_12  and  C10_13
REMARK    6  A    between atoms: C10_13  and  C11_14
REMARK    7  A    between atoms: C11_14  and  C12_15
REMARK    8  A    between atoms: C11_14  and  N2_24
REMARK    9  A    between atoms: C12_15  and  S1_16
REMARK   10  A    between atoms: S1_16  and  C13_17
REMARK   11  A    between atoms: C13_17  and  O4_19
REMARK   12  A    between atoms: O4_19  and  C14_20
REMARK   13  A    between atoms: C14_20  and  C15_21
REMARK   14  A    between atoms: N2_24  and  C18_25
REMARK   15  A    between atoms: C18_25  and  O5_26
REMARK   16  A    between atoms: C18_25  and  C19_28
REMARK   17  A    between atoms: C19_28  and  N3_30
REMARK   18  A    between atoms: C19_28  and  C28_42
REMARK       I    between atoms: N3_30  and  C21_32
REMARK       I    between atoms: C21_32  and  N4_34
REMARK   19  A    between atoms: N5_37  and  C24_38
ROOT
HETATM    1  C11 UNL     1      14.939  19.872  18.015  1.00  0.00     0.095 C
ENDROOT
BRANCH   1   2
HETATM    2  C10 UNL     1      14.222  18.867  18.809  1.00  0.00     0.039 C
BRANCH   2   3
HETATM    3  C9  UNL     1      12.775  18.916  19.019  1.00  0.00     0.115 C
HETATM    4  N1  UNL     1      11.913  17.905  18.538  1.00  0.00    -0.320 N
HETATM    5  C5  UNL     1      11.101  17.843  17.402  1.00  0.00     0.363 C
HETATM    6  C6  UNL     1      11.940  16.778  19.503  1.00  0.00     0.129 C
HETATM    7  O2  UNL     1      10.391  16.824  17.125  1.00  0.00    -0.238 OA
HETATM    8  C7  UNL     1      12.610  17.307  20.740  1.00  0.00     0.022 C
HETATM    9  C8  UNL     1      12.550  18.798  20.547  1.00  0.00     0.031 C
BRANCH   5  10
HETATM   10  O1  UNL     1      11.046  18.908  16.530  1.00  0.00    -0.304 OA
BRANCH  10  11
HETATM   11  C4  UNL     1      10.353  18.984  15.328  1.00  0.00     0.180 C
BRANCH  11  12
HETATM   12  C3  UNL     1       9.618  20.285  15.101  1.00  0.00     0.026 C
BRANCH  12  13
HETATM   13  C2  UNL     1       9.956  20.939  13.792  1.00  0.00    -0.002 C
HETATM   14  C1  UNL     1       8.696  21.673  13.342  1.00  0.00     0.005 C
ENDBRANCH  12  13
ENDBRANCH  11  12
ENDBRANCH  10  11
ENDBRANCH   5  10
ENDBRANCH   2   3
ENDBRANCH   1   2
BRANCH   1  15
HETATM   15  C12 UNL     1      16.375  20.176  18.249  1.00  0.00     0.157 C
BRANCH  15  16
HETATM   16  S1  UNL     1      16.706  21.625  19.230  1.00  0.00    -0.054 SA
BRANCH  16  17
HETATM   17  C13 UNL     1      18.429  21.919  19.568  1.00  0.00     0.322 C
HETATM   18  O3  UNL     1      19.137  20.909  19.779  1.00  0.00    -0.252 OA
BRANCH  17  19
HETATM   19  O4  UNL     1      19.021  23.134  19.609  1.00  0.00    -0.312 OA
BRANCH  19  20
HETATM   20  C14 UNL     1      20.314  23.565  19.437  1.00  0.00     0.184 C
BRANCH  20  21
HETATM   21  C15 UNL     1      21.253  23.644  20.570  1.00  0.00     0.010 A
HETATM   22  C16 UNL     1      22.154  24.710  20.969  1.00  0.00     0.007 A
HETATM   23  C17 UNL     1      22.748  23.533  20.178  1.00  0.00     0.007 A
ENDBRANCH  20  21
ENDBRANCH  19  20
ENDBRANCH  17  19
ENDBRANCH  16  17
ENDBRANCH  15  16
ENDBRANCH   1  15
BRANCH   1  24
HETATM   24  N2  UNL     1      14.389  20.526  17.118  1.00  0.00    -0.386 NA
BRANCH  24  25
HETATM   25  C18 UNL     1      13.822  21.211  16.196  1.00  0.00     0.227 C
BRANCH  25  26
HETATM   26  O5  UNL     1      12.521  21.454  16.222  1.00  0.00    -0.337 OA
ATOM     27  H5  UNL     1      12.077  21.840  15.477  1.00  0.00     0.220 HD
ENDBRANCH  25  26
BRANCH  25  28
HETATM   28  C19 UNL     1      14.483  21.834  14.984  1.00  0.00     0.188 C
HETATM   29  C20 UNL     1      13.725  23.045  14.519  1.00  0.00     0.059 C
BRANCH  28  30
HETATM   30  N3  UNL     1      15.854  22.176  15.286  1.00  0.00    -0.318 N
HETATM   31  C21 UNL     1      16.096  23.361  16.052  1.00  0.00     0.319 C
HETATM   32  O6  UNL     1      15.124  24.076  16.447  1.00  0.00    -0.247 OA
HETATM   33  N4  UNL     1      17.393  23.785  16.402  1.00  0.00    -0.331 N
HETATM   34  C22 UNL     1      18.540  23.021  15.990  1.00  0.00     0.158 C
HETATM   35  C27 UNL     1      17.579  24.979  17.177  1.00  0.00     0.158 C
HETATM   36  C23 UNL     1      19.766  23.918  15.832  1.00  0.00     0.292 C
HETATM   37  N5  UNL     1      19.300  25.255  15.550  1.00  0.00     0.091 N
HETATM   38  C26 UNL     1      18.766  25.806  16.779  1.00  0.00     0.292 C
ATOM     39  H3  UNL     1      16.625  21.590  14.964  1.00  0.00     0.166 HD
BRANCH  37  40
HETATM   40  C24 UNL     1      20.333  26.092  14.983  1.00  0.00     0.268 C
HETATM   41  C25 UNL     1      19.818  27.469  14.633  1.00  0.00     0.037 C
ENDBRANCH  37  40
ENDBRANCH  28  30
BRANCH  28  42
HETATM   42  C28 UNL     1      14.521  20.824  13.909  1.00  0.00     0.268 C
HETATM   43  N6  UNL     1      13.496  19.870  13.768  1.00  0.00    -0.059 NA
HETATM   44  O7  UNL     1      15.469  20.757  13.057  1.00  0.00    -0.273 OA
ENDBRANCH  28  42
ENDBRANCH  25  28
ENDBRANCH  24  25
ENDBRANCH   1  24
TORSDOF 19
ENDMDL