MODEL 4
REMARK VINA RESULT: -9.229857275      2.751      4.953
REMARK  14 active torsions:
REMARK  status: ('A' for Active; 'I' for Inactive)
REMARK    1  A    between atoms: C3_3  and  C4_4
REMARK    2  A    between atoms: C4_4  and  O1_5
REMARK    3  A    between atoms: O1_5  and  C5_6
REMARK    4  A    between atoms: C5_6  and  C6_8
REMARK    5  A    between atoms: C7_9  and  C8_10
REMARK    6  A    between atoms: C8_10  and  C9_11
REMARK    7  A    between atoms: C9_11  and  C10_12
REMARK    8  A    between atoms: C10_12  and  C11_13
REMARK    9  A    between atoms: C11_13  and  C12_14
REMARK       I    between atoms: N3_20  and  C14_22
REMARK       I    between atoms: C14_22  and  N4_24
REMARK   10  A    between atoms: C18_32  and  N7_33
REMARK       I    between atoms: N7_33  and  C19_35
REMARK   11  A    between atoms: C19_35  and  C20_37
REMARK   12  A    between atoms: C21_38  and  C22_39
REMARK   13  A    between atoms: C25_42  and  O5_43
REMARK   14  A    between atoms: C27_45  and  O6_46
ROOT
HETATM    1  C1  UNL     1      16.386  24.788  18.351  1.00  0.00     0.012 C
HETATM    2  C2  UNL     1      17.123  24.883  17.400  1.00  0.00    -0.115 C
HETATM    3  C3  UNL     1      18.001  25.002  16.236  1.00  0.00     0.119 C
ENDROOT
BRANCH   3   4
HETATM    4  C4  UNL     1      17.827  23.722  15.407  1.00  0.00     0.191 C
BRANCH   4   5
HETATM    5  O1  UNL     1      16.456  23.449  15.389  1.00  0.00    -0.316 OA
BRANCH   5   6
HETATM    6  C5  UNL     1      16.006  22.126  15.219  1.00  0.00     0.299 C
HETATM    7  O2  UNL     1      16.100  21.649  14.084  1.00  0.00    -0.259 OA
BRANCH   6   8
HETATM    8  C6  UNL     1      15.473  21.451  16.398  1.00  0.00     0.108 A
HETATM    9  C7  UNL     1      16.144  20.975  17.493  1.00  0.00     0.046 A
HETATM   10  N5  UNL     1      15.253  20.430  18.338  1.00  0.00    -0.300 N
HETATM   11  N6  UNL     1      14.025  20.536  17.833  1.00  0.00    -0.280 N
ATOM     12  H5  UNL     1      15.482  19.999  19.233  1.00  0.00     0.187 HD
HETATM   13  C17 UNL     1      12.846  20.048  18.501  1.00  0.00     0.179 C
HETATM   14  C18 UNL     1      14.107  21.152  16.650  1.00  0.00     0.143 A
BRANCH   9  15
HETATM   15  C8  UNL     1      17.629  21.022  17.741  1.00  0.00     0.060 C
BRANCH  15  16
HETATM   16  C9  UNL     1      17.921  21.421  19.178  1.00  0.00     0.006 C
BRANCH  16  17
HETATM   17  C10 UNL     1      19.105  22.338  19.251  1.00  0.00     0.007 C
BRANCH  17  18
HETATM   18  C11 UNL     1      19.127  23.159  20.488  1.00  0.00     0.066 C
BRANCH  18  19
HETATM   19  C12 UNL     1      19.838  24.447  20.256  1.00  0.00     0.069 A
HETATM   20  N1  UNL     1      19.802  25.611  20.868  1.00  0.00    -0.296 N
HETATM   21  N2  UNL     1      20.514  26.587  20.490  1.00  0.00    -0.279 N
ATOM     22  H1  UNL     1      19.182  25.731  21.670  1.00  0.00     0.187 HD
HETATM   23  C13 UNL     1      21.322  26.414  19.435  1.00  0.00     0.169 A
ATOM     24  H2  UNL     1      20.474  27.483  20.977  1.00  0.00     0.189 HD
HETATM   25  N3  UNL     1      22.130  27.299  18.895  1.00  0.00    -0.288 N
HETATM   26  S1  UNL     1      21.011  24.793  19.014  1.00  0.00    -0.038 SA
HETATM   27  C14 UNL     1      22.891  26.886  17.780  1.00  0.00     0.323 C
ATOM     28  H3  UNL     1      22.206  28.246  19.268  1.00  0.00     0.172 HD
HETATM   29  O3  UNL     1      24.027  26.409  17.963  1.00  0.00    -0.247 OA
HETATM   30  N4  UNL     1      22.333  27.030  16.483  1.00  0.00    -0.343 N
HETATM   31  C15 UNL     1      21.016  27.585  16.288  1.00  0.00     0.154 C
HETATM   32  C16 UNL     1      23.063  26.625  15.295  1.00  0.00     0.154 C
ENDBRANCH  18  19
ENDBRANCH  17  18
ENDBRANCH  16  17
ENDBRANCH  15  16
ENDBRANCH   9  15
BRANCH  14  33
HETATM   33  N7  UNL     1      13.237  21.487  15.784  1.00  0.00    -0.307 N
HETATM   34  C19 UNL     1      12.523  20.609  14.885  1.00  0.00     0.246 C
HETATM   35  O4  UNL     1      13.199  20.139  13.969  1.00  0.00    -0.268 OA
ATOM     36  H7  UNL     1      13.020  22.481  15.718  1.00  0.00     0.170 HD
BRANCH  34  37
HETATM   37  C20 UNL     1      11.146  20.372  15.122  1.00  0.00     0.075 C
HETATM   38  C21 UNL     1      10.458  19.385  15.501  1.00  0.00     0.017 C
BRANCH  38  39
HETATM   39  C22 UNL     1      10.680  18.026  15.869  1.00  0.00    -0.033 A
HETATM   40  C23 UNL     1      10.423  17.652  17.210  1.00  0.00     0.014 A
HETATM   41  C24 UNL     1      10.527  16.370  17.642  1.00  0.00     0.040 A
HETATM   42  C25 UNL     1      10.896  15.370  16.763  1.00  0.00     0.101 A
HETATM   43  C27 UNL     1      11.157  15.680  15.450  1.00  0.00     0.102 A
HETATM   44  C29 UNL     1      11.043  17.014  15.013  1.00  0.00     0.051 A
BRANCH  42  45
HETATM   45  O5  UNL     1      11.017  14.047  17.161  1.00  0.00    -0.353 OA
HETATM   46  C26 UNL     1       9.968  13.499  17.938  1.00  0.00     0.210 C
ENDBRANCH  42  45
BRANCH  43  47
HETATM   47  O6  UNL     1      11.525  14.664  14.582  1.00  0.00    -0.353 OA
HETATM   48  C28 UNL     1      11.890  14.878  13.245  1.00  0.00     0.210 C
ENDBRANCH  43  47
ENDBRANCH  38  39
ENDBRANCH  34  37
ENDBRANCH  14  33
ENDBRANCH   6   8
ENDBRANCH   5   6
ENDBRANCH   4   5
ENDBRANCH   3   4
TORSDOF 14
ENDMDL