MODEL 2
REMARK VINA RESULT: -8.629686109      1.062      2.305
REMARK  16 active torsions:
REMARK  status: ('A' for Active; 'I' for Inactive)
REMARK    1  A    between atoms: C2_2  and  C3_3
REMARK    2  A    between atoms: C3_3  and  C4_4
REMARK    3  A    between atoms: C4_4  and  C5_5
REMARK    4  A    between atoms: C5_5  and  O1_6
REMARK    5  A    between atoms: O1_6  and  C6_7
REMARK       I    between atoms: C6_7  and  N1_9
REMARK    6  A    between atoms: N2_12  and  C9_13
REMARK    7  A    between atoms: C9_13  and  O3_14
REMARK    8  A    between atoms: C9_13  and  C10_16
REMARK    9  A    between atoms: C10_16  and  C11_17
REMARK   10  A    between atoms: C10_16  and  N4_28
REMARK   11  A    between atoms: C11_17  and  C12_18
REMARK   12  A    between atoms: C12_18  and  C13_19
REMARK       I    between atoms: C13_19  and  N3_21
REMARK   13  A    between atoms: N3_21  and  C14_23
REMARK   14  A    between atoms: C14_23  and  C17_26
REMARK       I    between atoms: N4_28  and  C18_30
REMARK   15  A    between atoms: C18_30  and  O7_32
REMARK   16  A    between atoms: O7_32  and  C19_33
ROOT
HETATM    1  C10 UNL     1      18.156  23.002  19.873  1.00  0.00     0.161 C
ENDROOT
BRANCH   1   2
HETATM    2  C9  UNL     1      17.684  21.610  19.468  1.00  0.00     0.137 C
BRANCH   2   3
HETATM    3  N2  UNL     1      16.412  21.188  19.096  1.00  0.00    -0.361 N
HETATM    4  C8  UNL     1      15.206  21.396  19.794  1.00  0.00     0.144 C
HETATM    5  C7  UNL     1      14.376  20.067  19.680  1.00  0.00     0.148 C
HETATM    6  N1  UNL     1      14.068  19.903  18.302  1.00  0.00    -0.325 N
HETATM    7  C6  UNL     1      12.737  19.596  17.875  1.00  0.00     0.362 C
HETATM    8  C29 UNL     1      15.105  20.117  17.306  1.00  0.00     0.148 C
HETATM    9  O2  UNL     1      11.819  19.629  18.722  1.00  0.00    -0.238 OA
HETATM   10  C28 UNL     1      16.420  20.323  17.890  1.00  0.00     0.144 C
BRANCH   7  11
HETATM   11  O1  UNL     1      12.457  19.261  16.583  1.00  0.00    -0.304 OA
BRANCH  11  12
HETATM   12  C5  UNL     1      11.850  20.048  15.599  1.00  0.00     0.180 C
BRANCH  12  13
HETATM   13  C4  UNL     1      12.774  20.717  14.630  1.00  0.00     0.027 C
BRANCH  13  14
HETATM   14  C3  UNL     1      13.027  22.168  14.981  1.00  0.00     0.002 C
BRANCH  14  15
HETATM   15  C2  UNL     1      14.465  22.519  14.729  1.00  0.00    -0.004 C
HETATM   16  C1  UNL     1      15.182  21.489  13.859  1.00  0.00     0.005 C
ENDBRANCH  14  15
ENDBRANCH  13  14
ENDBRANCH  12  13
ENDBRANCH  11  12
ENDBRANCH   7  11
ENDBRANCH   2   3
BRANCH   2  17
HETATM   17  O3  UNL     1      18.652  20.741  19.534  1.00  0.00    -0.348 OA
ATOM     18  H3  UNL     1      19.110  20.615  20.357  1.00  0.00     0.219 HD
ENDBRANCH   2  17
ENDBRANCH   1   2
BRANCH   1  19
HETATM   19  C11 UNL     1      19.340  23.077  20.637  1.00  0.00     0.043 C
BRANCH  19  20
HETATM   20  C12 UNL     1      20.688  23.130  19.856  1.00  0.00     0.105 C
BRANCH  20  21
HETATM   21  C13 UNL     1      21.529  24.116  20.595  1.00  0.00     0.218 C
HETATM   22  O4  UNL     1      22.594  23.801  21.128  1.00  0.00    -0.274 OA
HETATM   23  N3  UNL     1      21.091  25.496  20.681  1.00  0.00    -0.346 N
ATOM     24  H3  UNL     1      20.197  25.783  20.284  1.00  0.00     0.163 HD
BRANCH  23  25
HETATM   25  C14 UNL     1      21.938  26.451  21.335  1.00  0.00     0.078 C
HETATM   26  C15 UNL     1      21.349  27.855  21.001  1.00  0.00     0.046 C
HETATM   27  C16 UNL     1      21.936  26.388  22.835  1.00  0.00     0.046 C
BRANCH  25  28
HETATM   28  C17 UNL     1      23.283  26.425  20.723  1.00  0.00     0.261 C
HETATM   29  O5  UNL     1      23.569  27.439  20.017  1.00  0.00    -0.304 OA
ENDBRANCH  25  28
ENDBRANCH  23  25
ENDBRANCH  20  21
ENDBRANCH  19  20
ENDBRANCH   1  19
BRANCH   1  30
HETATM   30  N4  UNL     1      18.172  23.627  18.564  1.00  0.00    -0.325 N
HETATM   31  C18 UNL     1      17.278  24.502  17.988  1.00  0.00     0.362 C
HETATM   32  O6  UNL     1      16.282  25.042  18.490  1.00  0.00    -0.238 OA
ATOM     33  H4  UNL     1      18.970  23.380  17.978  1.00  0.00     0.165 HD
BRANCH  31  34
HETATM   34  O7  UNL     1      17.489  24.812  16.617  1.00  0.00    -0.282 OA
BRANCH  34  35
HETATM   35  C19 UNL     1      18.720  25.170  16.054  1.00  0.00     0.117 C
HETATM   36  C20 UNL     1      19.456  23.909  15.725  1.00  0.00     0.059 C
HETATM   37  C21 UNL     1      19.384  25.948  17.169  1.00  0.00     0.051 C
HETATM   38  C22 UNL     1      20.868  25.940  17.203  1.00  0.00     0.020 C
HETATM   39  C23 UNL     1      21.516  26.816  16.184  1.00  0.00     0.014 C
HETATM   40  C24 UNL     1      22.589  26.055  15.427  1.00  0.00     0.023 C
HETATM   41  C25 UNL     1      22.281  27.967  16.868  1.00  0.00     0.023 C
HETATM   42  C26 UNL     1      20.603  27.443  15.210  1.00  0.00     0.144 C
HETATM   43  O8  UNL     1      20.387  28.635  15.408  1.00  0.00    -0.296 OA
HETATM   44  C27 UNL     1      19.874  26.949  14.018  1.00  0.00     0.156 C
HETATM   45  S1  UNL     1      18.376  26.119  14.584  1.00  0.00    -0.123 SA
ENDBRANCH  34  35
ENDBRANCH  31  34
ENDBRANCH   1  30
TORSDOF 16
ENDMDL