MODEL 5
REMARK VINA RESULT: -8.284734017      2.719      4.737
REMARK  14 active torsions:
REMARK  status: ('A' for Active; 'I' for Inactive)
REMARK    1  A    between atoms: C3_3  and  N1_4
REMARK    2  A    between atoms: C6_8  and  O1_9
REMARK    3  A    between atoms: C6_8  and  N2_11
REMARK    4  A    between atoms: N2_11  and  C7_13
REMARK    5  A    between atoms: C12_19  and  C13_20
REMARK    6  A    between atoms: C13_20  and  O3_22
REMARK    7  A    between atoms: C19_30  and  C20_31
REMARK       I    between atoms: C20_31  and  N4_33
REMARK    8  A    between atoms: N4_33  and  C21_34
REMARK    9  A    between atoms: N4_33  and  C25_43
REMARK   10  A    between atoms: C21_34  and  C22_35
REMARK   11  A    between atoms: C22_35  and  C23_36
REMARK   12  A    between atoms: C23_36  and  N5_37
REMARK   13  A    between atoms: N5_37  and  S2_39
REMARK   14  A    between atoms: C25_43  and  C27_45
ROOT
HETATM    1  C1  UNL     1      20.032  21.684  21.676  1.00  0.00     0.018 C
HETATM    2  C2  UNL     1      20.091  22.067  20.535  1.00  0.00    -0.072 C
HETATM    3  C3  UNL     1      20.138  22.550  19.128  1.00  0.00     0.152 C
ENDROOT
BRANCH   3   4
HETATM    4  N1  UNL     1      18.927  22.552  18.478  1.00  0.00    -0.360 N
HETATM    5  C4  UNL     1      18.245  23.222  17.647  1.00  0.00     0.044 C
HETATM    6  C5  UNL     1      18.781  24.508  17.042  1.00  0.00     0.061 C
HETATM    7  C19 UNL     1      16.954  22.718  17.125  1.00  0.00     0.174 C
HETATM    8  C6  UNL     1      19.335  25.514  17.879  1.00  0.00     0.155 C
HETATM    9  C15 UNL     1      18.683  24.468  15.726  1.00  0.00     0.021 C
HETATM   10  C16 UNL     1      19.175  25.604  14.903  1.00  0.00     0.069 C
HETATM   11  N3  UNL     1      17.833  23.494  15.088  1.00  0.00    -0.365 N
HETATM   12  C17 UNL     1      17.101  22.636  15.661  1.00  0.00     0.002 C
ATOM     13  H3  UNL     1      17.821  23.498  14.068  1.00  0.00     0.165 HD
HETATM   14  C18 UNL     1      16.324  21.720  14.808  1.00  0.00     0.064 C
ATOM     15  H1  UNL     1      18.392  21.732  18.764  1.00  0.00     0.165 HD
BRANCH   8  16
HETATM   16  O1  UNL     1      19.151  25.291  19.170  1.00  0.00    -0.345 OA
ATOM     17  H1  UNL     1      18.622  25.954  19.600  1.00  0.00     0.219 HD
ENDBRANCH   8  16
BRANCH   8  18
HETATM   18  N2  UNL     1      20.031  26.674  17.577  1.00  0.00    -0.330 N
ATOM     19  H2  UNL     1      19.492  27.514  17.368  1.00  0.00     0.168 HD
BRANCH  18  20
HETATM   20  C7  UNL     1      21.493  26.769  17.541  1.00  0.00     0.093 A
HETATM   21  S1  UNL     1      22.390  27.059  16.083  1.00  0.00    -0.076 SA
HETATM   22  C8  UNL     1      23.944  27.119  16.737  1.00  0.00    -0.012 A
HETATM   23  C9  UNL     1      25.241  27.342  15.988  1.00  0.00     0.057 C
HETATM   24  C10 UNL     1      23.746  26.920  18.068  1.00  0.00    -0.030 A
HETATM   25  C11 UNL     1      24.960  26.898  18.989  1.00  0.00     0.050 C
HETATM   26  C12 UNL     1      22.449  26.742  18.490  1.00  0.00     0.080 A
BRANCH  26  27
HETATM   27  C13 UNL     1      22.152  26.821  19.960  1.00  0.00     0.296 C
HETATM   28  O2  UNL     1      22.291  27.842  20.650  1.00  0.00    -0.259 OA
BRANCH  27  29
HETATM   29  O3  UNL     1      21.680  25.712  20.675  1.00  0.00    -0.322 OA
HETATM   30  C14 UNL     1      22.552  24.796  21.309  1.00  0.00     0.213 C
ENDBRANCH  27  29
ENDBRANCH  26  27
ENDBRANCH  18  20
ENDBRANCH   8  18
BRANCH   7  31
HETATM   31  C20 UNL     1      16.595  21.468  17.776  1.00  0.00     0.235 C
HETATM   32  O4  UNL     1      17.511  20.625  17.958  1.00  0.00    -0.272 OA
HETATM   33  N4  UNL     1      15.305  21.083  18.231  1.00  0.00    -0.347 N
BRANCH  33  34
HETATM   34  C21 UNL     1      14.233  22.001  18.089  1.00  0.00     0.128 C
BRANCH  34  35
HETATM   35  C22 UNL     1      13.689  22.070  16.669  1.00  0.00     0.040 C
BRANCH  35  36
HETATM   36  C23 UNL     1      13.060  20.725  16.379  1.00  0.00     0.133 C
BRANCH  36  37
HETATM   37  N5  UNL     1      11.727  20.969  15.846  1.00  0.00    -0.320 N
ATOM     38  H5  UNL     1      11.482  21.768  15.261  1.00  0.00     0.172 HD
BRANCH  37  39
HETATM   39  S2  UNL     1      10.614  19.746  16.323  1.00  0.00     0.222 S
HETATM   40  C24 UNL     1      11.122  18.167  15.703  1.00  0.00     0.185 C
HETATM   41  O5  UNL     1       9.274  20.085  15.732  1.00  0.00    -0.206 OA
HETATM   42  O6  UNL     1      10.456  19.714  17.816  1.00  0.00    -0.206 OA
ENDBRANCH  37  39
ENDBRANCH  36  37
ENDBRANCH  35  36
ENDBRANCH  34  35
ENDBRANCH  33  34
BRANCH  33  43
HETATM   43  C25 UNL     1      15.147  19.822  18.852  1.00  0.00     0.082 C
HETATM   44  C26 UNL     1      14.298  19.768  20.075  1.00  0.00     0.032 C
BRANCH  43  45
HETATM   45  C27 UNL     1      14.788  18.650  17.984  1.00  0.00     0.020 C
HETATM   46  C28 UNL     1      14.247  17.437  18.646  1.00  0.00     0.007 C
ENDBRANCH  43  45
ENDBRANCH  33  43
ENDBRANCH   7  31
ENDBRANCH   3   4
TORSDOF 14
ENDMDL