MODEL 4
REMARK VINA RESULT: -8.601057803      3.588     11.813
REMARK  19 active torsions:
REMARK  status: ('A' for Active; 'I' for Inactive)
REMARK    1  A    between atoms: C2_2  and  C3_3
REMARK    2  A    between atoms: C3_3  and  C4_4
REMARK    3  A    between atoms: C4_4  and  C5_5
REMARK    4  A    between atoms: C5_5  and  C6_6
REMARK    5  A    between atoms: C5_5  and  C20_30
REMARK    6  A    between atoms: C6_6  and  C7_7
REMARK    7  A    between atoms: C7_7  and  O1_8
REMARK    8  A    between atoms: N1_10  and  C8_12
REMARK    9  A    between atoms: C8_12  and  C17_27
REMARK   10  A    between atoms: C9_13  and  O2_14
REMARK   11  A    between atoms: C9_13  and  N2_16
REMARK       I    between atoms: N3_19  and  C12_20
REMARK   12  A    between atoms: C12_20  and  O4_22
REMARK   13  A    between atoms: O4_22  and  C13_23
REMARK   14  A    between atoms: C20_30  and  N6_36
REMARK   15  A    between atoms: N4_31  and  C21_33
REMARK   16  A    between atoms: N6_36  and  C23_38
REMARK   17  A    between atoms: C24_43  and  C25_44
REMARK   18  A    between atoms: C25_44  and  C28_47
REMARK   19  A    between atoms: C28_47  and  O5_48
ROOT
HETATM    1  C21 UNL     1      14.291  21.629  14.681  1.00  0.00     0.245 C
HETATM    2  C22 UNL     1      15.252  21.698  13.581  1.00  0.00     0.078 C
HETATM    3  N5  UNL     1      16.013  21.757  12.708  1.00  0.00    -0.196 NA
ENDROOT
BRANCH   1   4
HETATM    4  N4  UNL     1      14.770  20.973  15.850  1.00  0.00    -0.367 N
HETATM    5  C20 UNL     1      15.112  21.478  16.939  1.00  0.00     0.084 C
ATOM      6  H4  UNL     1      14.842  19.958  15.790  1.00  0.00     0.161 HD
BRANCH   5   7
HETATM    7  C5  UNL     1      15.597  20.573  18.064  1.00  0.00     0.060 C
BRANCH   7   8
HETATM    8  C4  UNL     1      17.063  20.594  18.259  1.00  0.00     0.013 C
BRANCH   8   9
HETATM    9  C3  UNL     1      17.429  21.376  19.493  1.00  0.00     0.000 C
BRANCH   9  10
HETATM   10  C2  UNL     1      18.671  22.241  19.290  1.00  0.00    -0.005 C
HETATM   11  C1  UNL     1      18.544  23.406  20.268  1.00  0.00     0.005 C
ENDBRANCH   9  10
ENDBRANCH   8   9
ENDBRANCH   7   8
BRANCH   7  12
HETATM   12  C6  UNL     1      15.001  19.223  17.775  1.00  0.00     0.096 C
BRANCH  12  13
HETATM   13  C7  UNL     1      13.617  18.952  18.078  1.00  0.00     0.116 C
HETATM   14  N1  UNL     1      12.641  18.106  17.709  1.00  0.00    -0.340 N
ATOM     15  H1  UNL     1      12.952  17.181  18.007  1.00  0.00     0.167 HD
BRANCH  13  16
HETATM   16  O1  UNL     1      13.133  19.812  19.035  1.00  0.00    -0.349 OA
ATOM     17  H1  UNL     1      13.142  19.414  19.897  1.00  0.00     0.219 HD
ENDBRANCH  13  16
BRANCH  14  18
HETATM   18  C8  UNL     1      11.552  17.934  17.180  1.00  0.00     0.065 C
HETATM   19  C9  UNL     1      10.873  18.473  16.042  1.00  0.00     0.161 C
BRANCH  19  20
HETATM   20  O2  UNL     1       9.608  18.113  15.935  1.00  0.00    -0.345 OA
ATOM     21  H2  UNL     1       9.408  17.598  15.162  1.00  0.00     0.219 HD
ENDBRANCH  19  20
BRANCH  19  22
HETATM   22  N2  UNL     1      11.281  19.320  15.003  1.00  0.00    -0.357 N
HETATM   23  C10 UNL     1      12.153  19.075  13.903  1.00  0.00     0.145 C
HETATM   24  C11 UNL     1      11.299  19.272  12.590  1.00  0.00     0.148 C
HETATM   25  N3  UNL     1      10.245  20.180  12.888  1.00  0.00    -0.325 N
HETATM   26  C12 UNL     1       8.898  20.156  12.551  1.00  0.00     0.362 C
HETATM   27  C15 UNL     1      10.678  21.323  13.756  1.00  0.00     0.148 C
HETATM   28  O3  UNL     1       8.127  21.103  12.913  1.00  0.00    -0.238 OA
HETATM   29  C16 UNL     1      10.807  20.736  15.139  1.00  0.00     0.145 C
BRANCH  26  30
HETATM   30  O4  UNL     1       8.253  19.146  11.822  1.00  0.00    -0.304 OA
BRANCH  30  31
HETATM   31  C13 UNL     1       7.804  19.414  10.489  1.00  0.00     0.176 C
HETATM   32  C14 UNL     1       8.930  19.796   9.566  1.00  0.00     0.034 C
ENDBRANCH  30  31
ENDBRANCH  26  30
ENDBRANCH  19  22
BRANCH  18  33
HETATM   33  C17 UNL     1      10.670  16.900  17.945  1.00  0.00     0.032 C
HETATM   34  C18 UNL     1      10.734  17.242  19.411  1.00  0.00     0.016 C
HETATM   35  C19 UNL     1      11.182  15.511  17.740  1.00  0.00     0.016 C
ENDBRANCH  18  33
ENDBRANCH  14  18
ENDBRANCH  12  13
ENDBRANCH   7  12
ENDBRANCH   5   7
BRANCH   5  36
HETATM   36  N6  UNL     1      15.045  22.889  17.289  1.00  0.00    -0.325 N
ATOM     37  H6  UNL     1      14.180  23.260  17.684  1.00  0.00     0.169 HD
BRANCH  36  38
HETATM   38  C23 UNL     1      16.053  23.691  17.115  1.00  0.00     0.166 A
HETATM   39  N7  UNL     1      16.318  24.855  17.741  1.00  0.00    -0.279 N
HETATM   40  N8  UNL     1      17.350  25.500  17.353  1.00  0.00    -0.295 N
ATOM     41  H7  UNL     1      15.722  25.205  18.490  1.00  0.00     0.189 HD
HETATM   42  C24 UNL     1      18.121  25.065  16.402  1.00  0.00     0.079 A
ATOM     43  H8  UNL     1      17.577  26.385  17.805  1.00  0.00     0.187 HD
HETATM   44  S1  UNL     1      17.343  23.609  15.993  1.00  0.00    -0.037 SA
BRANCH  42  45
HETATM   45  C25 UNL     1      19.342  25.758  15.874  1.00  0.00     0.024 C
HETATM   46  C26 UNL     1      19.003  26.559  14.648  1.00  0.00     0.024 C
HETATM   47  C27 UNL     1      20.260  24.629  15.424  1.00  0.00     0.024 C
BRANCH  45  48
HETATM   48  C28 UNL     1      19.992  26.631  16.879  1.00  0.00     0.179 C
BRANCH  48  49
HETATM   49  O5  UNL     1      20.000  25.999  18.112  1.00  0.00    -0.400 OA
ATOM     50  H5  UNL     1      19.712  26.605  18.785  1.00  0.00     0.209 HD
ENDBRANCH  48  49
ENDBRANCH  45  48
ENDBRANCH  42  45
ENDBRANCH  36  38
ENDBRANCH   5  36
ENDBRANCH   1   4
TORSDOF 19
ENDMDL