MODEL 1
REMARK VINA RESULT: -9.193520580      0.000      0.000
REMARK  18 active torsions:
REMARK  status: ('A' for Active; 'I' for Inactive)
REMARK    1  A    between atoms: C2_2  and  C3_3
REMARK    2  A    between atoms: C3_3  and  C4_4
REMARK    3  A    between atoms: C4_4  and  C5_5
REMARK    4  A    between atoms: C5_5  and  O1_6
REMARK    5  A    between atoms: O1_6  and  C6_7
REMARK       I    between atoms: C6_7  and  N1_9
REMARK    6  A    between atoms: N2_12  and  C9_13
REMARK    7  A    between atoms: C9_13  and  C10_14
REMARK    8  A    between atoms: C10_14  and  N3_15
REMARK    9  A    between atoms: N3_15  and  C11_16
REMARK   10  A    between atoms: C11_16  and  O3_17
REMARK   11  A    between atoms: C11_16  and  C12_19
REMARK   12  A    between atoms: C14_21  and  C15_22
REMARK   13  A    between atoms: N5_32  and  C23_33
REMARK   14  A    between atoms: C23_33  and  C24_34
REMARK       I    between atoms: C24_34  and  N6_36
REMARK   15  A    between atoms: N6_36  and  C25_38
REMARK   16  A    between atoms: C25_38  and  C28_41
REMARK   17  A    between atoms: C28_41  and  O5_42
REMARK   18  A    between atoms: C28_41  and  O6_44
ROOT
HETATM    1  C12 UNL     1      14.587  22.376  16.934  1.00  0.00     0.118 A
HETATM    2  C13 UNL     1      13.515  22.450  16.021  1.00  0.00     0.068 A
HETATM    3  C14 UNL     1      13.412  21.218  15.418  1.00  0.00     0.061 A
HETATM    4  N4  UNL     1      14.374  20.489  15.949  1.00  0.00    -0.297 N
ATOM      5  H4  UNL     1      14.559  19.520  15.688  1.00  0.00     0.187 HD
HETATM    6  N5  UNL     1      15.090  21.170  16.881  1.00  0.00    -0.278 N
ENDROOT
BRANCH   1   7
HETATM    7  C11 UNL     1      15.056  23.598  17.617  1.00  0.00     0.242 C
BRANCH   7   8
HETATM    8  N3  UNL     1      16.300  24.177  17.571  1.00  0.00    -0.390 NA
BRANCH   8   9
HETATM    9  C10 UNL     1      17.537  24.776  17.493  1.00  0.00     0.197 C
BRANCH   9  10
HETATM   10  C9  UNL     1      18.465  24.294  18.591  1.00  0.00     0.091 C
BRANCH  10  11
HETATM   11  N2  UNL     1      19.811  23.988  18.318  1.00  0.00    -0.287 NA
HETATM   12  C8  UNL     1      20.746  23.895  19.346  1.00  0.00     0.114 C
HETATM   13  C7  UNL     1      21.586  25.031  19.775  1.00  0.00     0.143 C
HETATM   14  N1  UNL     1      21.825  25.986  18.710  1.00  0.00    -0.326 N
HETATM   15  C6  UNL     1      23.090  26.513  18.447  1.00  0.00     0.362 C
HETATM   16  C31 UNL     1      20.602  26.264  17.941  1.00  0.00     0.143 C
HETATM   17  O2  UNL     1      24.092  26.123  19.134  1.00  0.00    -0.238 OA
HETATM   18  C30 UNL     1      20.274  24.961  17.254  1.00  0.00     0.114 C
BRANCH  15  19
HETATM   19  O1  UNL     1      23.378  27.439  17.489  1.00  0.00    -0.304 OA
BRANCH  19  20
HETATM   20  C5  UNL     1      23.381  27.348  16.122  1.00  0.00     0.180 C
BRANCH  20  21
HETATM   21  C4  UNL     1      22.452  28.270  15.375  1.00  0.00     0.027 C
BRANCH  21  22
HETATM   22  C3  UNL     1      21.509  27.389  14.585  1.00  0.00     0.002 C
BRANCH  22  23
HETATM   23  C2  UNL     1      20.080  27.864  14.623  1.00  0.00    -0.004 C
HETATM   24  C1  UNL     1      19.130  26.763  14.318  1.00  0.00     0.005 C
ENDBRANCH  22  23
ENDBRANCH  21  22
ENDBRANCH  20  21
ENDBRANCH  19  20
ENDBRANCH  15  19
ENDBRANCH  10  11
ENDBRANCH   9  10
ENDBRANCH   8   9
ENDBRANCH   7   8
BRANCH   7  25
HETATM   25  O3  UNL     1      14.113  24.165  18.326  1.00  0.00    -0.334 OA
ATOM     26  H3  UNL     1      14.278  24.364  19.240  1.00  0.00     0.220 HD
ENDBRANCH   7  25
ENDBRANCH   1   7
BRANCH   6  27
HETATM   27  C23 UNL     1      16.013  20.440  17.775  1.00  0.00     0.252 C
BRANCH  27  28
HETATM   28  C24 UNL     1      14.962  20.045  18.872  1.00  0.00     0.238 C
HETATM   29  O4  UNL     1      14.879  20.699  19.889  1.00  0.00    -0.272 OA
HETATM   30  N6  UNL     1      14.182  18.937  18.558  1.00  0.00    -0.346 N
ATOM     31  H6  UNL     1      14.450  18.530  17.662  1.00  0.00     0.163 HD
BRANCH  30  32
HETATM   32  C25 UNL     1      13.108  18.222  19.159  1.00  0.00     0.075 C
HETATM   33  C26 UNL     1      13.475  17.827  20.610  1.00  0.00     0.043 C
HETATM   34  C27 UNL     1      13.070  16.800  18.456  1.00  0.00     0.043 C
BRANCH  32  35
HETATM   35  C28 UNL     1      11.785  18.732  19.052  1.00  0.00     0.283 C
BRANCH  35  36
HETATM   36  O5  UNL     1      11.013  18.408  20.198  1.00  0.00    -0.369 OA
ATOM     37  H5  UNL     1      10.339  19.058  20.356  1.00  0.00     0.212 HD
ENDBRANCH  35  36
BRANCH  35  38
HETATM   38  O6  UNL     1      11.026  19.419  18.237  1.00  0.00    -0.364 OA
HETATM   39  C29 UNL     1      10.467  19.171  17.008  1.00  0.00     0.204 C
ENDBRANCH  35  38
ENDBRANCH  32  35
ENDBRANCH  30  32
ENDBRANCH  27  28
ENDBRANCH   6  27
BRANCH   3  40
HETATM   40  C15 UNL     1      12.447  20.812  14.380  1.00  0.00    -0.007 A
HETATM   41  C16 UNL     1      12.763  19.656  13.652  1.00  0.00     0.020 A
HETATM   42  C17 UNL     1      11.809  19.141  12.802  1.00  0.00    -0.061 A
HETATM   43  C18 UNL     1      12.127  17.935  11.964  1.00  0.00     0.048 C
HETATM   44  C19 UNL     1      10.538  19.757  12.674  1.00  0.00     0.013 A
HETATM   45  C20 UNL     1      10.256  20.882  13.408  1.00  0.00    -0.061 A
HETATM   46  C21 UNL     1       8.905  21.475  13.382  1.00  0.00     0.048 C
HETATM   47  C22 UNL     1      11.247  21.373  14.247  1.00  0.00     0.020 A
ENDBRANCH   3  40
TORSDOF 18
ENDMDL