MODEL 5
REMARK VINA RESULT: -9.065079725      2.866      3.751
REMARK  12 active torsions:
REMARK  status: ('A' for Active; 'I' for Inactive)
REMARK    1  A    between atoms: C2_2  and  C3_3
REMARK    2  A    between atoms: C3_3  and  C4_4
REMARK    3  A    between atoms: C4_4  and  C5_5
REMARK    4  A    between atoms: C5_5  and  N1_6
REMARK    5  A    between atoms: S1_11  and  C7_13
REMARK    6  A    between atoms: C16_27  and  C17_28
REMARK       I    between atoms: C17_28  and  N5_30
REMARK    7  A    between atoms: N5_30  and  C18_32
REMARK    8  A    between atoms: C18_32  and  C19_33
REMARK    9  A    between atoms: C19_33  and  N6_34
REMARK   10  A    between atoms: N7_37  and  C22_38
REMARK   11  A    between atoms: C22_38  and  C23_39
REMARK   12  A    between atoms: C23_39  and  N8_40
ROOT
HETATM    1  N1  UNL     1      18.607  23.310  17.675  1.00  0.00    -0.344 N
HETATM    2  C6  UNL     1      19.847  23.789  18.133  1.00  0.00     0.179 C
HETATM    3  N2  UNL     1      20.689  24.432  17.460  1.00  0.00    -0.377 N
ATOM      4  H21 UNL     1      21.588  24.780  17.793  1.00  0.00     0.158 HD
ATOM      5  H22 UNL     1      20.483  24.593  16.474  1.00  0.00     0.158 HD
HETATM    6  S1  UNL     1      20.204  23.510  19.838  1.00  0.00     0.124 S
HETATM    7  O1  UNL     1      20.714  22.117  19.981  1.00  0.00    -0.236 OA
HETATM    8  N4  UNL     1      18.825  23.731  20.552  1.00  0.00    -0.339 N
ATOM      9  H4  UNL     1      18.669  23.466  21.524  1.00  0.00     0.169 HD
HETATM   10  C15 UNL     1      17.796  24.329  19.748  1.00  0.00     0.164 C
HETATM   11  C16 UNL     1      17.439  23.498  18.523  1.00  0.00     0.196 C
ENDROOT
BRANCH  11  12
HETATM   12  C17 UNL     1      16.867  22.241  19.047  1.00  0.00     0.242 C
HETATM   13  O2  UNL     1      17.634  21.264  19.340  1.00  0.00    -0.271 OA
HETATM   14  N5  UNL     1      15.483  22.027  19.255  1.00  0.00    -0.358 N
ATOM     15  H5  UNL     1      14.829  22.776  19.028  1.00  0.00     0.162 HD
BRANCH  14  16
HETATM   16  C18 UNL     1      14.964  20.771  19.783  1.00  0.00     0.152 C
BRANCH  16  17
HETATM   17  C19 UNL     1      14.575  19.858  18.648  1.00  0.00     0.292 C
BRANCH  17  18
HETATM   18  N6  UNL     1      13.245  20.068  18.176  1.00  0.00     0.093 N
HETATM   19  C20 UNL     1      12.351  18.953  18.335  1.00  0.00     0.291 C
HETATM   20  C21 UNL     1      10.985  19.424  17.815  1.00  0.00     0.147 C
HETATM   21  N7  UNL     1      11.075  19.600  16.424  1.00  0.00    -0.407 N
HETATM   22  C28 UNL     1      12.373  19.760  15.895  1.00  0.00     0.147 C
HETATM   23  C29 UNL     1      13.290  20.542  16.804  1.00  0.00     0.291 C
BRANCH  21  24
HETATM   24  C22 UNL     1      10.074  19.035  15.592  1.00  0.00     0.147 C
BRANCH  24  25
HETATM   25  C23 UNL     1       9.946  19.673  14.254  1.00  0.00     0.291 C
BRANCH  25  26
HETATM   26  N8  UNL     1       9.897  18.683  13.211  1.00  0.00     0.094 N
HETATM   27  C24 UNL     1      10.424  17.407  13.666  1.00  0.00     0.298 C
HETATM   28  C25 UNL     1      11.576  16.912  12.871  1.00  0.00     0.198 C
HETATM   29  O3  UNL     1      12.411  17.813  12.308  1.00  0.00    -0.388 OA
HETATM   30  C26 UNL     1      11.991  19.107  12.184  1.00  0.00     0.198 C
HETATM   31  C27 UNL     1      10.494  19.085  11.968  1.00  0.00     0.298 C
ENDBRANCH  25  26
ENDBRANCH  24  25
ENDBRANCH  21  24
ENDBRANCH  17  18
ENDBRANCH  16  17
ENDBRANCH  14  16
ENDBRANCH  11  12
BRANCH   1  32
HETATM   32  C5  UNL     1      18.431  22.710  16.406  1.00  0.00     0.126 C
BRANCH  32  33
HETATM   33  C4  UNL     1      17.348  23.153  15.508  1.00  0.00     0.020 C
BRANCH  33  34
HETATM   34  C3  UNL     1      16.237  22.181  15.261  1.00  0.00     0.001 C
BRANCH  34  35
HETATM   35  C2  UNL     1      15.940  22.058  13.772  1.00  0.00    -0.004 C
HETATM   36  C1  UNL     1      14.992  20.920  13.485  1.00  0.00     0.005 C
ENDBRANCH  34  35
ENDBRANCH  33  34
ENDBRANCH  32  33
ENDBRANCH   1  32
BRANCH   6  37
HETATM   37  C7  UNL     1      21.430  24.621  20.428  1.00  0.00     0.114 A
HETATM   38  S2  UNL     1      21.150  26.099  21.225  1.00  0.00    -0.088 SA
HETATM   39  C8  UNL     1      22.765  26.588  21.475  1.00  0.00     0.065 A
HETATM   40  C9  UNL     1      23.489  25.561  20.916  1.00  0.00    -0.001 A
HETATM   41  C10 UNL     1      24.900  25.533  20.888  1.00  0.00     0.016 A
HETATM   42  C14 UNL     1      22.799  24.549  20.378  1.00  0.00     0.070 A
HETATM   43  C11 UNL     1      25.604  24.494  20.320  1.00  0.00     0.025 A
HETATM   44  C12 UNL     1      24.849  23.478  19.781  1.00  0.00     0.005 A
HETATM   45  C13 UNL     1      25.608  22.344  19.160  1.00  0.00     0.068 C
HETATM   46  N3  UNL     1      23.524  23.520  19.817  1.00  0.00    -0.358 N
ATOM     47  H3  UNL     1      23.009  22.743  19.404  1.00  0.00     0.166 HD
ENDBRANCH   6  37
TORSDOF 12
ENDMDL