MODEL 5
REMARK VINA RESULT: -8.622011567      4.522     13.046
REMARK  15 active torsions:
REMARK  status: ('A' for Active; 'I' for Inactive)
REMARK    1  A    between atoms: N1_2  and  C3_4
REMARK    2  A    between atoms: C3_4  and  C4_5
REMARK    3  A    between atoms: C4_5  and  C5_6
REMARK    4  A    between atoms: C5_6  and  N2_7
REMARK       I    between atoms: N2_7  and  C6_9
REMARK    5  A    between atoms: C6_9  and  C7_11
REMARK    6  A    between atoms: C11_17  and  N4_18
REMARK    7  A    between atoms: N4_18  and  C12_20
REMARK    8  A    between atoms: C12_20  and  C13_21
REMARK    9  A    between atoms: C13_21  and  C14_22
REMARK   10  A    between atoms: C14_22  and  N5_23
REMARK   11  A    between atoms: C19_29  and  N6_30
REMARK   12  A    between atoms: C20_32  and  C21_33
REMARK   13  A    between atoms: C22_34  and  C23_35
REMARK   14  A    between atoms: C23_35  and  O4_37
REMARK   15  A    between atoms: O4_37  and  C24_38
ROOT
HETATM    1  C7  UNL     1      16.014  22.999  17.206  1.00  0.00     0.034 A
HETATM    2  C8  UNL     1      16.721  22.598  16.080  1.00  0.00     0.019 A
HETATM    3  C9  UNL     1      16.149  21.743  15.168  1.00  0.00     0.033 A
HETATM    4  C10 UNL     1      14.872  21.242  15.311  1.00  0.00     0.060 A
HETATM    5  N3  UNL     1      14.339  20.392  14.407  1.00  0.00    -0.338 N
ATOM      6  H3  UNL     1      14.876  20.112  13.586  1.00  0.00     0.167 HD
HETATM    7  C11 UNL     1      13.101  19.920  14.594  1.00  0.00     0.146 A
HETATM    8  C19 UNL     1      12.322  20.286  15.722  1.00  0.00     0.150 A
HETATM    9  N8  UNL     1      12.935  21.148  16.586  1.00  0.00    -0.338 N
ATOM     10  H8  UNL     1      12.414  21.441  17.412  1.00  0.00     0.167 HD
HETATM   11  C31 UNL     1      14.167  21.634  16.423  1.00  0.00     0.061 A
HETATM   12  C32 UNL     1      14.739  22.505  17.358  1.00  0.00     0.049 A
ENDROOT
BRANCH   8  13
HETATM   13  N6  UNL     1      11.096  19.767  15.839  1.00  0.00    -0.347 N
HETATM   14  C20 UNL     1      10.356  18.855  16.154  1.00  0.00     0.119 C
ATOM     15  H6  UNL     1      10.474  20.496  15.492  1.00  0.00     0.167 HD
BRANCH  14  16
HETATM   16  C21 UNL     1      10.584  17.534  16.714  1.00  0.00     0.058 C
HETATM   17  C22 UNL     1      11.009  17.317  17.949  1.00  0.00     0.046 C
HETATM   18  C28 UNL     1      11.136  15.818  18.117  1.00  0.00     0.067 C
HETATM   19  C29 UNL     1      11.397  15.395  16.674  1.00  0.00     0.127 C
HETATM   20  N7  UNL     1      10.376  16.272  16.058  1.00  0.00    -0.383 N
HETATM   21  C30 UNL     1       9.424  15.876  15.079  1.00  0.00     0.149 C
BRANCH  17  22
HETATM   22  C23 UNL     1      11.347  18.224  19.034  1.00  0.00     0.292 C
HETATM   23  O3  UNL     1      10.759  18.281  20.121  1.00  0.00    -0.259 OA
BRANCH  22  24
HETATM   24  O4  UNL     1      12.408  19.112  18.879  1.00  0.00    -0.307 OA
BRANCH  24  25
HETATM   25  C24 UNL     1      13.712  18.867  19.353  1.00  0.00     0.060 C
HETATM   26  C25 UNL     1      14.417  20.095  19.867  1.00  0.00     0.046 C
HETATM   27  C26 UNL     1      14.490  18.340  18.139  1.00  0.00     0.046 C
HETATM   28  C27 UNL     1      13.771  17.803  20.407  1.00  0.00     0.046 C
ENDBRANCH  24  25
ENDBRANCH  22  24
ENDBRANCH  17  22
ENDBRANCH  14  16
ENDBRANCH   8  13
BRANCH   7  29
HETATM   29  N4  UNL     1      12.541  19.111  13.774  1.00  0.00    -0.373 N
ATOM     30  H4  UNL     1      12.250  18.217  14.171  1.00  0.00     0.161 HD
BRANCH  29  31
HETATM   31  C12 UNL     1      12.270  19.280  12.399  1.00  0.00     0.123 C
BRANCH  31  32
HETATM   32  C13 UNL     1      11.213  18.238  12.020  1.00  0.00     0.050 C
BRANCH  32  33
HETATM   33  C14 UNL     1       9.903  18.758  12.523  1.00  0.00     0.274 C
BRANCH  33  34
HETATM   34  N5  UNL     1       9.554  20.066  12.052  1.00  0.00     0.092 N
HETATM   35  C15 UNL     1       8.900  20.125  10.793  1.00  0.00     0.298 C
HETATM   36  C16 UNL     1       7.433  20.378  10.816  1.00  0.00     0.198 C
HETATM   37  O2  UNL     1       7.011  21.337  11.714  1.00  0.00    -0.388 OA
HETATM   38  C17 UNL     1       8.049  21.881  12.456  1.00  0.00     0.198 C
HETATM   39  C18 UNL     1       8.910  20.806  13.088  1.00  0.00     0.298 C
ENDBRANCH  33  34
ENDBRANCH  32  33
ENDBRANCH  31  32
ENDBRANCH  29  31
ENDBRANCH   7  29
BRANCH   1  40
HETATM   40  C6  UNL     1      16.639  23.886  18.183  1.00  0.00     0.251 C
HETATM   41  N2  UNL     1      17.211  23.437  19.403  1.00  0.00    -0.357 N
ATOM     42  H2  UNL     1      17.196  22.447  19.645  1.00  0.00     0.162 HD
HETATM   43  O1  UNL     1      16.680  25.138  17.937  1.00  0.00    -0.268 OA
BRANCH  41  44
HETATM   44  C5  UNL     1      17.810  24.389  20.289  1.00  0.00     0.124 C
BRANCH  44  45
HETATM   45  C4  UNL     1      19.212  24.012  20.688  1.00  0.00     0.050 C
BRANCH  45  46
HETATM   46  C3  UNL     1      20.009  23.707  19.417  1.00  0.00     0.273 C
BRANCH  46  47
HETATM   47  N1  UNL     1      20.256  24.975  18.764  1.00  0.00     0.080 N
HETATM   48  C1  UNL     1      20.143  24.821  17.325  1.00  0.00     0.309 C
HETATM   49  C2  UNL     1      21.487  25.588  19.178  1.00  0.00     0.309 C
ENDBRANCH  46  47
ENDBRANCH  45  46
ENDBRANCH  44  45
ENDBRANCH  41  44
ENDBRANCH   1  40
TORSDOF 15
ENDMDL