MODEL 1
REMARK VINA RESULT: -9.494124434      0.000      0.000
REMARK  13 active torsions:
REMARK  status: ('A' for Active; 'I' for Inactive)
REMARK    1  A    between atoms: C15_19  and  C17_21
REMARK    2  A    between atoms: C17_21  and  O5_22
REMARK    3  A    between atoms: O5_22  and  C18_23
REMARK    4  A    between atoms: C18_23  and  C19_25
REMARK    5  A    between atoms: C19_25  and  C20_26
REMARK    6  A    between atoms: C20_26  and  C21_27
REMARK       I    between atoms: C21_27  and  N1_29
REMARK    7  A    between atoms: N1_29  and  C22_31
REMARK    8  A    between atoms: C22_31  and  C23_32
REMARK    9  A    between atoms: C23_32  and  C24_33
REMARK   10  A    between atoms: C24_33  and  C25_34
REMARK   11  A    between atoms: C25_34  and  C26_35
REMARK   12  A    between atoms: C26_35  and  C27_36
REMARK   13  A    between atoms: C27_36  and  C28_37
ROOT
HETATM    1  C1  UNL     1      21.815  23.573  20.541  1.00  0.00     0.021 C
HETATM    2  C2  UNL     1      20.936  24.520  19.811  1.00  0.00    -0.002 C
HETATM    3  C3  UNL     1      20.418  25.521  20.850  1.00  0.00     0.022 C
HETATM    4  C4  UNL     1      21.507  26.359  21.431  1.00  0.00     0.079 C
HETATM    5  C5  UNL     1      22.573  26.714  20.493  1.00  0.00     0.127 C
HETATM    6  O1  UNL     1      23.188  27.756  20.716  1.00  0.00    -0.298 OA
HETATM    7  C6  UNL     1      22.975  25.931  19.299  1.00  0.00     0.091 C
HETATM    8  C7  UNL     1      21.769  25.229  18.766  1.00  0.00     0.075 C
HETATM    9  C8  UNL     1      20.865  26.318  18.254  1.00  0.00     0.136 C
HETATM   10  O2  UNL     1      21.068  27.486  18.351  1.00  0.00    -0.297 OA
HETATM   11  C9  UNL     1      19.623  25.845  17.575  1.00  0.00     0.114 C
HETATM   12  C10 UNL     1      19.172  24.507  18.117  1.00  0.00    -0.053 C
HETATM   13  C11 UNL     1      19.772  23.914  19.128  1.00  0.00     0.008 C
HETATM   14  C12 UNL     1      19.268  22.626  19.624  1.00  0.00     0.225 C
HETATM   15  O3  UNL     1      19.815  22.052  20.574  1.00  0.00    -0.284 OA
HETATM   16  C13 UNL     1      18.118  22.051  18.973  1.00  0.00     0.205 C
HETATM   17  O4  UNL     1      17.887  20.837  19.203  1.00  0.00    -0.288 OA
HETATM   18  C14 UNL     1      17.271  22.854  18.093  1.00  0.00     0.094 C
HETATM   19  C15 UNL     1      16.476  21.970  17.171  1.00  0.00     0.051 C
HETATM   20  C16 UNL     1      17.215  20.715  16.742  1.00  0.00     0.026 C
HETATM   21  C29 UNL     1      16.108  22.659  15.894  1.00  0.00     0.138 C
HETATM   22  O10 UNL     1      14.981  22.651  15.489  1.00  0.00    -0.297 OA
HETATM   23  C30 UNL     1      17.170  23.352  15.145  1.00  0.00     0.080 C
HETATM   24  C31 UNL     1      18.395  23.629  15.993  1.00  0.00     0.022 C
HETATM   25  C32 UNL     1      17.981  23.962  17.386  1.00  0.00    -0.007 C
HETATM   26  C33 UNL     1      16.988  25.138  17.301  1.00  0.00     0.021 C
ENDROOT
BRANCH  19  27
HETATM   27  C17 UNL     1      15.260  21.525  17.925  1.00  0.00     0.196 C
BRANCH  27  28
HETATM   28  O5  UNL     1      15.024  20.129  17.859  1.00  0.00    -0.320 OA
BRANCH  28  29
HETATM   29  C18 UNL     1      14.553  19.416  18.941  1.00  0.00     0.259 C
HETATM   30  O6  UNL     1      14.482  20.065  20.034  1.00  0.00    -0.265 OA
BRANCH  29  31
HETATM   31  C19 UNL     1      14.141  17.993  18.907  1.00  0.00     0.120 C
BRANCH  31  32
HETATM   32  C20 UNL     1      13.301  17.642  20.097  1.00  0.00     0.112 C
BRANCH  32  33
HETATM   33  C21 UNL     1      11.832  17.524  19.742  1.00  0.00     0.217 C
HETATM   34  O7  UNL     1      11.096  18.398  20.218  1.00  0.00    -0.274 OA
HETATM   35  N1  UNL     1      11.484  16.436  18.920  1.00  0.00    -0.361 N
ATOM     36  H1  UNL     1      12.241  15.809  18.648  1.00  0.00     0.162 HD
BRANCH  35  37
HETATM   37  C22 UNL     1      10.194  16.122  18.429  1.00  0.00     0.122 C
BRANCH  37  38
HETATM   38  C23 UNL     1       9.961  16.202  17.000  1.00  0.00     0.020 C
BRANCH  38  39
HETATM   39  C24 UNL     1      10.973  16.810  16.122  1.00  0.00     0.002 C
BRANCH  39  40
HETATM   40  C25 UNL     1      10.311  18.061  15.465  1.00  0.00     0.001 C
BRANCH  40  41
HETATM   41  C26 UNL     1      10.293  19.215  16.408  1.00  0.00     0.010 C
BRANCH  41  42
HETATM   42  C27 UNL     1      11.669  19.711  16.689  1.00  0.00     0.113 C
BRANCH  42  43
HETATM   43  C28 UNL     1      12.170  20.370  15.421  1.00  0.00     0.172 C
HETATM   44  O8  UNL     1      13.263  19.921  14.938  1.00  0.00    -0.648 OA
HETATM   45  O9  UNL     1      11.477  21.394  14.824  1.00  0.00    -0.648 OA
ENDBRANCH  42  43
ENDBRANCH  41  42
ENDBRANCH  40  41
ENDBRANCH  39  40
ENDBRANCH  38  39
ENDBRANCH  37  38
ENDBRANCH  35  37
ENDBRANCH  32  33
ENDBRANCH  31  32
ENDBRANCH  29  31
ENDBRANCH  28  29
ENDBRANCH  27  28
ENDBRANCH  19  27
TORSDOF 13
ENDMDL