MODEL 5
REMARK VINA RESULT: -8.228937065      1.220      1.449
REMARK  13 active torsions:
REMARK  status: ('A' for Active; 'I' for Inactive)
REMARK    1  A    between atoms: O1_2  and  C2_3
REMARK    2  A    between atoms: C2_3  and  C3_4
REMARK    3  A    between atoms: C3_4  and  O2_5
REMARK    4  A    between atoms: O2_5  and  C4_6
REMARK    5  A    between atoms: C4_6  and  C5_7
REMARK    6  A    between atoms: C5_7  and  N1_8
REMARK    7  A    between atoms: N2_11  and  C8_12
REMARK    8  A    between atoms: C10_14  and  N3_15
REMARK    9  A    between atoms: N3_15  and  C11_17
REMARK   10  A    between atoms: C15_29  and  N7_30
REMARK   11  A    between atoms: C16_35  and  C17_36
REMARK   12  A    between atoms: C17_36  and  N9_37
REMARK   13  A    between atoms: N9_37  and  C19_40
ROOT
HETATM    1  C8  UNL     1      12.369  19.840  17.061  1.00  0.00     0.124 A
HETATM    2  C9  UNL     1      13.486  19.950  16.296  1.00  0.00     0.098 A
HETATM    3  C10 UNL     1      14.701  20.482  16.718  1.00  0.00     0.126 A
HETATM    4  N6  UNL     1      14.784  20.924  17.993  1.00  0.00    -0.177 N
ATOM      5  H6  UNL     1      15.652  21.321  18.353  1.00  0.00     0.185 HD
HETATM    6  C15 UNL     1      13.693  20.826  18.774  1.00  0.00     0.679 A
HETATM    7  N8  UNL     1      12.522  20.314  18.362  1.00  0.00    -0.177 N
ATOM      8  H8  UNL     1      11.734  20.273  19.009  1.00  0.00     0.185 HD
ENDROOT
BRANCH   1   9
HETATM    9  N2  UNL     1      11.171  19.280  16.658  1.00  0.00    -0.330 N
HETATM   10  C7  UNL     1      10.950  19.031  15.178  1.00  0.00     0.157 C
HETATM   11  C6  UNL     1      10.755  17.507  15.328  1.00  0.00     0.295 C
HETATM   12  N1  UNL     1       9.954  17.385  16.498  1.00  0.00     0.120 N
HETATM   13  C16 UNL     1       9.937  18.755  17.146  1.00  0.00     0.381 C
BRANCH  12  14
HETATM   14  C5  UNL     1       8.598  17.056  16.115  1.00  0.00     0.301 C
BRANCH  14  15
HETATM   15  C4  UNL     1       8.275  15.603  16.230  1.00  0.00     0.198 C
BRANCH  15  16
HETATM   16  O2  UNL     1       8.043  15.208  17.546  1.00  0.00    -0.387 OA
BRANCH  16  17
HETATM   17  C3  UNL     1       7.103  15.928  18.223  1.00  0.00     0.193 C
BRANCH  17  18
HETATM   18  C2  UNL     1       7.293  15.891  19.723  1.00  0.00     0.193 C
BRANCH  18  19
HETATM   19  O1  UNL     1       6.121  15.910  20.443  1.00  0.00    -0.394 OA
HETATM   20  C1  UNL     1       5.123  16.720  19.962  1.00  0.00     0.201 C
ENDBRANCH  18  19
ENDBRANCH  17  18
ENDBRANCH  16  17
ENDBRANCH  15  16
ENDBRANCH  14  15
ENDBRANCH  12  14
BRANCH  13  21
HETATM   21  C17 UNL     1       9.665  18.612  18.568  1.00  0.00     0.303 C
BRANCH  21  22
HETATM   22  N9  UNL     1       8.969  19.592  19.298  1.00  0.00     0.036 N
HETATM   23  C18 UNL     1       7.561  19.640  19.094  1.00  0.00     0.363 C
HETATM   24  O3  UNL     1       9.479  20.837  19.229  1.00  0.00    -0.060 OA
BRANCH  22  25
HETATM   25  C19 UNL     1       9.108  19.283  20.765  1.00  0.00     0.252 C
HETATM   26  C20 UNL     1       8.746  20.554  21.494  1.00  0.00     0.050 C
HETATM   27  C21 UNL     1      10.585  19.015  21.044  1.00  0.00     0.050 C
ENDBRANCH  22  25
ENDBRANCH  21  22
ENDBRANCH  13  21
ENDBRANCH   1   9
BRANCH   3  28
HETATM   28  N3  UNL     1      15.822  20.595  15.838  1.00  0.00    -0.327 N
ATOM     29  H3  UNL     1      16.222  19.764  15.402  1.00  0.00     0.169 HD
BRANCH  28  30
HETATM   30  C11 UNL     1      16.315  21.750  15.604  1.00  0.00     0.128 A
HETATM   31  N4  UNL     1      17.041  22.385  16.515  1.00  0.00    -0.337 N
HETATM   32  C12 UNL     1      17.543  23.638  16.287  1.00  0.00     0.183 A
ATOM     33  H4  UNL     1      17.231  21.929  17.408  1.00  0.00     0.168 HD
HETATM   34  N5  UNL     1      17.304  24.262  15.110  1.00  0.00    -0.342 N
HETATM   35  C13 UNL     1      16.583  23.645  14.191  1.00  0.00     0.125 A
ATOM     36  H5  UNL     1      17.676  25.196  14.936  1.00  0.00     0.167 HD
HETATM   37 CL1  UNL     1      16.253  24.448  12.669  1.00  0.00    -0.063 Cl
HETATM   38  C14 UNL     1      16.061  22.363  14.401  1.00  0.00     0.093 A
HETATM   39 BR1  UNL     1      15.045  21.502  13.053  1.00  0.00    -0.044 Br
ENDBRANCH  28  30
ENDBRANCH   3  28
BRANCH   6  40
HETATM   40  N7  UNL     1      13.809  21.242  20.011  1.00  0.00    -0.234 N
ATOM     41  H72 UNL     1      13.655  22.228  20.222  1.00  0.00     0.174 HD
ATOM     42  H71 UNL     1      14.037  20.539  20.716  1.00  0.00     0.174 HD
ENDBRANCH   6  40
TORSDOF 13
ENDMDL