MODEL 3
REMARK VINA RESULT: -8.997442458      3.236      9.735
REMARK  13 active torsions:
REMARK  status: ('A' for Active; 'I' for Inactive)
REMARK    1  A    between atoms: C2_2  and  O1_3
REMARK    2  A    between atoms: O1_3  and  C3_4
REMARK    3  A    between atoms: C3_4  and  C4_6
REMARK    4  A    between atoms: C7_14  and  N3_15
REMARK    5  A    between atoms: C8_17  and  C9_18
REMARK    6  A    between atoms: C9_18  and  C10_19
REMARK    7  A    between atoms: C10_19  and  N4_20
REMARK       I    between atoms: N5_23  and  C13_24
REMARK    8  A    between atoms: C13_24  and  C14_26
REMARK    9  A    between atoms: C14_26  and  C15_27
REMARK   10  A    between atoms: C15_27  and  C16_28
REMARK   11  A    between atoms: C16_28  and  C17_29
REMARK   12  A    between atoms: C17_29  and  C18_30
REMARK   13  A    between atoms: C18_30  and  N6_31
ROOT
HETATM    1  C4  UNL     1      13.953  21.615  15.693  1.00  0.00     0.136 A
HETATM    2  N1  UNL     1      12.898  21.099  14.900  1.00  0.00    -0.291 N
ATOM      3  H1  UNL     1      13.071  20.900  13.915  1.00  0.00     0.187 HD
HETATM    4  N2  UNL     1      11.717  20.873  15.392  1.00  0.00    -0.265 N
ATOM      5  H2  UNL     1      11.003  20.502  14.767  1.00  0.00     0.190 HD
HETATM    6  C5  UNL     1      11.385  21.093  16.652  1.00  0.00     0.274 A
HETATM    7  O3  UNL     1      10.249  20.867  17.133  1.00  0.00    -0.266 OA
HETATM    8  C6  UNL     1      12.357  21.607  17.482  1.00  0.00     0.091 A
HETATM    9  C7  UNL     1      12.005  21.861  18.819  1.00  0.00     0.122 A
HETATM   10  N7  UNL     1      12.948  22.390  19.594  1.00  0.00    -0.340 N
ATOM     11  H7  UNL     1      12.732  22.580  20.573  1.00  0.00     0.167 HD
HETATM   12  C21 UNL     1      14.173  22.681  19.132  1.00  0.00     0.067 A
HETATM   13  C22 UNL     1      15.055  23.368  19.965  1.00  0.00     0.063 A
HETATM   14 CL1  UNL     1      14.584  23.653  21.621  1.00  0.00    -0.082 Cl
HETATM   15  C23 UNL     1      16.266  23.816  19.510  1.00  0.00     0.050 A
HETATM   16  C24 UNL     1      16.625  23.590  18.200  1.00  0.00     0.036 A
HETATM   17 CL2  UNL     1      18.168  24.161  17.599  1.00  0.00    -0.084 Cl
HETATM   18  C25 UNL     1      15.758  22.906  17.365  1.00  0.00     0.038 A
HETATM   19  C26 UNL     1      14.564  22.444  17.819  1.00  0.00     0.008 A
HETATM   20  C27 UNL     1      13.636  21.870  16.969  1.00  0.00     0.030 A
ENDROOT
BRANCH   9  21
HETATM   21  N3  UNL     1      10.843  21.574  19.155  1.00  0.00    -0.355 N
HETATM   22  C8  UNL     1      10.084  20.898  20.059  1.00  0.00     0.064 C
ATOM     23  H3  UNL     1      10.210  22.022  18.492  1.00  0.00     0.166 HD
BRANCH  22  24
HETATM   24  C9  UNL     1      10.618  19.524  20.433  1.00  0.00     0.074 C
BRANCH  24  25
HETATM   25  C10 UNL     1       9.471  18.670  20.849  1.00  0.00     0.277 C
BRANCH  25  26
HETATM   26  N4  UNL     1       8.746  18.042  19.785  1.00  0.00     0.091 N
HETATM   27  C11 UNL     1       8.181  16.818  20.326  1.00  0.00     0.292 C
HETATM   28  C12 UNL     1       7.176  16.191  19.386  1.00  0.00     0.156 C
HETATM   29  N5  UNL     1       7.264  16.887  18.127  1.00  0.00    -0.349 N
HETATM   30  C13 UNL     1       7.608  16.184  16.945  1.00  0.00     0.219 C
HETATM   31  C19 UNL     1       6.987  18.293  18.093  1.00  0.00     0.156 C
HETATM   32  O4  UNL     1       7.808  14.917  16.983  1.00  0.00    -0.273 OA
HETATM   33  C20 UNL     1       7.777  18.934  19.221  1.00  0.00     0.292 C
BRANCH  30  34
HETATM   34  C14 UNL     1       7.730  16.911  15.685  1.00  0.00     0.103 C
BRANCH  34  35
HETATM   35  C15 UNL     1       8.356  16.083  14.574  1.00  0.00     0.009 C
BRANCH  35  36
HETATM   36  C16 UNL     1       9.823  16.266  14.585  1.00  0.00     0.002 C
BRANCH  36  37
HETATM   37  C17 UNL     1      10.366  17.553  15.087  1.00  0.00     0.027 C
BRANCH  37  38
HETATM   38  C18 UNL     1      11.488  17.519  16.046  1.00  0.00     0.229 C
BRANCH  38  39
HETATM   39  N6  UNL     1      11.076  17.629  17.404  1.00  0.00    -0.079 N
ATOM     40  H63 UNL     1      11.802  17.281  18.030  1.00  0.00     0.274 HD
ATOM     41  H62 UNL     1      11.053  18.606  17.696  1.00  0.00     0.274 HD
ATOM     42  H61 UNL     1      10.185  17.173  17.595  1.00  0.00     0.274 HD
ENDBRANCH  38  39
ENDBRANCH  37  38
ENDBRANCH  36  37
ENDBRANCH  35  36
ENDBRANCH  34  35
ENDBRANCH  30  34
ENDBRANCH  25  26
ENDBRANCH  24  25
ENDBRANCH  22  24
ENDBRANCH   9  21
BRANCH   1  43
HETATM   43  C3  UNL     1      15.228  21.531  15.065  1.00  0.00     0.312 C
HETATM   44  O2  UNL     1      16.254  20.839  15.079  1.00  0.00    -0.258 OA
BRANCH  43  45
HETATM   45  O1  UNL     1      15.469  22.593  14.080  1.00  0.00    -0.317 OA
BRANCH  45  46
HETATM   46  C2  UNL     1      16.783  23.079  13.879  1.00  0.00     0.175 C
HETATM   47  C1  UNL     1      16.644  24.252  12.933  1.00  0.00     0.034 C
ENDBRANCH  45  46
ENDBRANCH  43  45
ENDBRANCH   1  43
TORSDOF 13
ENDMDL