MODEL 4
REMARK VINA RESULT: -9.855013587      1.229      1.508
REMARK  12 active torsions:
REMARK  status: ('A' for Active; 'I' for Inactive)
REMARK    1  A    between atoms: O1_2  and  C2_3
REMARK    2  A    between atoms: C2_3  and  C3_4
REMARK    3  A    between atoms: C3_4  and  O2_5
REMARK    4  A    between atoms: O2_5  and  C4_6
REMARK    5  A    between atoms: C5_9  and  N2_10
REMARK    6  A    between atoms: N2_10  and  C6_12
REMARK    7  A    between atoms: C6_12  and  C7_13
REMARK    8  A    between atoms: C7_13  and  N3_14
REMARK    9  A    between atoms: N5_23  and  C13_25
REMARK   10  A    between atoms: C13_25  and  C14_26
REMARK   11  A    between atoms: C14_26  and  C15_27
REMARK   12  A    between atoms: C21_35  and  C22_36
ROOT
HETATM    1  C4  UNL     1      10.189  18.745  16.224  1.00  0.00     0.175 A
HETATM    2  N1  UNL     1      11.037  19.187  15.238  1.00  0.00    -0.169 N
ATOM      3  H1  UNL     1      11.040  18.717  14.333  1.00  0.00     0.186 HD
HETATM    4  C5  UNL     1      11.857  20.219  15.444  1.00  0.00     0.681 A
HETATM    5  N4  UNL     1      11.812  20.808  16.669  1.00  0.00    -0.176 N
ATOM      6  H4  UNL     1      12.433  21.598  16.843  1.00  0.00     0.186 HD
HETATM    7  C12 UNL     1      11.010  20.418  17.652  1.00  0.00     0.135 A
HETATM    8  N5  UNL     1      10.960  20.959  18.811  1.00  0.00    -0.375 N
ATOM      9  H5  UNL     1      10.306  20.577  19.495  1.00  0.00     0.161 HD
HETATM   10  C21 UNL     1      10.137  19.327  17.447  1.00  0.00     0.104 A
ENDROOT
BRANCH  10  11
HETATM   11  C22 UNL     1       9.206  18.953  18.510  1.00  0.00     0.124 A
HETATM   12  N7  UNL     1       9.500  18.032  19.488  1.00  0.00    -0.340 N
HETATM   13  C23 UNL     1       8.462  17.874  20.314  1.00  0.00     0.062 A
ATOM     14  H7  UNL     1      10.389  17.538  19.570  1.00  0.00     0.167 HD
HETATM   15  C24 UNL     1       8.220  17.099  21.436  1.00  0.00     0.058 A
HETATM   16  C28 UNL     1       7.461  18.705  19.878  1.00  0.00     0.063 A
HETATM   17  C25 UNL     1       7.015  17.141  22.113  1.00  0.00     0.074 A
HETATM   18 CL1  UNL     1       6.799  16.129  23.516  1.00  0.00    -0.081 Cl
HETATM   19  C26 UNL     1       6.007  17.984  21.667  1.00  0.00     0.140 A
HETATM   20  F1  UNL     1       4.828  18.022  22.333  1.00  0.00    -0.204 F
HETATM   21  C27 UNL     1       6.259  18.751  20.552  1.00  0.00     0.075 A
HETATM   22  N8  UNL     1       7.957  19.342  18.779  1.00  0.00    -0.340 N
ATOM     23  H8  UNL     1       7.440  20.029  18.231  1.00  0.00     0.167 HD
ENDBRANCH  10  11
BRANCH   1  24
HETATM   24  O2  UNL     1       9.361  17.646  15.938  1.00  0.00    -0.332 OA
BRANCH  24  25
HETATM   25  C3  UNL     1       9.954  16.764  14.948  1.00  0.00     0.203 C
BRANCH  25  26
HETATM   26  C2  UNL     1       8.954  15.744  14.501  1.00  0.00     0.193 C
BRANCH  26  27
HETATM   27  O1  UNL     1       8.629  14.906  15.530  1.00  0.00    -0.394 OA
HETATM   28  C1  UNL     1       7.315  14.861  15.905  1.00  0.00     0.201 C
ENDBRANCH  26  27
ENDBRANCH  25  26
ENDBRANCH  24  25
ENDBRANCH   1  24
BRANCH   8  29
HETATM   29  C13 UNL     1      11.768  22.060  19.193  1.00  0.00     0.127 C
BRANCH  29  30
HETATM   30  C14 UNL     1      13.056  21.570  19.800  1.00  0.00     0.076 C
BRANCH  30  31
HETATM   31  C15 UNL     1      14.236  22.393  19.435  1.00  0.00     0.011 A
HETATM   32  C16 UNL     1      14.771  22.227  18.181  1.00  0.00     0.025 A
HETATM   33  C17 UNL     1      15.872  22.986  17.828  1.00  0.00     0.004 A
HETATM   34  C18 UNL     1      16.421  23.888  18.716  1.00  0.00     0.024 A
HETATM   35  C19 UNL     1      15.842  24.011  19.959  1.00  0.00     0.005 A
HETATM   36  C20 UNL     1      16.447  24.986  20.900  1.00  0.00     0.068 C
HETATM   37  N6  UNL     1      14.775  23.278  20.304  1.00  0.00    -0.363 N
ATOM     38  H6  UNL     1      14.365  23.387  21.231  1.00  0.00     0.165 HD
ENDBRANCH  30  31
ENDBRANCH  29  30
ENDBRANCH   8  29
BRANCH   4  39
HETATM   39  N2  UNL     1      12.660  20.678  14.571  1.00  0.00    -0.224 N
ATOM     40  H2  UNL     1      12.225  20.960  13.692  1.00  0.00     0.177 HD
BRANCH  39  41
HETATM   41  C6  UNL     1      14.063  20.858  14.626  1.00  0.00     0.168 C
BRANCH  41  42
HETATM   42  C7  UNL     1      14.496  21.936  13.653  1.00  0.00     0.292 C
BRANCH  42  43
HETATM   43  N3  UNL     1      15.799  22.446  13.920  1.00  0.00     0.094 N
HETATM   44  C8  UNL     1      16.175  23.569  13.107  1.00  0.00     0.298 C
HETATM   45  C9  UNL     1      17.471  24.122  13.691  1.00  0.00     0.198 C
HETATM   46  O3  UNL     1      17.798  23.508  14.890  1.00  0.00    -0.388 OA
HETATM   47  C10 UNL     1      18.005  22.148  14.768  1.00  0.00     0.198 C
HETATM   48  C11 UNL     1      16.822  21.465  14.069  1.00  0.00     0.298 C
ENDBRANCH  42  43
ENDBRANCH  41  42
ENDBRANCH  39  41
ENDBRANCH   4  39
TORSDOF 12
ENDMDL