MODEL 2
REMARK VINA RESULT: -8.254591722      2.456      4.158
REMARK  11 active torsions:
REMARK  status: ('A' for Active; 'I' for Inactive)
REMARK    1  A    between atoms: C1_2  and  C2_3
REMARK       I    between atoms: C1_2  and  N3_15
REMARK    2  A    between atoms: C2_3  and  N1_4
REMARK    3  A    between atoms: N3_15  and  C9_17
REMARK    4  A    between atoms: C9_17  and  C10_18
REMARK    5  A    between atoms: C10_18  and  S1_19
REMARK    6  A    between atoms: S1_19  and  S2_20
REMARK    7  A    between atoms: S2_20  and  C11_21
REMARK    8  A    between atoms: C11_21  and  C12_22
REMARK    9  A    between atoms: C12_22  and  N4_23
REMARK       I    between atoms: N4_23  and  C13_25
REMARK   10  A    between atoms: C13_25  and  C14_27
REMARK   11  A    between atoms: C16_29  and  N5_30
ROOT
HETATM    1  S1  UNL     1       8.871  16.034  15.823  1.00  0.00    -0.096 SA
ENDROOT
BRANCH   1   2
HETATM    2  C10 UNL     1       7.469  15.798  14.724  1.00  0.00     0.105 C
BRANCH   2   3
HETATM    3  C9  UNL     1       6.170  16.222  15.325  1.00  0.00     0.133 C
BRANCH   3   4
HETATM    4  N3  UNL     1       6.257  16.970  16.533  1.00  0.00    -0.359 N
HETATM    5  C1  UNL     1       5.093  17.326  17.269  1.00  0.00     0.235 C
HETATM    6  O1  UNL     1       3.975  16.975  16.845  1.00  0.00    -0.272 OA
ATOM      7  H3  UNL     1       7.173  17.256  16.879  1.00  0.00     0.162 HD
BRANCH   5   8
HETATM    8  C2  UNL     1       5.240  18.114  18.536  1.00  0.00     0.228 C
BRANCH   8   9
HETATM    9  N1  UNL     1       6.503  17.877  19.171  1.00  0.00    -0.341 N
HETATM   10  C3  UNL     1       6.715  16.794  20.146  1.00  0.00     0.129 C
HETATM   11  C4  UNL     1       7.579  17.549  21.166  1.00  0.00     0.069 C
HETATM   12  C5  UNL     1       8.438  18.472  20.350  1.00  0.00     0.208 C
HETATM   13  C6  UNL     1       8.652  19.798  21.039  1.00  0.00     0.076 C
HETATM   14  N2  UNL     1       9.841  18.238  20.363  1.00  0.00    -0.057 N
HETATM   15  C8  UNL     1       7.752  18.551  19.045  1.00  0.00     0.256 C
HETATM   16  C7  UNL     1       9.918  19.104  21.549  1.00  0.00     0.237 C
ATOM     17  H22 UNL     1      10.214  17.289  20.381  1.00  0.00     0.278 HD
ATOM     18  H21 UNL     1      10.411  18.426  19.539  1.00  0.00     0.278 HD
HETATM   19  O2  UNL     1       8.113  19.088  17.957  1.00  0.00    -0.271 OA
ENDBRANCH   8   9
ENDBRANCH   5   8
ENDBRANCH   3   4
ENDBRANCH   2   3
ENDBRANCH   1   2
BRANCH   1  20
HETATM   20  S2  UNL     1      10.075  17.666  15.285  1.00  0.00    -0.096 SA
BRANCH  20  21
HETATM   21  C11 UNL     1      11.283  18.121  16.558  1.00  0.00     0.105 C
BRANCH  21  22
HETATM   22  C12 UNL     1      12.383  18.942  15.920  1.00  0.00     0.134 C
BRANCH  22  23
HETATM   23  N4  UNL     1      13.082  19.762  16.859  1.00  0.00    -0.356 N
HETATM   24  C13 UNL     1      13.071  21.183  16.819  1.00  0.00     0.253 C
HETATM   25  O3  UNL     1      12.434  21.799  15.933  1.00  0.00    -0.268 OA
ATOM     26  H4  UNL     1      13.615  19.303  17.597  1.00  0.00     0.162 HD
BRANCH  24  27
HETATM   27  C14 UNL     1      13.805  21.978  17.809  1.00  0.00     0.056 A
HETATM   28  C15 UNL     1      15.017  22.525  17.457  1.00  0.00     0.056 A
HETATM   29  C16 UNL     1      15.767  23.287  18.338  1.00  0.00     0.121 A
HETATM   30  C17 UNL     1      15.266  23.495  19.603  1.00  0.00     0.045 A
HETATM   31 BR1  UNL     1      16.249  24.539  20.867  1.00  0.00    -0.048 Br
HETATM   32  C18 UNL     1      14.041  22.954  19.989  1.00  0.00     0.046 A
HETATM   33  C19 UNL     1      13.322  22.197  19.078  1.00  0.00     0.051 A
HETATM   34 CL1  UNL     1      11.778  21.490  19.495  1.00  0.00    -0.083 Cl
BRANCH  29  35
HETATM   35  N5  UNL     1      17.019  23.852  17.975  1.00  0.00    -0.114 N
HETATM   36  O4  UNL     1      18.102  23.222  18.069  1.00  0.00    -0.532 OA
HETATM   37  O5  UNL     1      17.095  25.149  17.493  1.00  0.00    -0.532 OA
ENDBRANCH  29  35
ENDBRANCH  24  27
ENDBRANCH  22  23
ENDBRANCH  21  22
ENDBRANCH  20  21
ENDBRANCH   1  20
TORSDOF 11
ENDMDL