MODEL 4
REMARK VINA RESULT: -8.363816330      4.833     11.744
REMARK  11 active torsions:
REMARK  status: ('A' for Active; 'I' for Inactive)
REMARK    1  A    between atoms: C5_6  and  O1_7
REMARK    2  A    between atoms: O1_7  and  C6_8
REMARK    3  A    between atoms: C6_8  and  C7_9
REMARK    4  A    between atoms: C7_9  and  N1_10
REMARK    5  A    between atoms: N1_10  and  C8_13
REMARK    6  A    between atoms: C8_13  and  C9_14
REMARK    7  A    between atoms: C9_14  and  C10_15
REMARK    8  A    between atoms: C10_15  and  N2_16
REMARK    9  A    between atoms: N2_16  and  C11_19
REMARK   10  A    between atoms: N4_24  and  C15_25
REMARK   11  A    between atoms: C15_25  and  C16_26
ROOT
HETATM    1  C11 UNL     1       6.696  16.911  17.311  1.00  0.00     0.231 C
HETATM    2  C12 UNL     1       7.555  15.986  18.090  1.00  0.00     0.100 C
HETATM    3  N3  UNL     1       8.221  15.253  18.692  1.00  0.00    -0.195 NA
HETATM    4  C13 UNL     1       5.345  16.954  17.944  1.00  0.00     0.086 C
HETATM    5  C14 UNL     1       4.617  15.681  17.739  1.00  0.00     0.276 C
HETATM    6  N4  UNL     1       4.575  15.137  16.405  1.00  0.00     0.097 N
HETATM    7  C19 UNL     1       5.342  15.850  15.452  1.00  0.00     0.295 C
HETATM    8  C20 UNL     1       6.660  16.386  15.909  1.00  0.00     0.171 C
HETATM    9  C21 UNL     1       7.730  15.413  15.668  1.00  0.00     0.069 C
HETATM   10  N7  UNL     1       8.575  14.635  15.454  1.00  0.00    -0.197 NA
ENDROOT
BRANCH   1  11
HETATM   11  N2  UNL     1       7.316  18.217  17.395  1.00  0.00    -0.052 N
ATOM     12  H22 UNL     1       7.142  18.787  16.567  1.00  0.00     0.279 HD
ATOM     13  H21 UNL     1       8.333  18.173  17.324  1.00  0.00     0.279 HD
BRANCH  11  14
HETATM   14  C10 UNL     1       6.876  18.857  18.608  1.00  0.00     0.236 C
BRANCH  14  15
HETATM   15  C9  UNL     1       7.995  19.729  19.168  1.00  0.00     0.055 C
BRANCH  15  16
HETATM   16  C8  UNL     1       9.052  18.881  19.802  1.00  0.00     0.234 C
BRANCH  16  17
HETATM   17  N1  UNL     1      10.342  19.494  19.795  1.00  0.00    -0.073 N
ATOM     18  H12 UNL     1      10.940  19.077  19.081  1.00  0.00     0.277 HD
ATOM     19  H11 UNL     1      10.872  19.238  20.628  1.00  0.00     0.277 HD
BRANCH  17  20
HETATM   20  C7  UNL     1      10.280  20.926  19.644  1.00  0.00     0.258 C
BRANCH  20  21
HETATM   21  C6  UNL     1      11.459  21.588  19.099  1.00  0.00     0.203 C
BRANCH  21  22
HETATM   22  O1  UNL     1      12.386  21.071  18.277  1.00  0.00    -0.347 OA
BRANCH  22  23
HETATM   23  C5  UNL     1      12.791  21.122  17.010  1.00  0.00     0.103 A
HETATM   24  C4  UNL     1      12.145  20.626  15.926  1.00  0.00     0.046 A
HETATM   25  C3  UNL     1      12.690  20.743  14.628  1.00  0.00     0.028 A
HETATM   26 BR1  UNL     1      10.438  19.788  15.986  1.00  0.00    -0.048 Br
HETATM   27  C2  UNL     1      13.902  21.370  14.423  1.00  0.00    -0.059 A
HETATM   28  C1  UNL     1      14.481  21.507  13.050  1.00  0.00     0.048 C
HETATM   29  C23 UNL     1      14.538  21.865  15.532  1.00  0.00     0.028 A
HETATM   30  C22 UNL     1      14.030  21.763  16.789  1.00  0.00     0.046 A
HETATM   31 BR2  UNL     1      15.008  22.491  18.279  1.00  0.00    -0.048 Br
ENDBRANCH  22  23
ENDBRANCH  21  22
ENDBRANCH  20  21
ENDBRANCH  17  20
ENDBRANCH  16  17
ENDBRANCH  15  16
ENDBRANCH  14  15
ENDBRANCH  11  14
ENDBRANCH   1  11
BRANCH   6  32
HETATM   32  C15 UNL     1       3.246  14.859  15.982  1.00  0.00     0.347 C
BRANCH  32  33
HETATM   33  C16 UNL     1       2.973  13.430  15.808  1.00  0.00     0.101 C
HETATM   34  N5  UNL     1       1.738  13.008  15.590  1.00  0.00    -0.377 N
HETATM   35  C17 UNL     1       1.685  11.595  15.447  1.00  0.00     0.140 C
ATOM     36  H5  UNL     1       0.925  13.621  15.532  1.00  0.00     0.160 HD
HETATM   37  C18 UNL     1       3.005  11.096  15.953  1.00  0.00     0.140 C
HETATM   38  N6  UNL     1       3.823  12.296  15.813  1.00  0.00    -0.377 N
ATOM     39  H6  UNL     1       4.840  12.316  15.732  1.00  0.00     0.160 HD
ENDBRANCH  32  33
ENDBRANCH   6  32
TORSDOF 11
ENDMDL