MODEL 3
REMARK VINA RESULT: -7.842363431      2.133      3.300
REMARK  13 active torsions:
REMARK  status: ('A' for Active; 'I' for Inactive)
REMARK    1  A    between atoms: C3_3  and  C4_4
REMARK    2  A    between atoms: C4_4  and  O1_5
REMARK    3  A    between atoms: O1_5  and  C5_6
REMARK    4  A    between atoms: N1_10  and  C9_12
REMARK    5  A    between atoms: C11_17  and  C12_18
REMARK    6  A    between atoms: C12_18  and  C13_19
REMARK    7  A    between atoms: C18_29  and  O2_30
REMARK    8  A    between atoms: O2_30  and  C19_31
REMARK    9  A    between atoms: C19_31  and  C20_32
REMARK   10  A    between atoms: C20_32  and  O3_33
REMARK   11  A    between atoms: O3_33  and  C21_34
REMARK   12  A    between atoms: C21_34  and  C22_35
REMARK   13  A    between atoms: C22_35  and  N5_36
ROOT
HETATM    1  C1  UNL     1      14.044  22.582  20.081  1.00  0.00     0.112 C
HETATM    2  C2  UNL     1      12.761  21.981  19.703  1.00  0.00    -0.109 C
HETATM    3  C3  UNL     1      11.694  21.475  19.411  1.00  0.00    -0.080 C
ENDROOT
BRANCH   3   4
HETATM    4  C4  UNL     1      10.414  20.835  19.067  1.00  0.00     0.269 C
BRANCH   4   5
HETATM    5  O1  UNL     1      10.150  20.838  17.704  1.00  0.00    -0.337 OA
BRANCH   5   6
HETATM    6  C5  UNL     1      10.192  19.731  16.912  1.00  0.00     0.104 A
HETATM    7  C6  UNL     1       9.226  18.757  16.925  1.00  0.00     0.057 A
HETATM    8  C7  UNL     1       9.347  17.665  16.099  1.00  0.00     0.037 A
HETATM    9  C8  UNL     1       8.342  16.684  16.144  1.00  0.00     0.115 A
HETATM   10  C16 UNL     1      10.428  17.543  15.258  1.00  0.00     0.050 A
HETATM   11  N1  UNL     1       7.372  16.858  16.936  1.00  0.00    -0.369 N
HETATM   12  N3  UNL     1       8.483  15.626  15.333  1.00  0.00    -0.338 N
ATOM     13  H1  UNL     1       7.402  17.716  17.486  1.00  0.00     0.161 HD
HETATM   14  C15 UNL     1       9.527  15.491  14.509  1.00  0.00     0.182 A
ATOM     15  H3  UNL     1       7.768  14.898  15.344  1.00  0.00     0.168 HD
HETATM   16  N4  UNL     1      10.475  16.446  14.486  1.00  0.00    -0.351 N
ATOM     17  H4  UNL     1      11.267  16.331  13.853  1.00  0.00     0.166 HD
HETATM   18  C17 UNL     1      11.396  18.537  15.255  1.00  0.00     0.070 A
HETATM   19  C18 UNL     1      11.323  19.657  16.068  1.00  0.00     0.104 A
BRANCH  11  20
HETATM   20  C9  UNL     1       6.254  16.031  17.163  1.00  0.00     0.111 C
HETATM   21  C10 UNL     1       5.752  16.262  18.597  1.00  0.00     0.258 C
HETATM   22  N2  UNL     1       4.447  15.682  18.540  1.00  0.00    -0.066 N
HETATM   23  C11 UNL     1       3.855  16.160  17.293  1.00  0.00     0.211 C
ATOM     24  H22 UNL     1       4.448  14.665  18.629  1.00  0.00     0.278 HD
ATOM     25  H21 UNL     1       3.877  15.876  19.363  1.00  0.00     0.278 HD
HETATM   26  C14 UNL     1       5.010  16.385  16.367  1.00  0.00     0.064 C
BRANCH  23  27
HETATM   27  C12 UNL     1       2.876  15.174  16.767  1.00  0.00     0.013 C
BRANCH  27  28
HETATM   28  C13 UNL     1       3.208  14.264  15.858  1.00  0.00     0.054 C
HETATM   29 BR1  UNL     1       3.381  12.412  16.246  1.00  0.00    -0.064 Br
ENDBRANCH  27  28
ENDBRANCH  23  27
ENDBRANCH  11  20
BRANCH  19  30
HETATM   30  O2  UNL     1      12.219  20.566  16.061  1.00  0.00    -0.346 OA
BRANCH  30  31
HETATM   31  C19 UNL     1      13.135  21.488  16.026  1.00  0.00     0.202 C
BRANCH  31  32
HETATM   32  C20 UNL     1      14.530  21.153  16.489  1.00  0.00     0.194 C
BRANCH  32  33
HETATM   33  O3  UNL     1      15.579  21.434  15.726  1.00  0.00    -0.384 OA
BRANCH  33  34
HETATM   34  C21 UNL     1      15.492  22.253  14.643  1.00  0.00     0.212 C
BRANCH  34  35
HETATM   35  C22 UNL     1      16.825  22.889  14.284  1.00  0.00     0.089 C
BRANCH  35  36
HETATM   36  N5  UNL     1      17.237  23.875  15.158  1.00  0.00    -0.349 N
HETATM   37  C23 UNL     1      17.533  24.073  16.332  1.00  0.00     0.139 C
HETATM   38  N6  UNL     1      17.574  23.204  17.444  1.00  0.00    -0.370 N
HETATM   39  S1  UNL     1      18.013  25.663  17.032  1.00  0.00    -0.093 SA
HETATM   40  C24 UNL     1      17.090  23.885  18.631  1.00  0.00     0.132 C
ATOM     41  H6  UNL     1      17.896  22.237  17.417  1.00  0.00     0.161 HD
HETATM   42  C25 UNL     1      17.938  25.147  18.799  1.00  0.00     0.102 C
ATOM     43  H5  UNL     1      17.328  24.752  14.644  1.00  0.00     0.167 HD
ENDBRANCH  35  36
ENDBRANCH  34  35
ENDBRANCH  33  34
ENDBRANCH  32  33
ENDBRANCH  31  32
ENDBRANCH  30  31
ENDBRANCH  19  30
ENDBRANCH   5   6
ENDBRANCH   4   5
ENDBRANCH   3   4
TORSDOF 13
ENDMDL