MODEL 4
REMARK VINA RESULT: -8.535623031      5.287     10.523
REMARK  13 active torsions:
REMARK  status: ('A' for Active; 'I' for Inactive)
REMARK    1  A    between atoms: C2_2  and  C3_3
REMARK    2  A    between atoms: C3_3  and  N1_4
REMARK    3  A    between atoms: N1_4  and  C4_6
REMARK    4  A    between atoms: C5_9  and  N3_10
REMARK    5  A    between atoms: N3_10  and  C6_12
REMARK    6  A    between atoms: C6_12  and  C7_13
REMARK    7  A    between atoms: C7_13  and  N4_14
REMARK    8  A    between atoms: N5_17  and  C10_18
REMARK    9  A    between atoms: N7_31  and  C19_33
REMARK   10  A    between atoms: C19_33  and  C20_34
REMARK   11  A    between atoms: C22_36  and  O1_37
REMARK   12  A    between atoms: C24_39  and  O2_40
REMARK   13  A    between atoms: C26_42  and  O3_43
ROOT
HETATM    1  C4  UNL     1      10.016  17.667  16.202  1.00  0.00     0.707 A
HETATM    2  N2  UNL     1      11.141  17.856  16.951  1.00  0.00    -0.022 N
ATOM      3  H2  UNL     1      12.050  17.550  16.600  1.00  0.00     0.203 HD
HETATM    4  C5  UNL     1      11.044  18.442  18.140  1.00  0.00     0.707 A
HETATM    5  N6  UNL     1       9.844  18.863  18.636  1.00  0.00    -0.022 N
ATOM      6  H6  UNL     1       9.801  19.310  19.552  1.00  0.00     0.203 HD
HETATM    7  C18 UNL     1       8.728  18.692  17.927  1.00  0.00     0.707 A
HETATM    8  N7  UNL     1       7.559  19.057  18.308  1.00  0.00    -0.221 N
ATOM      9  H7  UNL     1       6.788  18.867  17.668  1.00  0.00     0.178 HD
HETATM   10  N8  UNL     1       8.850  18.086  16.706  1.00  0.00    -0.022 N
ATOM     11  H8  UNL     1       8.007  17.947  16.149  1.00  0.00     0.203 HD
ENDROOT
BRANCH   4  12
HETATM   12  N3  UNL     1      12.065  18.639  18.862  1.00  0.00    -0.224 N
ATOM     13  H3  UNL     1      12.031  18.233  19.797  1.00  0.00     0.177 HD
BRANCH  12  14
HETATM   14  C6  UNL     1      13.257  19.357  18.539  1.00  0.00     0.158 C
BRANCH  14  15
HETATM   15  C7  UNL     1      12.833  20.676  17.918  1.00  0.00     0.143 C
BRANCH  15  16
HETATM   16  N4  UNL     1      13.798  21.717  18.174  1.00  0.00    -0.376 N
HETATM   17  C8  UNL     1      13.666  22.486  19.395  1.00  0.00     0.143 C
HETATM   18  C9  UNL     1      14.363  23.798  19.355  1.00  0.00     0.143 C
HETATM   19  N5  UNL     1      15.730  23.718  18.841  1.00  0.00    -0.375 N
HETATM   20  C12 UNL     1      15.834  23.012  17.612  1.00  0.00     0.096 A
HETATM   21  C13 UNL     1      16.872  23.301  16.757  1.00  0.00     0.146 A
HETATM   22  C17 UNL     1      14.873  22.034  17.305  1.00  0.00     0.062 A
HETATM   23  F1  UNL     1      17.747  24.245  17.130  1.00  0.00    -0.204 F
HETATM   24  C14 UNL     1      16.993  22.626  15.561  1.00  0.00     0.068 A
HETATM   25  C15 UNL     1      16.051  21.664  15.251  1.00  0.00     0.039 A
HETATM   26 CL1  UNL     1      16.142  20.775  13.758  1.00  0.00    -0.084 Cl
HETATM   27  C16 UNL     1      15.001  21.375  16.121  1.00  0.00     0.055 A
BRANCH  19  28
HETATM   28  C10 UNL     1      16.833  24.300  19.538  1.00  0.00     0.119 C
HETATM   29  C11 UNL     1      16.471  25.074  20.786  1.00  0.00     0.026 C
ENDBRANCH  19  28
ENDBRANCH  15  16
ENDBRANCH  14  15
ENDBRANCH  12  14
ENDBRANCH   4  12
BRANCH   1  30
HETATM   30  N1  UNL     1      10.147  17.103  15.068  1.00  0.00    -0.222 N
ATOM     31  H1  UNL     1      11.088  17.030  14.682  1.00  0.00     0.178 HD
BRANCH  30  32
HETATM   32  C3  UNL     1       9.065  16.563  14.294  1.00  0.00     0.164 C
BRANCH  32  33
HETATM   33  C2  UNL     1       8.767  15.171  14.794  1.00  0.00    -0.017 C
HETATM   34  C1  UNL     1       7.651  14.911  15.432  1.00  0.00     0.008 C
ENDBRANCH  32  33
ENDBRANCH  30  32
ENDBRANCH   1  30
BRANCH   8  35
HETATM   35  C19 UNL     1       7.230  19.703  19.534  1.00  0.00     0.176 C
BRANCH  35  36
HETATM   36  C20 UNL     1       6.202  18.932  20.300  1.00  0.00    -0.035 A
HETATM   37  C21 UNL     1       6.504  18.042  21.298  1.00  0.00     0.048 A
HETATM   38  C22 UNL     1       5.550  17.339  21.998  1.00  0.00     0.104 A
HETATM   39  C24 UNL     1       4.233  17.549  21.674  1.00  0.00     0.135 A
HETATM   40  C26 UNL     1       3.873  18.438  20.674  1.00  0.00     0.104 A
HETATM   41  C28 UNL     1       4.869  19.130  19.988  1.00  0.00     0.048 A
BRANCH  38  42
HETATM   42  O1  UNL     1       5.954  16.463  22.987  1.00  0.00    -0.353 OA
HETATM   43  C23 UNL     1       7.310  16.106  23.117  1.00  0.00     0.210 C
ENDBRANCH  38  42
BRANCH  39  44
HETATM   44  O2  UNL     1       3.234  16.859  22.357  1.00  0.00    -0.351 OA
HETATM   45  C25 UNL     1       2.702  17.469  23.519  1.00  0.00     0.210 C
ENDBRANCH  39  44
BRANCH  40  46
HETATM   46  O3  UNL     1       2.554  18.667  20.330  1.00  0.00    -0.353 OA
HETATM   47  C27 UNL     1       2.142  18.653  18.982  1.00  0.00     0.210 C
ENDBRANCH  40  46
ENDBRANCH  35  36
ENDBRANCH   8  35
TORSDOF 13
ENDMDL