MODEL 2
REMARK VINA RESULT: -8.493258781      3.455     11.147
REMARK  16 active torsions:
REMARK  status: ('A' for Active; 'I' for Inactive)
REMARK    1  A    between atoms: N1_2  and  C3_4
REMARK    2  A    between atoms: C3_4  and  C4_5
REMARK    3  A    between atoms: C4_5  and  N2_6
REMARK    4  A    between atoms: N2_6  and  C6_8
REMARK    5  A    between atoms: C6_8  and  C7_9
REMARK    6  A    between atoms: C7_9  and  N3_10
REMARK       I    between atoms: N3_10  and  C8_12
REMARK       I    between atoms: C8_12  and  N4_14
REMARK    7  A    between atoms: N4_14  and  C9_16
REMARK    8  A    between atoms: C10_21  and  C11_22
REMARK    9  A    between atoms: C11_22  and  C12_23
REMARK   10  A    between atoms: C12_23  and  C13_24
REMARK   11  A    between atoms: C13_24  and  C14_25
REMARK   12  A    between atoms: C14_25  and  C15_26
REMARK   13  A    between atoms: C17_30  and  N8_31
REMARK       I    between atoms: N8_31  and  C18_33
REMARK   14  A    between atoms: C18_33  and  O3_35
REMARK   15  A    between atoms: O3_35  and  C19_36
REMARK   16  A    between atoms: N9_41  and  C23_42
ROOT
HETATM    1  C9  UNL     1      12.510  19.564  18.572  1.00  0.00     0.705 A
HETATM    2  N5  UNL     1      12.983  18.311  18.466  1.00  0.00    -0.130 N
ATOM      3  H5  UNL     1      13.616  17.868  19.131  1.00  0.00     0.205 HD
HETATM    4  N6  UNL     1      12.508  17.739  17.374  1.00  0.00    -0.274 N
ATOM      5  H6  UNL     1      12.709  16.791  17.056  1.00  0.00     0.189 HD
HETATM    6  C10 UNL     1      11.700  18.643  16.749  1.00  0.00     0.116 A
HETATM    7  N9  UNL     1      11.708  19.745  17.484  1.00  0.00    -0.156 N
ENDROOT
BRANCH   6   8
HETATM    8  C11 UNL     1      10.942  18.433  15.482  1.00  0.00     0.079 C
BRANCH   8   9
HETATM    9  C12 UNL     1      11.093  16.968  15.101  1.00  0.00     0.008 C
BRANCH   9  10
HETATM   10  C13 UNL     1       9.992  16.457  14.240  1.00  0.00     0.006 C
BRANCH  10  11
HETATM   11  C14 UNL     1       9.155  15.481  14.995  1.00  0.00     0.048 C
BRANCH  11  12
HETATM   12  C15 UNL     1       8.160  16.164  15.896  1.00  0.00     0.001 A
HETATM   13  C16 UNL     1       6.857  16.482  15.606  1.00  0.00     0.104 A
HETATM   14  N7  UNL     1       6.155  17.073  16.541  1.00  0.00    -0.345 N
HETATM   15  C17 UNL     1       6.740  17.329  17.708  1.00  0.00     0.153 A
ATOM     16  H7  UNL     1       5.182  17.332  16.377  1.00  0.00     0.167 HD
HETATM   17  S1  UNL     1       8.320  16.727  17.495  1.00  0.00    -0.057 SA
BRANCH  15  18
HETATM   18  N8  UNL     1       6.231  17.909  18.773  1.00  0.00    -0.282 N
HETATM   19  C18 UNL     1       6.459  19.273  18.956  1.00  0.00     0.367 C
HETATM   20  O2  UNL     1       5.472  20.051  19.011  1.00  0.00    -0.238 OA
ATOM     21  H8  UNL     1       5.683  17.374  19.447  1.00  0.00     0.173 HD
BRANCH  19  22
HETATM   22  O3  UNL     1       7.724  19.842  19.086  1.00  0.00    -0.294 OA
BRANCH  22  23
HETATM   23  C19 UNL     1       8.434  19.775  20.309  1.00  0.00     0.061 C
HETATM   24  C20 UNL     1       7.466  19.615  21.454  1.00  0.00     0.046 C
HETATM   25  C21 UNL     1       9.119  21.130  20.515  1.00  0.00     0.046 C
HETATM   26  C22 UNL     1       9.455  18.685  20.239  1.00  0.00     0.046 C
ENDBRANCH  22  23
ENDBRANCH  19  22
ENDBRANCH  15  18
ENDBRANCH  11  12
ENDBRANCH  10  11
ENDBRANCH   9  10
ENDBRANCH   8   9
ENDBRANCH   6   8
BRANCH   7  27
HETATM   27  C23 UNL     1      10.983  20.972  17.200  1.00  0.00     0.263 C
HETATM   28 CL1  UNL     1      12.055  22.264  16.623  1.00  0.00    -0.108 Cl
ENDBRANCH   7  27
BRANCH   1  29
HETATM   29  N4  UNL     1      12.697  20.469  19.461  1.00  0.00    -0.140 N
HETATM   30  C8  UNL     1      13.783  21.320  19.617  1.00  0.00     0.334 C
HETATM   31  N3  UNL     1      13.693  22.517  20.367  1.00  0.00    -0.341 N
HETATM   32  O1  UNL     1      14.877  21.026  19.082  1.00  0.00    -0.247 OA
ATOM     33  H3  UNL     1      12.793  22.738  20.795  1.00  0.00     0.164 HD
ATOM     34  H4  UNL     1      11.947  20.579  20.144  1.00  0.00     0.189 HD
BRANCH  31  35
HETATM   35  C7  UNL     1      14.762  23.441  20.570  1.00  0.00     0.154 C
BRANCH  35  36
HETATM   36  C6  UNL     1      14.731  24.531  19.561  1.00  0.00     0.291 C
BRANCH  36  37
HETATM   37  N2  UNL     1      15.733  25.553  19.830  1.00  0.00     0.087 N
HETATM   38  C5  UNL     1      16.620  25.004  20.854  1.00  0.00     0.310 C
BRANCH  37  39
HETATM   39  C4  UNL     1      16.556  25.808  18.671  1.00  0.00     0.302 C
BRANCH  39  40
HETATM   40  C3  UNL     1      17.747  24.846  18.744  1.00  0.00     0.301 C
BRANCH  40  41
HETATM   41  N1  UNL     1      18.132  24.479  17.372  1.00  0.00     0.081 N
HETATM   42  C1  UNL     1      18.097  25.662  16.510  1.00  0.00     0.309 C
HETATM   43  C2  UNL     1      17.128  23.562  16.848  1.00  0.00     0.309 C
ENDBRANCH  40  41
ENDBRANCH  39  40
ENDBRANCH  37  39
ENDBRANCH  36  37
ENDBRANCH  35  36
ENDBRANCH  31  35
ENDBRANCH   1  29
TORSDOF 16
ENDMDL