MODEL 1
REMARK VINA RESULT: -8.857003684      0.000      0.000
REMARK  12 active torsions:
REMARK  status: ('A' for Active; 'I' for Inactive)
REMARK    1  A    between atoms: C2_2  and  N1_3
REMARK    2  A    between atoms: N1_3  and  C3_4
REMARK    3  A    between atoms: N1_3  and  C5_6
REMARK    4  A    between atoms: C5_6  and  C6_7
REMARK    5  A    between atoms: C6_7  and  N2_8
REMARK    6  A    between atoms: N2_8  and  C7_9
REMARK    7  A    between atoms: N2_8  and  C20_34
REMARK    8  A    between atoms: C7_9  and  C8_10
REMARK    9  A    between atoms: C8_10  and  C9_11
REMARK   10  A    between atoms: C9_11  and  O1_12
REMARK   11  A    between atoms: O1_12  and  C10_13
REMARK   12  A    between atoms: N5_29  and  C17_30
ROOT
HETATM    1  C10 UNL     1      13.410  21.820  15.836  1.00  0.00     0.087 A
HETATM    2  C11 UNL     1      12.901  22.493  16.908  1.00  0.00     0.040 A
HETATM    3  C12 UNL     1      13.735  23.138  17.794  1.00  0.00     0.034 A
HETATM    4  C13 UNL     1      15.129  23.120  17.612  1.00  0.00     0.064 A
HETATM    5  C14 UNL     1      15.679  22.449  16.528  1.00  0.00     0.056 A
HETATM    6  C15 UNL     1      14.807  21.812  15.664  1.00  0.00     0.060 A
HETATM    7 BR1  UNL     1      15.372  20.838  14.125  1.00  0.00    -0.047 Br
HETATM    8  C16 UNL     1      17.118  22.400  16.231  1.00  0.00     0.123 C
HETATM    9  N3  UNL     1      17.657  21.840  15.270  1.00  0.00    -0.384 N
ATOM     10  H31 UNL     1      18.655  21.806  15.063  1.00  0.00     0.157 HD
ATOM     11  H32 UNL     1      17.000  21.358  14.656  1.00  0.00     0.157 HD
HETATM   12  N4  UNL     1      18.067  23.096  17.118  1.00  0.00    -0.252 N
ATOM     13  H4  UNL     1      19.053  22.836  17.148  1.00  0.00     0.182 HD
HETATM   14  S1  UNL     1      17.450  24.352  18.092  1.00  0.00     0.328 S
HETATM   15  O2  UNL     1      18.364  24.704  19.200  1.00  0.00    -0.182 OA
HETATM   16  O3  UNL     1      17.266  25.571  17.201  1.00  0.00    -0.182 OA
HETATM   17  N5  UNL     1      15.897  23.793  18.616  1.00  0.00    -0.234 N
ENDROOT
BRANCH   1  18
HETATM   18  O1  UNL     1      12.564  21.166  14.973  1.00  0.00    -0.350 OA
BRANCH  18  19
HETATM   19  C9  UNL     1      11.462  20.441  15.456  1.00  0.00     0.177 C
BRANCH  19  20
HETATM   20  C8  UNL     1      11.860  19.118  16.035  1.00  0.00     0.046 C
BRANCH  20  21
HETATM   21  C7  UNL     1      11.074  17.987  15.471  1.00  0.00     0.128 C
BRANCH  21  22
HETATM   22  N2  UNL     1       9.967  17.627  16.356  1.00  0.00    -0.352 N
BRANCH  22  23
HETATM   23  C6  UNL     1       9.930  18.147  17.674  1.00  0.00     0.156 C
BRANCH  23  24
HETATM   24  C5  UNL     1       8.653  18.859  17.978  1.00  0.00     0.292 C
BRANCH  24  25
HETATM   25  N1  UNL     1       8.883  20.010  18.822  1.00  0.00     0.089 N
BRANCH  25  26
HETATM   26  C2  UNL     1      10.200  20.007  19.324  1.00  0.00     0.268 C
HETATM   27  C1  UNL     1      10.791  21.395  19.572  1.00  0.00     0.037 C
ENDBRANCH  25  26
BRANCH  25  28
HETATM   28  C3  UNL     1       7.876  20.243  19.761  1.00  0.00     0.268 C
HETATM   29  C4  UNL     1       8.009  19.349  21.002  1.00  0.00     0.037 C
ENDBRANCH  25  28
ENDBRANCH  24  25
ENDBRANCH  23  24
ENDBRANCH  22  23
BRANCH  22  30
HETATM   30  C20 UNL     1       8.940  16.738  15.889  1.00  0.00     0.173 C
HETATM   31  N6  UNL     1       8.472  15.675  16.439  1.00  0.00    -0.361 N
HETATM   32  C21 UNL     1       7.440  15.082  15.623  1.00  0.00     0.142 C
ATOM     33  H6  UNL     1       8.789  15.300  17.333  1.00  0.00     0.162 HD
HETATM   34  C22 UNL     1       7.628  15.729  14.275  1.00  0.00     0.142 C
HETATM   35  N7  UNL     1       8.287  16.973  14.653  1.00  0.00    -0.361 N
ATOM     36  H7  UNL     1       8.279  17.848  14.128  1.00  0.00     0.162 HD
ENDBRANCH  22  30
ENDBRANCH  21  22
ENDBRANCH  20  21
ENDBRANCH  19  20
ENDBRANCH  18  19
ENDBRANCH   1  18
BRANCH  17  37
HETATM   37  C17 UNL     1      15.391  23.943  19.927  1.00  0.00     0.126 A
HETATM   38 CL1  UNL     1      14.384  22.551  20.477  1.00  0.00    -0.094 Cl
HETATM   39  C18 UNL     1      15.025  25.324  20.397  1.00  0.00     0.052 A
HETATM   40  C19 UNL     1      16.173  24.597  21.006  1.00  0.00     0.052 A
ENDBRANCH  17  37
TORSDOF 12
ENDMDL