MODEL 2
REMARK VINA RESULT: -7.619051735      3.063      5.433
REMARK  15 active torsions:
REMARK  status: ('A' for Active; 'I' for Inactive)
REMARK    1  A    between atoms: C2_2  and  C3_3
REMARK    2  A    between atoms: C3_3  and  C4_4
REMARK    3  A    between atoms: C4_4  and  C5_5
REMARK    4  A    between atoms: C5_5  and  C6_6
REMARK    5  A    between atoms: C6_6  and  C7_7
REMARK    6  A    between atoms: C8_8  and  C9_9
REMARK    7  A    between atoms: C9_9  and  C10_10
REMARK    8  A    between atoms: C10_10  and  O1_11
REMARK    9  A    between atoms: C10_10  and  C11_13
REMARK   10  A    between atoms: C12_14  and  C13_15
REMARK   11  A    between atoms: C13_15  and  O2_16
REMARK   12  A    between atoms: C13_15  and  C14_19
REMARK   13  A    between atoms: C16_22  and  O4_23
REMARK   14  A    between atoms: C20_29  and  O5_30
REMARK   15  A    between atoms: C21_32  and  O6_33
ROOT
HETATM    1  C14 UNL     1       7.978  18.307  19.845  1.00  0.00     0.122 C
HETATM    2  C15 UNL     1       7.851  17.717  21.253  1.00  0.00     0.164 C
HETATM    3  O3  UNL     1       7.800  18.471  22.187  1.00  0.00    -0.295 OA
HETATM    4  C16 UNL     1       7.786  16.285  21.505  1.00  0.00     0.188 C
HETATM    5  C17 UNL     1       7.653  15.363  20.354  1.00  0.00     0.048 C
HETATM    6  C18 UNL     1       8.013  16.019  19.093  1.00  0.00     0.041 C
HETATM    7  C19 UNL     1       7.289  15.663  17.831  1.00  0.00     0.216 C
HETATM    8  F1  UNL     1       6.230  14.860  18.067  1.00  0.00    -0.246 F
HETATM    9  C20 UNL     1       6.997  17.167  17.679  1.00  0.00     0.159 C
HETATM   10  C21 UNL     1       5.521  17.397  17.925  1.00  0.00     0.229 C
HETATM   11  O7  UNL     1       5.084  18.705  17.758  1.00  0.00    -0.314 OA
HETATM   12  C23 UNL     1       4.486  18.997  18.989  1.00  0.00     0.161 C
HETATM   13  C24 UNL     1       3.174  18.307  19.168  1.00  0.00     0.078 C
HETATM   14  C25 UNL     1       4.275  20.474  19.069  1.00  0.00     0.078 C
HETATM   15  O8  UNL     1       5.383  18.493  19.935  1.00  0.00    -0.344 OA
HETATM   16  C26 UNL     1       5.829  17.271  19.374  1.00  0.00     0.204 C
HETATM   17  C27 UNL     1       7.309  17.355  19.027  1.00  0.00     0.051 C
ENDROOT
BRANCH   1  18
HETATM   18  C13 UNL     1       9.352  18.798  19.654  1.00  0.00     0.144 C
HETATM   19 BR1  UNL     1       9.395  20.738  19.888  1.00  0.00    -0.049 Br
BRANCH  18  20
HETATM   20  C12 UNL     1      10.000  18.480  18.379  1.00  0.00     0.022 C
HETATM   21  C11 UNL     1      11.234  18.549  17.970  1.00  0.00     0.005 C
BRANCH  21  22
HETATM   22  C10 UNL     1      12.482  18.967  18.602  1.00  0.00     0.144 C
BRANCH  22  23
HETATM   23  C9  UNL     1      13.340  19.770  17.672  1.00  0.00     0.062 C
BRANCH  23  24
HETATM   24  C8  UNL     1      13.772  21.029  18.281  1.00  0.00    -0.028 C
HETATM   25  C7  UNL     1      13.195  21.574  19.324  1.00  0.00    -0.031 C
BRANCH  25  26
HETATM   26  C6  UNL     1      13.761  22.870  19.830  1.00  0.00     0.027 C
BRANCH  26  27
HETATM   27  C5  UNL     1      14.028  23.788  18.636  1.00  0.00     0.004 C
BRANCH  27  28
HETATM   28  C4  UNL     1      14.836  24.938  19.138  1.00  0.00     0.000 C
BRANCH  28  29
HETATM   29  C3  UNL     1      15.251  24.804  20.577  1.00  0.00    -0.000 C
BRANCH  29  30
HETATM   30  C2  UNL     1      16.761  24.871  20.720  1.00  0.00    -0.005 C
HETATM   31  C1  UNL     1      17.423  25.083  19.377  1.00  0.00     0.005 C
ENDBRANCH  29  30
ENDBRANCH  28  29
ENDBRANCH  27  28
ENDBRANCH  26  27
ENDBRANCH  25  26
ENDBRANCH  23  24
ENDBRANCH  22  23
BRANCH  22  32
HETATM   32  O1  UNL     1      13.236  17.761  18.818  1.00  0.00    -0.391 OA
ATOM     33  H1  UNL     1      13.241  17.658  19.762  1.00  0.00     0.210 HD
ENDBRANCH  22  32
ENDBRANCH  21  22
ENDBRANCH  18  20
BRANCH  18  34
HETATM   34  O2  UNL     1      10.247  18.359  20.655  1.00  0.00    -0.374 OA
ATOM     35  H2  UNL     1      10.690  17.602  20.289  1.00  0.00     0.212 HD
ENDBRANCH  18  34
ENDBRANCH   1  18
BRANCH   4  36
HETATM   36  O4  UNL     1       6.764  15.948  22.427  1.00  0.00    -0.388 OA
ATOM     37  H4  UNL     1       7.070  15.353  23.102  1.00  0.00     0.210 HD
ENDBRANCH   4  36
BRANCH   9  38
HETATM   38  O5  UNL     1       7.521  17.753  16.582  1.00  0.00    -0.380 OA
ATOM     39  H5  UNL     1       6.890  18.043  15.933  1.00  0.00     0.211 HD
ENDBRANCH   9  38
BRANCH  10  40
HETATM   40  O6  UNL     1       4.640  16.500  17.390  1.00  0.00    -0.355 OA
HETATM   41  C22 UNL     1       4.412  16.658  16.048  1.00  0.00     0.205 C
ENDBRANCH  10  40
TORSDOF 15
ENDMDL