MODEL 5
REMARK VINA RESULT: -7.911066878      2.610      6.529
REMARK  9 active torsions:
REMARK  status: ('A' for Active; 'I' for Inactive)
REMARK    1  A    between atoms: C2_2  and  O1_3
REMARK    2  A    between atoms: O1_3  and  C3_4
REMARK    3  A    between atoms: C3_4  and  C4_6
REMARK    4  A    between atoms: C4_6  and  C5_7
REMARK    5  A    between atoms: C5_7  and  C6_8
REMARK    6  A    between atoms: C7_9  and  C8_10
REMARK    7  A    between atoms: C8_10  and  O3_11
REMARK    8  A    between atoms: C16_21  and  C18_23
REMARK    9  A    between atoms: C18_23  and  O5_24
ROOT
HETATM    1  C8  UNL     1     -25.262  23.125   3.471  1.00  0.00     0.080 C
HETATM    2  C9  UNL     1     -24.980  21.810   4.128  1.00  0.00     0.050 C
HETATM    3  C10 UNL     1     -24.066  21.013   3.232  1.00  0.00     0.082 C
HETATM    4  C11 UNL     1     -23.656  21.749   2.030  1.00  0.00     0.131 C
HETATM    5  O4  UNL     1     -22.504  21.759   1.639  1.00  0.00    -0.298 OA
HETATM    6  C12 UNL     1     -24.636  22.546   1.193  1.00  0.00     0.062 C
HETATM    7  C13 UNL     1     -24.897  21.686   0.003  1.00  0.00     0.013 C
HETATM    8  C14 UNL     1     -25.698  22.368  -1.098  1.00  0.00     0.011 C
HETATM    9  C15 UNL     1     -26.874  22.982  -0.455  1.00  0.00     0.056 C
HETATM   10  C16 UNL     1     -27.994  23.578  -1.170  1.00  0.00     0.086 C
HETATM   11  C17 UNL     1     -29.359  22.911  -0.895  1.00  0.00     0.049 C
HETATM   12  O6  UNL     1     -27.924  24.676  -0.310  1.00  0.00    -0.367 OA
HETATM   13  C19 UNL     1     -26.656  24.293   0.188  1.00  0.00     0.065 C
HETATM   14  C20 UNL     1     -25.653  25.255  -0.295  1.00  0.00     0.046 C
HETATM   15  C21 UNL     1     -26.600  24.079   1.685  1.00  0.00     0.047 C
HETATM   16  C22 UNL     1     -25.803  22.855   2.060  1.00  0.00     0.038 C
ENDROOT
BRANCH   1  17
HETATM   17  C7  UNL     1     -26.200  23.943   4.258  1.00  0.00     0.007 C
HETATM   18  C6  UNL     1     -26.615  23.481   5.427  1.00  0.00    -0.027 C
BRANCH  18  19
HETATM   19  C5  UNL     1     -27.563  24.257   6.271  1.00  0.00     0.037 C
BRANCH  19  20
HETATM   20  C4  UNL     1     -28.851  24.595   5.596  1.00  0.00     0.115 C
BRANCH  20  21
HETATM   21  C3  UNL     1     -29.769  23.459   5.579  1.00  0.00     0.259 C
HETATM   22  O2  UNL     1     -30.640  23.410   6.514  1.00  0.00    -0.265 OA
BRANCH  21  23
HETATM   23  O1  UNL     1     -29.807  22.427   4.669  1.00  0.00    -0.322 OA
BRANCH  23  24
HETATM   24  C2  UNL     1     -29.649  22.629   3.273  1.00  0.00     0.174 C
HETATM   25  C1  UNL     1     -29.009  21.388   2.693  1.00  0.00     0.034 C
ENDBRANCH  23  24
ENDBRANCH  21  23
ENDBRANCH  20  21
ENDBRANCH  19  20
ENDBRANCH  18  19
ENDBRANCH   1  17
BRANCH   1  26
HETATM   26  O3  UNL     1     -24.060  23.866   3.393  1.00  0.00    -0.385 OA
ATOM     27  H3  UNL     1     -24.261  24.735   3.721  1.00  0.00     0.211 HD
ENDBRANCH   1  26
BRANCH  10  28
HETATM   28  C18 UNL     1     -27.917  23.895  -2.614  1.00  0.00     0.202 C
BRANCH  28  29
HETATM   29  O5  UNL     1     -28.971  23.536  -3.401  1.00  0.00    -0.398 OA
ATOM     30  H5  UNL     1     -29.023  23.914  -4.271  1.00  0.00     0.209 HD
ENDBRANCH  28  29
ENDBRANCH  10  28
TORSDOF 9
ENDMDL