MODEL 4
REMARK VINA RESULT: -8.027783268      0.543      1.292
REMARK  7 active torsions:
REMARK  status: ('A' for Active; 'I' for Inactive)
REMARK    1  A    between atoms: C2_2  and  N1_3
REMARK    2  A    between atoms: N1_3  and  C3_4
REMARK    3  A    between atoms: N1_3  and  C5_6
REMARK    4  A    between atoms: C5_6  and  C6_7
REMARK    5  A    between atoms: C6_7  and  C7_8
REMARK    6  A    between atoms: C7_8  and  N2_9
REMARK    7  A    between atoms: C8_10  and  O1_11
ROOT
HETATM    1  N2  UNL     1     -25.821  22.421   3.128  1.00  0.00    -0.326 N
HETATM    2  C8  UNL     1     -26.067  21.984   1.825  1.00  0.00     0.152 A
HETATM    3  C9  UNL     1     -27.224  22.197   1.167  1.00  0.00     0.040 A
HETATM    4  C10 UNL     1     -27.357  21.678  -0.223  1.00  0.00     0.057 C
HETATM    5  C11 UNL     1     -28.252  22.894   1.813  1.00  0.00     0.195 A
HETATM    6  O2  UNL     1     -29.239  23.017   1.104  1.00  0.00    -0.287 OA
HETATM    7  C12 UNL     1     -28.047  23.328   3.076  1.00  0.00     0.060 A
HETATM    8  C13 UNL     1     -29.064  23.992   3.720  1.00  0.00     0.076 A
HETATM    9  C14 UNL     1     -30.243  24.240   3.092  1.00  0.00     0.260 A
HETATM   10  O3  UNL     1     -30.564  23.936   1.954  1.00  0.00    -0.267 OA
HETATM   11  N3  UNL     1     -31.217  24.919   3.801  1.00  0.00    -0.312 N
ATOM     12  H3  UNL     1     -32.107  25.112   3.341  1.00  0.00     0.170 HD
HETATM   13  C15 UNL     1     -31.051  25.327   5.038  1.00  0.00     0.080 A
HETATM   14  C16 UNL     1     -32.133  26.063   5.782  1.00  0.00     0.089 C
HETATM   15  N4  UNL     1     -29.863  25.072   5.656  1.00  0.00    -0.345 N
ATOM     16  H4  UNL     1     -29.730  25.389   6.617  1.00  0.00     0.167 HD
HETATM   17  C17 UNL     1     -28.864  24.421   5.044  1.00  0.00     0.057 A
HETATM   18  C18 UNL     1     -27.674  24.173   5.672  1.00  0.00    -0.026 A
HETATM   19  C19 UNL     1     -27.431  24.598   7.068  1.00  0.00     0.051 C
HETATM   20  C20 UNL     1     -26.605  23.498   5.052  1.00  0.00    -0.026 A
HETATM   21  C21 UNL     1     -25.392  23.193   5.785  1.00  0.00     0.051 C
HETATM   22  C22 UNL     1     -26.799  23.084   3.757  1.00  0.00     0.058 A
ENDROOT
BRANCH   1  23
HETATM   23  C7  UNL     1     -24.537  22.151   3.658  1.00  0.00     0.136 C
BRANCH  23  24
HETATM   24  C6  UNL     1     -24.170  20.673   3.686  1.00  0.00     0.065 C
BRANCH  24  25
HETATM   25  C5  UNL     1     -24.074  20.067   5.050  1.00  0.00     0.069 C
BRANCH  25  26
HETATM   26  N1  UNL     1     -23.785  18.727   5.215  1.00  0.00    -0.355 N
BRANCH  26  27
HETATM   27  C2  UNL     1     -23.058  18.204   6.275  1.00  0.00     0.064 C
HETATM   28  C1  UNL     1     -22.597  19.095   7.371  1.00  0.00     0.055 C
ENDBRANCH  26  27
BRANCH  26  29
HETATM   29  C3  UNL     1     -23.793  17.920   4.059  1.00  0.00     0.064 C
HETATM   30  C4  UNL     1     -22.563  17.126   3.774  1.00  0.00     0.055 C
ENDBRANCH  26  29
ENDBRANCH  25  26
ENDBRANCH  24  25
ENDBRANCH  23  24
ENDBRANCH   1  23
BRANCH   2  31
HETATM   31  O1  UNL     1     -25.042  21.281   1.162  1.00  0.00    -0.345 OA
ATOM     32  H1  UNL     1     -24.240  21.748   0.962  1.00  0.00     0.219 HD
ENDBRANCH   2  31
TORSDOF 7
ENDMDL