MODEL 1
REMARK VINA RESULT: -8.780886731      0.000      0.000
REMARK  6 active torsions:
REMARK  status: ('A' for Active; 'I' for Inactive)
REMARK    1  A    between atoms: C3_3  and  C4_4
REMARK    2  A    between atoms: C12_15  and  C13_16
REMARK    3  A    between atoms: C13_16  and  C14_17
REMARK    4  A    between atoms: C14_17  and  C15_18
REMARK    5  A    between atoms: C15_18  and  C16_19
REMARK    6  A    between atoms: C16_19  and  C17_20
ROOT
HETATM    1  C4  UNL     1     -24.905  21.316   4.602  1.00  0.00     0.065 C
HETATM    2  C5  UNL     1     -25.292  22.078   5.610  1.00  0.00     0.010 C
HETATM    3  C6  UNL     1     -26.293  23.152   5.795  1.00  0.00     0.037 C
HETATM    4  C7  UNL     1     -26.775  23.491   4.363  1.00  0.00     0.031 C
HETATM    5  C8  UNL     1     -25.543  23.892   3.621  1.00  0.00     0.184 A
HETATM    6  O1  UNL     1     -25.693  25.185   2.858  1.00  0.00    -0.348 OA
HETATM    7  C9  UNL     1     -25.452  23.919   2.241  1.00  0.00     0.290 A
HETATM    8  O2  UNL     1     -26.462  23.545   1.415  1.00  0.00    -0.350 OA
HETATM    9  C10 UNL     1     -26.674  22.195   1.443  1.00  0.00     0.164 C
HETATM   10  C11 UNL     1     -27.923  21.798   0.695  1.00  0.00     0.109 C
HETATM   11  S1  UNL     1     -29.246  21.596   1.880  1.00  0.00    -0.161 SA
HETATM   12  C12 UNL     1     -28.945  22.526   3.440  1.00  0.00     0.054 C
HETATM   13  C20 UNL     1     -27.532  22.330   3.818  1.00  0.00     0.038 C
HETATM   14  C21 UNL     1     -26.700  21.561   2.778  1.00  0.00     0.164 C
HETATM   15  O3  UNL     1     -25.419  21.358   3.325  1.00  0.00    -0.343 OA
ENDROOT
BRANCH  12  16
HETATM   16  C13 UNL     1     -29.451  23.887   3.242  1.00  0.00     0.015 C
BRANCH  16  17
HETATM   17  C14 UNL     1     -30.620  24.226   4.137  1.00  0.00     0.001 C
BRANCH  17  18
HETATM   18  C15 UNL     1     -30.349  24.134   5.595  1.00  0.00     0.005 C
BRANCH  18  19
HETATM   19  C16 UNL     1     -30.914  25.344   6.318  1.00  0.00     0.041 C
BRANCH  19  20
HETATM   20  C17 UNL     1     -32.384  25.469   6.177  1.00  0.00    -0.024 A
HETATM   21  C18 UNL     1     -33.368  24.564   6.508  1.00  0.00     0.115 A
HETATM   22  N1  UNL     1     -34.581  25.083   6.212  1.00  0.00    -0.312 N
HETATM   23  N2  UNL     1     -34.379  26.288   5.705  1.00  0.00    -0.312 N
ATOM     24  H1  UNL     1     -35.484  24.630   6.354  1.00  0.00     0.186 HD
HETATM   25  C19 UNL     1     -33.055  26.563   5.666  1.00  0.00     0.115 A
ATOM     26  H2  UNL     1     -35.115  26.919   5.389  1.00  0.00     0.186 HD
ENDBRANCH  19  20
ENDBRANCH  18  19
ENDBRANCH  17  18
ENDBRANCH  16  17
ENDBRANCH  12  16
BRANCH   1  27
HETATM   27  C3  UNL     1     -23.845  20.350   4.868  1.00  0.00     0.032 C
HETATM   28  C2  UNL     1     -23.784  19.738   6.029  1.00  0.00    -0.028 C
HETATM   29  C1  UNL     1     -22.718  18.748   6.331  1.00  0.00     0.036 C
ENDBRANCH   1  27
TORSDOF 6
ENDMDL