MODEL 5
REMARK VINA RESULT: -8.497957521      3.227      6.496
REMARK  9 active torsions:
REMARK  status: ('A' for Active; 'I' for Inactive)
REMARK    1  A    between atoms: C3_3  and  C4_4
REMARK    2  A    between atoms: C6_6  and  O1_7
REMARK    3  A    between atoms: C10_13  and  O3_14
REMARK    4  A    between atoms: C12_17  and  C13_18
REMARK    5  A    between atoms: C13_18  and  O4_19
REMARK    6  A    between atoms: O4_19  and  C14_20
REMARK    7  A    between atoms: C14_20  and  C15_22
REMARK    8  A    between atoms: C15_22  and  C16_23
REMARK    9  A    between atoms: C16_23  and  C17_24
ROOT
HETATM    1  C4  UNL     1     -23.553  24.029  -1.424  1.00  0.00     0.008 C
HETATM    2  C5  UNL     1     -24.249  24.061  -0.314  1.00  0.00    -0.013 C
HETATM    3  C6  UNL     1     -23.790  24.561   0.991  1.00  0.00     0.288 C
HETATM    4  O2  UNL     1     -24.914  24.930   1.706  1.00  0.00    -0.351 OA
HETATM    5  C7  UNL     1     -26.010  24.307   1.166  1.00  0.00     0.146 C
HETATM    6  C8  UNL     1     -26.734  23.519   2.205  1.00  0.00     0.055 C
HETATM    7  C9  UNL     1     -28.168  23.988   2.348  1.00  0.00     0.042 C
HETATM    8  C10 UNL     1     -29.043  22.756   2.339  1.00  0.00     0.121 C
HETATM    9  C11 UNL     1     -28.194  21.641   1.780  1.00  0.00     0.072 C
HETATM   10  C12 UNL     1     -26.753  22.047   2.033  1.00  0.00     0.091 C
HETATM   11  O6  UNL     1     -25.875  21.514   1.137  1.00  0.00    -0.376 OA
HETATM   12  C20 UNL     1     -25.738  22.121  -0.068  1.00  0.00     0.185 C
HETATM   13  C21 UNL     1     -25.646  23.608  -0.081  1.00  0.00     0.032 C
HETATM   14  C22 UNL     1     -26.490  24.077  -1.279  1.00  0.00     0.025 C
ENDROOT
BRANCH  10  15
HETATM   15  C13 UNL     1     -26.405  21.400   3.389  1.00  0.00     0.217 C
BRANCH  15  16
HETATM   16  O4  UNL     1     -25.045  21.665   3.671  1.00  0.00    -0.318 OA
BRANCH  16  17
HETATM   17  C14 UNL     1     -24.061  20.713   3.637  1.00  0.00     0.258 C
HETATM   18  O5  UNL     1     -23.123  20.795   2.817  1.00  0.00    -0.265 OA
BRANCH  17  19
HETATM   19  C15 UNL     1     -24.102  19.570   4.578  1.00  0.00     0.111 C
BRANCH  19  20
HETATM   20  C16 UNL     1     -23.681  19.961   5.962  1.00  0.00     0.013 C
BRANCH  20  21
HETATM   21  C17 UNL     1     -23.289  18.766   6.801  1.00  0.00    -0.022 C
HETATM   22  C18 UNL     1     -22.945  17.553   6.010  1.00  0.00     0.009 C
HETATM   23  C19 UNL     1     -22.123  19.118   7.721  1.00  0.00     0.009 C
ENDBRANCH  20  21
ENDBRANCH  19  20
ENDBRANCH  17  19
ENDBRANCH  16  17
ENDBRANCH  15  16
ENDBRANCH  10  15
BRANCH   8  24
HETATM   24  O3  UNL     1     -30.123  23.047   1.472  1.00  0.00    -0.395 OA
ATOM     25  H3  UNL     1     -30.764  23.513   1.996  1.00  0.00     0.210 HD
ENDBRANCH   8  24
BRANCH   3  26
HETATM   26  O1  UNL     1     -23.151  23.564   1.742  1.00  0.00    -0.367 OA
ATOM     27  H1  UNL     1     -23.758  23.094   2.302  1.00  0.00     0.213 HD
ENDBRANCH   3  26
BRANCH   1  28
HETATM   28  C3  UNL     1     -22.192  24.517  -1.444  1.00  0.00    -0.004 C
HETATM   29  C2  UNL     1     -21.106  23.793  -1.370  1.00  0.00    -0.031 C
HETATM   30  C1  UNL     1     -21.140  22.330  -1.255  1.00  0.00     0.036 C
ENDBRANCH   1  28
TORSDOF 9
ENDMDL