MODEL 1
REMARK VINA RESULT: -7.652115789      0.000      0.000
REMARK  6 active torsions:
REMARK  status: ('A' for Active; 'I' for Inactive)
REMARK    1  A    between atoms: O1_2  and  C2_3
REMARK    2  A    between atoms: C4_5  and  N1_6
REMARK       I    between atoms: N1_6  and  C5_8
REMARK       I    between atoms: C5_8  and  N3_12
REMARK    3  A    between atoms: N3_12  and  C7_14
REMARK    4  A    between atoms: C7_14  and  C8_15
REMARK    5  A    between atoms: C17_26  and  O4_27
REMARK    6  A    between atoms: C19_29  and  O5_30
ROOT
HETATM    1  N1  UNL     1     -25.091  21.695   4.961  1.00  0.00    -0.192 N
ATOM      2  H1  UNL     1     -25.587  21.572   5.844  1.00  0.00     0.184 HD
HETATM    3  C5  UNL     1     -25.452  22.819   4.170  1.00  0.00     0.674 C
HETATM    4  N2  UNL     1     -24.683  23.839   4.273  1.00  0.00    -0.235 N
ATOM      5  H21 UNL     1     -24.942  24.646   3.705  1.00  0.00     0.174 HD
ATOM      6  H22 UNL     1     -23.850  23.861   4.862  1.00  0.00     0.174 HD
HETATM    7  N3  UNL     1     -26.625  22.789   3.342  1.00  0.00    -0.218 N
HETATM    8  C6  UNL     1     -27.233  21.452   3.171  1.00  0.00     0.169 C
ENDROOT
BRANCH   1   9
HETATM    9  C4  UNL     1     -24.114  20.739   4.640  1.00  0.00     0.054 A
HETATM   10  C3  UNL     1     -23.534  20.687   3.393  1.00  0.00     0.069 A
HETATM   11  C2  UNL     1     -22.564  19.713   3.122  1.00  0.00     0.106 A
HETATM   12  C19 UNL     1     -22.187  18.808   4.090  1.00  0.00     0.135 A
HETATM   13  C17 UNL     1     -22.761  18.848   5.348  1.00  0.00     0.106 A
HETATM   14  C16 UNL     1     -23.714  19.804   5.614  1.00  0.00     0.069 A
BRANCH  11  15
HETATM   15  O1  UNL     1     -21.957  19.626   1.887  1.00  0.00    -0.353 OA
HETATM   16  C1  UNL     1     -20.909  20.477   1.527  1.00  0.00     0.210 C
ENDBRANCH  11  15
BRANCH  12  17
HETATM   17  O5  UNL     1     -21.225  17.861   3.778  1.00  0.00    -0.351 OA
HETATM   18  C20 UNL     1     -21.678  16.639   3.220  1.00  0.00     0.210 C
ENDBRANCH  12  17
BRANCH  13  19
HETATM   19  O4  UNL     1     -22.383  17.931   6.341  1.00  0.00    -0.353 OA
HETATM   20  C18 UNL     1     -22.710  18.166   7.701  1.00  0.00     0.210 C
ENDBRANCH  13  19
ENDBRANCH   1   9
BRANCH   7  21
HETATM   21  C7  UNL     1     -27.209  23.928   2.701  1.00  0.00     0.182 C
BRANCH  21  22
HETATM   22  C8  UNL     1     -27.064  24.022   1.247  1.00  0.00    -0.003 A
HETATM   23  C9  UNL     1     -28.077  23.768   0.367  1.00  0.00     0.018 A
HETATM   24  C10 UNL     1     -27.921  23.892  -1.007  1.00  0.00    -0.059 A
HETATM   25  C11 UNL     1     -29.014  23.620  -1.961  1.00  0.00     0.048 C
HETATM   26  C12 UNL     1     -26.677  24.289  -1.458  1.00  0.00     0.046 A
HETATM   27  C13 UNL     1     -25.637  24.551  -0.570  1.00  0.00     0.106 A
HETATM   28  C14 UNL     1     -25.813  24.423   0.774  1.00  0.00     0.113 A
HETATM   29  O3  UNL     1     -24.316  24.958  -0.755  1.00  0.00    -0.323 OA
HETATM   30  O2  UNL     1     -24.618  24.746   1.415  1.00  0.00    -0.322 OA
HETATM   31  C15 UNL     1     -23.591  24.734   0.437  1.00  0.00     0.352 C
ENDBRANCH  21  22
ENDBRANCH   7  21
TORSDOF 6
ENDMDL