MODEL 3
REMARK VINA RESULT: -7.712618306      2.195      7.333
REMARK  8 active torsions:
REMARK  status: ('A' for Active; 'I' for Inactive)
REMARK    1  A    between atoms: C2_2  and  N1_3
REMARK    2  A    between atoms: N1_3  and  C3_4
REMARK    3  A    between atoms: N1_3  and  C5_6
REMARK    4  A    between atoms: C5_6  and  C6_7
REMARK    5  A    between atoms: C7_8  and  O1_9
REMARK    6  A    between atoms: C14_18  and  C15_19
REMARK    7  A    between atoms: C21_25  and  O4_26
REMARK    8  A    between atoms: C22_28  and  N2_29
ROOT
HETATM    1  C6  UNL     1     -23.223  20.364   3.971  1.00  0.00     0.040 A
HETATM    2  C7  UNL     1     -22.785  20.548   2.652  1.00  0.00     0.086 A
HETATM    3  C9  UNL     1     -23.317  21.565   1.909  1.00  0.00    -0.013 A
HETATM    4  C10 UNL     1     -24.289  22.450   2.391  1.00  0.00    -0.006 A
HETATM    5  C11 UNL     1     -24.716  22.275   3.682  1.00  0.00     0.113 A
HETATM    6  C12 UNL     1     -24.176  21.235   4.452  1.00  0.00     0.116 A
HETATM    7  O2  UNL     1     -24.804  21.327   5.696  1.00  0.00    -0.322 OA
HETATM    8  C13 UNL     1     -25.601  22.478   5.808  1.00  0.00     0.352 C
HETATM    9  O3  UNL     1     -25.647  22.947   4.501  1.00  0.00    -0.322 OA
HETATM   10  C14 UNL     1     -24.642  23.405   1.323  1.00  0.00     0.063 C
HETATM   11  C22 UNL     1     -23.333  23.416   0.531  1.00  0.00     0.197 C
HETATM   12  C23 UNL     1     -22.939  21.943   0.512  1.00  0.00     0.075 C
ENDROOT
BRANCH  10  13
HETATM   13  C15 UNL     1     -25.760  22.923   0.398  1.00  0.00     0.052 C
HETATM   14  C16 UNL     1     -25.792  23.696  -0.840  1.00  0.00    -0.019 C
HETATM   15  C17 UNL     1     -26.890  24.106  -1.404  1.00  0.00    -0.003 C
HETATM   16  C18 UNL     1     -28.225  23.852  -0.867  1.00  0.00     0.005 C
HETATM   17  C19 UNL     1     -28.246  23.175   0.264  1.00  0.00    -0.055 C
HETATM   18  C20 UNL     1     -29.581  22.843   0.911  1.00  0.00     0.046 C
HETATM   19  C21 UNL     1     -27.073  22.756   1.045  1.00  0.00     0.155 C
BRANCH  19  20
HETATM   20  O4  UNL     1     -27.325  21.418   1.415  1.00  0.00    -0.391 OA
ATOM     21  H4  UNL     1     -26.551  20.985   1.756  1.00  0.00     0.210 HD
ENDBRANCH  19  20
ENDBRANCH  10  13
BRANCH  11  22
HETATM   22  N2  UNL     1     -22.332  24.208   1.179  1.00  0.00    -0.074 N
ATOM     23  H23 UNL     1     -22.651  25.165   1.327  1.00  0.00     0.274 HD
ATOM     24  H22 UNL     1     -22.209  23.930   2.153  1.00  0.00     0.274 HD
ATOM     25  H21 UNL     1     -21.447  24.185   0.671  1.00  0.00     0.274 HD
ENDBRANCH  11  22
BRANCH   2  26
HETATM   26  O1  UNL     1     -21.811  19.676   2.133  1.00  0.00    -0.355 OA
HETATM   27  C8  UNL     1     -20.465  20.151   2.109  1.00  0.00     0.210 C
ENDBRANCH   2  26
BRANCH   1  28
HETATM   28  C5  UNL     1     -22.609  19.294   4.780  1.00  0.00     0.316 C
BRANCH  28  29
HETATM   29  N1  UNL     1     -23.566  18.306   5.243  1.00  0.00     0.092 N
BRANCH  29  30
HETATM   30  C2  UNL     1     -23.082  17.748   6.532  1.00  0.00     0.268 C
HETATM   31  C1  UNL     1     -22.611  18.863   7.413  1.00  0.00     0.037 C
ENDBRANCH  29  30
BRANCH  29  32
HETATM   32  C3  UNL     1     -23.387  17.180   4.291  1.00  0.00     0.268 C
HETATM   33  C4  UNL     1     -21.961  16.897   3.984  1.00  0.00     0.037 C
ENDBRANCH  29  32
ENDBRANCH  28  29
ENDBRANCH   1  28
TORSDOF 8
ENDMDL