MODEL 2
REMARK VINA RESULT: -7.568629043      2.262      4.815
REMARK  7 active torsions:
REMARK  status: ('A' for Active; 'I' for Inactive)
REMARK    1  A    between atoms: C2_2  and  S1_5
REMARK    2  A    between atoms: S1_5  and  C5_8
REMARK    3  A    between atoms: C5_8  and  C6_9
REMARK    4  A    between atoms: C6_9  and  C7_10
REMARK    5  A    between atoms: C7_10  and  N1_11
REMARK    6  A    between atoms: C11_20  and  C12_21
REMARK    7  A    between atoms: C14_25  and  C15_26
ROOT
HETATM    1  N1  UNL     1     -25.174  22.204   0.944  1.00  0.00    -0.241 NA
HETATM    2  S2  UNL     1     -26.213  23.533   0.327  1.00  0.00    -0.026 SA
HETATM    3  C8  UNL     1     -25.326  24.857   1.179  1.00  0.00     0.075 C
HETATM    4  N2  UNL     1     -25.819  25.933   1.608  1.00  0.00    -0.395 N
ATOM      5  H21 UNL     1     -25.318  26.681   2.088  1.00  0.00     0.156 HD
ATOM      6  H22 UNL     1     -26.762  26.319   1.593  1.00  0.00     0.156 HD
HETATM    7  C9  UNL     1     -23.952  24.294   1.201  1.00  0.00     0.174 C
HETATM    8  C10 UNL     1     -23.212  24.721   0.023  1.00  0.00     0.072 C
HETATM    9  N3  UNL     1     -22.625  25.085  -0.920  1.00  0.00    -0.196 NA
HETATM   10  C11 UNL     1     -23.973  22.861   1.397  1.00  0.00     0.145 C
ENDROOT
BRANCH  10  11
HETATM   11  C12 UNL     1     -22.832  22.223   0.669  1.00  0.00     0.046 A
HETATM   12  C13 UNL     1     -22.866  21.567  -0.545  1.00  0.00     0.116 A
HETATM   13  N4  UNL     1     -21.606  21.152  -0.827  1.00  0.00    -0.353 N
HETATM   14  C14 UNL     1     -20.793  21.536   0.181  1.00  0.00     0.085 A
ATOM     15  H4  UNL     1     -21.320  20.638  -1.660  1.00  0.00     0.166 HD
HETATM   16  N5  UNL     1     -21.560  22.181   1.072  1.00  0.00    -0.346 N
ATOM     17  H5  UNL     1     -21.216  22.587   1.942  1.00  0.00     0.167 HD
BRANCH  14  18
HETATM   18  C15 UNL     1     -19.343  21.249   0.203  1.00  0.00     0.053 A
HETATM   19  C16 UNL     1     -18.879  19.941   0.841  1.00  0.00     0.013 A
HETATM   20  C17 UNL     1     -18.560  21.293   1.441  1.00  0.00     0.013 A
ENDBRANCH  14  18
ENDBRANCH  10  11
BRANCH   1  21
HETATM   21  C7  UNL     1     -25.832  21.697   2.122  1.00  0.00     0.105 C
BRANCH  21  22
HETATM   22  C6  UNL     1     -25.008  21.490   3.329  1.00  0.00     0.030 C
BRANCH  22  23
HETATM   23  C5  UNL     1     -25.104  20.189   4.024  1.00  0.00     0.142 C
BRANCH  23  24
HETATM   24  S1  UNL     1     -23.636  19.199   3.879  1.00  0.00     0.152 S
HETATM   25  O1  UNL     1     -22.694  19.969   2.963  1.00  0.00    -0.227 OA
HETATM   26  O2  UNL     1     -23.911  17.900   3.166  1.00  0.00    -0.227 OA
BRANCH  24  27
HETATM   27  C2  UNL     1     -22.790  18.950   5.391  1.00  0.00     0.053 C
HETATM   28  C1  UNL     1     -21.298  19.010   5.154  1.00  0.00     0.031 C
HETATM   29  C3  UNL     1     -23.057  17.509   5.871  1.00  0.00     0.031 C
HETATM   30  C4  UNL     1     -23.251  19.840   6.517  1.00  0.00     0.031 C
ENDBRANCH  24  27
ENDBRANCH  23  24
ENDBRANCH  22  23
ENDBRANCH  21  22
ENDBRANCH   1  21
TORSDOF 7
ENDMDL