MODEL 5
REMARK VINA RESULT: -6.184050304      2.991      6.071
REMARK  8 active torsions:
REMARK  status: ('A' for Active; 'I' for Inactive)
REMARK    1  A    between atoms: C2_2  and  C3_3
REMARK    2  A    between atoms: C3_3  and  N1_4
REMARK    3  A    between atoms: N2_6  and  C5_7
REMARK    4  A    between atoms: C5_7  and  C8_10
REMARK    5  A    between atoms: C9_16  and  N5_17
REMARK    6  A    between atoms: C10_20  and  C11_21
REMARK    7  A    between atoms: C14_24  and  O2_25
REMARK    8  A    between atoms: C18_29  and  O3_30
ROOT
HETATM    1  N1  UNL     1     -27.425  24.255  -1.090  1.00  0.00     0.126 N
HETATM    2  C4  UNL     1     -27.267  25.314  -0.152  1.00  0.00     0.546 C
HETATM    3  N2  UNL     1     -26.805  24.766   1.131  1.00  0.00     0.143 N
HETATM    4  C10 UNL     1     -27.002  23.319   1.065  1.00  0.00     0.295 C
HETATM    5  C20 UNL     1     -27.022  23.067  -0.473  1.00  0.00     0.259 C
HETATM    6  C21 UNL     1     -28.137  22.009  -0.700  1.00  0.00     0.045 C
ENDROOT
BRANCH   3   7
HETATM    7  C5  UNL     1     -27.610  25.379   2.198  1.00  0.00     0.203 C
HETATM    8  C6  UNL     1     -27.772  26.826   1.862  1.00  0.00     0.056 C
HETATM    9  C7  UNL     1     -28.870  24.582   2.342  1.00  0.00     0.056 C
BRANCH   7  10
HETATM   10  C8  UNL     1     -26.905  25.230   3.517  1.00  0.00     0.117 A
HETATM   11  N3  UNL     1     -25.608  25.194   3.796  1.00  0.00    -0.239 N
HETATM   12  O1  UNL     1     -25.423  25.061   5.064  1.00  0.00    -0.155 OA
ATOM     13  H3  UNL     1     -24.863  25.263   3.103  1.00  0.00     0.196 HD
HETATM   14  N4  UNL     1     -26.536  25.000   5.700  1.00  0.00    -0.224 N
HETATM   15  C9  UNL     1     -27.510  25.104   4.745  1.00  0.00     0.148 A
ATOM     16  H4  UNL     1     -26.667  24.897   6.706  1.00  0.00     0.198 HD
BRANCH  15  17
HETATM   17  N5  UNL     1     -28.735  25.068   5.074  1.00  0.00    -0.382 N
ATOM     18  H52 UNL     1     -29.046  24.466   5.836  1.00  0.00     0.157 HD
ATOM     19  H51 UNL     1     -29.547  25.559   4.697  1.00  0.00     0.157 HD
ENDBRANCH  15  17
ENDBRANCH   7  10
ENDBRANCH   3   7
BRANCH   4  20
HETATM   20  C11 UNL     1     -25.823  22.514   1.508  1.00  0.00     0.011 A
HETATM   21  C12 UNL     1     -24.627  22.555   0.808  1.00  0.00     0.015 A
HETATM   22  C13 UNL     1     -23.483  21.882   1.244  1.00  0.00     0.038 A
HETATM   23  C14 UNL     1     -23.513  21.139   2.402  1.00  0.00     0.076 A
HETATM   24  C16 UNL     1     -24.732  21.118   3.078  1.00  0.00     0.005 A
HETATM   25  C17 UNL     1     -24.794  20.219   4.258  1.00  0.00     0.054 C
HETATM   26  C18 UNL     1     -25.874  21.764   2.692  1.00  0.00     0.085 A
BRANCH  23  27
HETATM   27  O2  UNL     1     -22.435  20.466   2.878  1.00  0.00    -0.355 OA
HETATM   28  C15 UNL     1     -21.426  19.729   2.353  1.00  0.00     0.210 C
ENDBRANCH  23  27
BRANCH  26  29
HETATM   29  O3  UNL     1     -27.051  21.730   3.375  1.00  0.00    -0.355 OA
HETATM   30  C19 UNL     1     -28.249  21.095   3.171  1.00  0.00     0.210 C
ENDBRANCH  26  29
ENDBRANCH   4  20
BRANCH   1  31
HETATM   31  C3  UNL     1     -26.739  24.529  -2.359  1.00  0.00     0.302 C
BRANCH  31  32
HETATM   32  C2  UNL     1     -25.286  24.414  -2.277  1.00  0.00    -0.007 C
HETATM   33  C1  UNL     1     -24.565  23.809  -3.204  1.00  0.00     0.008 C
ENDBRANCH  31  32
ENDBRANCH   1  31
TORSDOF 8
ENDMDL