MODEL 3
REMARK VINA RESULT: -7.611131355      3.198      5.149
REMARK  9 active torsions:
REMARK  status: ('A' for Active; 'I' for Inactive)
REMARK    1  A    between atoms: C2_2  and  C3_3
REMARK    2  A    between atoms: C3_3  and  O1_4
REMARK    3  A    between atoms: O1_4  and  C4_5
REMARK    4  A    between atoms: C4_5  and  C5_7
REMARK    5  A    between atoms: C5_7  and  C6_8
REMARK    6  A    between atoms: C6_8  and  O3_10
REMARK    7  A    between atoms: C6_8  and  C8_12
REMARK    8  A    between atoms: C15_20  and  C16_21
REMARK    9  A    between atoms: C16_21  and  O5_24
ROOT
HETATM    1  C8  UNL     1     -24.624  21.679   2.902  1.00  0.00     0.093 C
HETATM    2  C9  UNL     1     -23.595  21.543   1.856  1.00  0.00     0.044 C
HETATM    3  C10 UNL     1     -23.437  22.985   1.387  1.00  0.00     0.035 C
HETATM    4  C11 UNL     1     -24.420  23.809   2.221  1.00  0.00     0.129 C
HETATM    5  O4  UNL     1     -24.257  22.964   3.379  1.00  0.00    -0.371 OA
HETATM    6  C12 UNL     1     -25.788  23.805   1.909  1.00  0.00     0.050 C
HETATM    7  C13 UNL     1     -26.783  24.826   1.544  1.00  0.00     0.129 C
HETATM    8  C14 UNL     1     -28.141  24.086   1.660  1.00  0.00     0.040 C
HETATM    9  C15 UNL     1     -28.123  22.612   1.800  1.00  0.00     0.026 C
HETATM   10  C19 UNL     1     -26.853  21.844   1.523  1.00  0.00     0.002 C
HETATM   11  C20 UNL     1     -26.021  21.405   2.645  1.00  0.00     0.047 C
HETATM   12  C21 UNL     1     -26.098  22.910   0.759  1.00  0.00     0.023 C
HETATM   13  C22 UNL     1     -26.880  23.692  -0.258  1.00  0.00     0.173 C
HETATM   14  O6  UNL     1     -26.668  25.028   0.156  1.00  0.00    -0.385 OA
ENDROOT
BRANCH   1  15
HETATM   15  C6  UNL     1     -24.181  20.746   4.020  1.00  0.00     0.094 C
HETATM   16  C7  UNL     1     -24.426  21.322   5.382  1.00  0.00     0.049 C
BRANCH  15  17
HETATM   17  C5  UNL     1     -24.719  19.374   3.981  1.00  0.00     0.151 C
BRANCH  17  18
HETATM   18  C4  UNL     1     -23.583  18.409   3.871  1.00  0.00     0.261 C
HETATM   19  O2  UNL     1     -23.363  17.808   2.759  1.00  0.00    -0.265 OA
BRANCH  18  20
HETATM   20  O1  UNL     1     -22.721  18.097   4.888  1.00  0.00    -0.321 OA
BRANCH  20  21
HETATM   21  C3  UNL     1     -23.038  17.399   6.051  1.00  0.00     0.178 C
BRANCH  21  22
HETATM   22  C2  UNL     1     -23.036  18.211   7.301  1.00  0.00     0.022 C
HETATM   23  C1  UNL     1     -21.923  19.256   7.228  1.00  0.00     0.007 C
ENDBRANCH  21  22
ENDBRANCH  20  21
ENDBRANCH  18  20
ENDBRANCH  17  18
ENDBRANCH  15  17
BRANCH  15  24
HETATM   24  O3  UNL     1     -22.779  20.598   3.869  1.00  0.00    -0.387 OA
ATOM     25  H3  UNL     1     -22.407  20.919   4.682  1.00  0.00     0.210 HD
ENDBRANCH  15  24
ENDBRANCH   1  15
BRANCH   9  26
HETATM   26  C16 UNL     1     -28.972  22.084   2.943  1.00  0.00     0.055 C
HETATM   27  C17 UNL     1     -28.220  22.423   4.252  1.00  0.00     0.045 C
HETATM   28  C18 UNL     1     -30.274  22.804   3.017  1.00  0.00     0.045 C
BRANCH  26  29
HETATM   29  O5  UNL     1     -29.060  20.701   3.003  1.00  0.00    -0.390 OA
ATOM     30  H5  UNL     1     -29.450  20.366   3.802  1.00  0.00     0.210 HD
ENDBRANCH  26  29
ENDBRANCH   9  26
TORSDOF 9
ENDMDL