MODEL 4
REMARK VINA RESULT: -8.106044514      2.222      4.724
REMARK  9 active torsions:
REMARK  status: ('A' for Active; 'I' for Inactive)
REMARK    1  A    between atoms: C2_2  and  C3_3
REMARK    2  A    between atoms: C3_3  and  C5_5
REMARK    3  A    between atoms: C5_5  and  C6_6
REMARK    4  A    between atoms: C6_6  and  C7_7
REMARK    5  A    between atoms: C7_7  and  C8_8
REMARK    6  A    between atoms: C10_11  and  O2_12
REMARK    7  A    between atoms: C13_16  and  O3_17
REMARK    8  A    between atoms: O3_17  and  C14_18
REMARK    9  A    between atoms: C22_28  and  O6_29
ROOT
HETATM    1  C8  UNL     1     -24.981  22.065   3.826  1.00  0.00     0.088 C
HETATM    2  C9  UNL     1     -25.777  22.624   4.956  1.00  0.00     0.049 C
HETATM    3  O1  UNL     1     -24.207  23.091   3.313  1.00  0.00    -0.341 OA
HETATM    4  C10 UNL     1     -24.853  23.714   2.307  1.00  0.00     0.176 C
HETATM    5  C11 UNL     1     -23.826  23.788   1.157  1.00  0.00     0.073 C
HETATM    6  C12 UNL     1     -24.686  23.727  -0.048  1.00  0.00     0.053 C
HETATM    7  C13 UNL     1     -25.801  22.682   0.326  1.00  0.00     0.146 C
HETATM    8  C16 UNL     1     -26.933  23.136  -0.536  1.00  0.00     0.163 C
HETATM    9  O5  UNL     1     -26.658  23.356  -1.713  1.00  0.00    -0.295 OA
HETATM   10  C17 UNL     1     -28.317  23.342  -0.120  1.00  0.00     0.082 C
HETATM   11  C18 UNL     1     -28.470  22.912   1.299  1.00  0.00     0.013 C
HETATM   12  C19 UNL     1     -27.343  23.544   2.101  1.00  0.00     0.002 C
HETATM   13  C20 UNL     1     -27.472  25.016   1.914  1.00  0.00     0.011 C
HETATM   14  C21 UNL     1     -26.006  22.922   1.776  1.00  0.00     0.087 C
HETATM   15  C22 UNL     1     -25.885  21.686   2.633  1.00  0.00     0.170 C
ENDROOT
BRANCH   1  16
HETATM   16  C7  UNL     1     -24.041  20.954   4.131  1.00  0.00     0.040 C
BRANCH  16  17
HETATM   17  C6  UNL     1     -24.256  20.115   5.311  1.00  0.00     0.004 C
BRANCH  17  18
HETATM   18  C5  UNL     1     -23.085  19.810   6.194  1.00  0.00     0.008 C
BRANCH  18  19
HETATM   19  C3  UNL     1     -22.625  18.367   6.104  1.00  0.00     0.003 C
HETATM   20  C4  UNL     1     -22.786  17.691   7.442  1.00  0.00     0.014 C
BRANCH  19  21
HETATM   21  C2  UNL     1     -23.377  17.591   5.085  1.00  0.00    -0.033 C
HETATM   22  C1  UNL     1     -22.803  17.107   3.976  1.00  0.00     0.007 C
ENDBRANCH  19  21
ENDBRANCH  18  19
ENDBRANCH  17  18
ENDBRANCH  16  17
ENDBRANCH   1  16
BRANCH  15  23
HETATM   23  O6  UNL     1     -27.053  21.246   3.196  1.00  0.00    -0.391 OA
ATOM     24  H6  UNL     1     -27.664  21.171   2.473  1.00  0.00     0.210 HD
ENDBRANCH  15  23
BRANCH   4  25
HETATM   25  O2  UNL     1     -25.084  25.004   2.674  1.00  0.00    -0.364 OA
ATOM     26  H2  UNL     1     -25.964  25.064   3.029  1.00  0.00     0.213 HD
ENDBRANCH   4  25
BRANCH   7  27
HETATM   27  O3  UNL     1     -25.243  21.501  -0.126  1.00  0.00    -0.301 OA
BRANCH  27  28
HETATM   28  C14 UNL     1     -24.253  21.187  -0.972  1.00  0.00     0.256 C
HETATM   29  C15 UNL     1     -24.424  21.029  -2.458  1.00  0.00     0.126 C
HETATM   30  O4  UNL     1     -23.112  21.007  -0.530  1.00  0.00    -0.266 OA
ENDBRANCH  27  28
ENDBRANCH   7  27
TORSDOF 9
ENDMDL