MODEL 2
REMARK VINA RESULT: -5.133673616      2.007      3.033
REMARK  1 active torsions:
REMARK  status: ('A' for Active; 'I' for Inactive)
REMARK    1  A    between atoms: N1_1  and  C1_4
ROOT
HETATM    1  C1  UNL     1      27.789  66.222  98.280  1.00  0.00     0.714 A
HETATM    2  N2  UNL     1      28.908  65.675  98.789  1.00  0.00    -0.139 N
ATOM      3  H2  UNL     1      28.827  65.109  99.634  1.00  0.00     0.189 HD
HETATM    4  C2  UNL     1      30.133  65.833  98.240  1.00  0.00     0.352 A
HETATM    5  O1  UNL     1      31.153  65.294  98.762  1.00  0.00    -0.246 OA
HETATM    6  N3  UNL     1      30.240  66.576  97.127  1.00  0.00    -0.138 N
ATOM      7  H3  UNL     1      31.150  66.714  96.688  1.00  0.00     0.189 HD
HETATM    8  C3  UNL     1      29.145  67.135  96.597  1.00  0.00     0.734 A
HETATM    9  N4  UNL     1      28.557  67.884  95.658  1.00  0.00    -0.112 N
ATOM     10  H4  UNL     1      28.894  68.387  94.837  1.00  0.00     0.203 HD
HETATM   11  N5  UNL     1      27.366  67.716  96.210  1.00  0.00     0.031 NA
HETATM   12  N6  UNL     1      27.913  66.965  97.165  1.00  0.00     0.106 N
ENDROOT
BRANCH   1  13
HETATM   13  N1  UNL     1      26.619  66.059  98.824  1.00  0.00    -0.232 N
ATOM     14  H12 UNL     1      26.541  65.920  99.831  1.00  0.00     0.174 HD
ATOM     15  H11 UNL     1      25.755  66.061  98.281  1.00  0.00     0.174 HD
ENDBRANCH   1  13
TORSDOF 1
ENDMDL