MODEL 5
REMARK VINA RESULT: -3.237463732      1.217      1.217
REMARK  1 active torsions:
REMARK  status: ('A' for Active; 'I' for Inactive)
REMARK    1  A    between atoms: N1_1  and  C1_4
ROOT
HETATM    1  C1  UNL     1      29.638  67.076  99.447  1.00  0.00     0.695 A
HETATM    2  N2  UNL     1      28.534  66.311  99.524  1.00  0.00    -0.152 N
ATOM      3  H2  UNL     1      28.327  65.821 100.395  1.00  0.00     0.188 HD
HETATM    4  C2  UNL     1      27.698  66.177  98.481  1.00  0.00     0.307 A
HETATM    5  O1  UNL     1      26.686  65.470  98.564  1.00  0.00    -0.263 OA
HETATM    6  C3  UNL     1      27.968  66.839  97.282  1.00  0.00     0.216 A
HETATM    7  N3  UNL     1      27.330  66.894  96.099  1.00  0.00    -0.330 N
ATOM      8  H3  UNL     1      26.462  66.413  95.863  1.00  0.00     0.168 HD
HETATM    9  C4  UNL     1      28.037  67.695  95.282  1.00  0.00     0.201 A
HETATM   10  N4  UNL     1      29.098  68.112  95.997  1.00  0.00    -0.273 N
ATOM     11  H4  UNL     1      29.823  68.737  95.645  1.00  0.00     0.190 HD
HETATM   12  N5  UNL     1      29.075  67.600  97.224  1.00  0.00    -0.159 N
HETATM   13  N6  UNL     1      29.877  67.706  98.282  1.00  0.00    -0.109 N
ATOM     14  H6  UNL     1      30.708  68.292  98.207  1.00  0.00     0.208 HD
ENDROOT
BRANCH   1  15
HETATM   15  N1  UNL     1      30.453  67.207 100.464  1.00  0.00    -0.233 N
ATOM     16  H12 UNL     1      30.485  66.506 101.204  1.00  0.00     0.174 HD
ATOM     17  H11 UNL     1      31.077  68.009 100.547  1.00  0.00     0.174 HD
ENDBRANCH   1  15
TORSDOF 1
ENDMDL