MODEL 2
REMARK VINA RESULT: -5.542718752      1.622      3.026
REMARK  1 active torsions:
REMARK  status: ('A' for Active; 'I' for Inactive)
REMARK    1  A    between atoms: N1_1  and  C1_4
ROOT
HETATM    1  C1  UNL     1      29.732  66.079  98.686  1.00  0.00     0.716 A
HETATM    2  N2  UNL     1      28.980  66.036  99.795  1.00  0.00    -0.117 N
ATOM      3  H2  UNL     1      29.311  65.784 100.726  1.00  0.00     0.206 HD
HETATM    4  N3  UNL     1      27.735  66.375  99.482  1.00  0.00    -0.115 N
ATOM      5  H3  UNL     1      26.954  66.425 100.136  1.00  0.00     0.206 HD
HETATM    6  C2  UNL     1      27.669  66.644  98.161  1.00  0.00     0.737 A
HETATM    7  N4  UNL     1      26.880  67.017  97.133  1.00  0.00    -0.126 N
ATOM      8  H4  UNL     1      25.884  67.228  97.200  1.00  0.00     0.206 HD
HETATM    9  N5  UNL     1      27.603  67.069  96.015  1.00  0.00    -0.236 N
ATOM     10  H5  UNL     1      27.275  67.321  95.082  1.00  0.00     0.192 HD
HETATM   11  C3  UNL     1      28.856  66.720  96.370  1.00  0.00     0.377 A
HETATM   12  O1  UNL     1      29.843  66.651  95.572  1.00  0.00    -0.243 OA
HETATM   13  N6  UNL     1      28.922  66.453  97.683  1.00  0.00     0.081 N
ENDROOT
BRANCH   1  14
HETATM   14  N1  UNL     1      31.001  65.821  98.547  1.00  0.00    -0.232 N
ATOM     15  H12 UNL     1      31.524  65.176  99.139  1.00  0.00     0.174 HD
ATOM     16  H11 UNL     1      31.659  66.193  97.862  1.00  0.00     0.174 HD
ENDBRANCH   1  14
TORSDOF 1
ENDMDL