MODEL 4
REMARK VINA RESULT: -4.352567910      2.191      3.483
REMARK  1 active torsions:
REMARK  status: ('A' for Active; 'I' for Inactive)
REMARK    1  A    between atoms: N1_1  and  C1_4
ROOT
HETATM    1  C1  UNL     1      28.486  68.030  95.829  1.00  0.00     0.693 A
HETATM    2  N2  UNL     1      29.523  67.963  96.675  1.00  0.00    -0.167 N
ATOM      3  H2  UNL     1      30.333  68.584  96.658  1.00  0.00     0.186 HD
HETATM    4  C2  UNL     1      29.339  66.949  97.559  1.00  0.00     0.228 A
HETATM    5  C3  UNL     1      29.857  66.264  98.639  1.00  0.00     0.306 A
HETATM    6  O1  UNL     1      30.957  66.524  99.203  1.00  0.00    -0.263 OA
HETATM    7  N3  UNL     1      28.976  65.300  98.948  1.00  0.00    -0.245 N
ATOM      8  H3  UNL     1      29.062  64.617  99.701  1.00  0.00     0.187 HD
HETATM    9  N4  UNL     1      27.977  65.406  98.090  1.00  0.00     0.006 NA
HETATM   10  N5  UNL     1      28.159  66.393  97.232  1.00  0.00    -0.143 N
HETATM   11  N6  UNL     1      27.644  67.046  96.188  1.00  0.00    -0.111 N
ATOM     12  H6  UNL     1      26.755  66.832  95.736  1.00  0.00     0.207 HD
ENDROOT
BRANCH   1  13
HETATM   13  N1  UNL     1      28.266  68.842  94.845  1.00  0.00    -0.233 N
ATOM     14  H12 UNL     1      28.555  69.820  94.841  1.00  0.00     0.174 HD
ATOM     15  H11 UNL     1      27.799  68.680  93.953  1.00  0.00     0.174 HD
ENDBRANCH   1  13
TORSDOF 1
ENDMDL