MODEL 1
REMARK VINA RESULT: -5.045260422      0.000      0.000
REMARK  1 active torsions:
REMARK  status: ('A' for Active; 'I' for Inactive)
REMARK    1  A    between atoms: N1_1  and  C1_4
ROOT
HETATM    1  C1  UNL     1      27.864  66.861  96.751  1.00  0.00     0.171 C
HETATM    2  N2  UNL     1      26.997  66.816  97.767  1.00  0.00    -0.334 N
ATOM      3  H2  UNL     1      26.044  67.132  97.584  1.00  0.00     0.168 HD
HETATM    4  C2  UNL     1      27.281  66.382  99.031  1.00  0.00     0.200 C
HETATM    5  N3  UNL     1      28.483  66.211  99.612  1.00  0.00    -0.185 N
ATOM      6  H3  UNL     1      28.511  66.248 100.631  1.00  0.00     0.185 HD
HETATM    7  C3  UNL     1      29.649  65.996  98.981  1.00  0.00     0.719 A
HETATM    8  N4  UNL     1      30.927  65.582  99.221  1.00  0.00    -0.113 N
ATOM      9  H4  UNL     1      31.430  65.277 100.054  1.00  0.00     0.203 HD
HETATM   10  N5  UNL     1      31.258  65.733  97.944  1.00  0.00     0.018 NA
HETATM   11  N6  UNL     1      30.024  66.136  97.699  1.00  0.00    -0.027 N
HETATM   12  C4  UNL     1      29.204  66.565  96.697  1.00  0.00     0.324 C
HETATM   13  O1  UNL     1      29.788  66.690  95.603  1.00  0.00    -0.262 OA
ENDROOT
BRANCH   1  14
HETATM   14  N1  UNL     1      27.373  67.246  95.633  1.00  0.00    -0.381 N
ATOM     15  H12 UNL     1      26.354  67.292  95.623  1.00  0.00     0.157 HD
ATOM     16  H11 UNL     1      28.059  67.454  94.906  1.00  0.00     0.157 HD
ENDBRANCH   1  14
TORSDOF 1
ENDMDL