MODEL 3
REMARK VINA RESULT: -4.063626409      1.522      2.068
REMARK  1 active torsions:
REMARK  status: ('A' for Active; 'I' for Inactive)
REMARK    1  A    between atoms: N1_1  and  C1_4
ROOT
HETATM    1  C1  UNL     1      29.147  67.224  99.355  1.00  0.00     0.713 A
HETATM    2  N2  UNL     1      29.884  66.235  99.875  1.00  0.00    -0.185 N
ATOM      3  H2  UNL     1      29.984  66.126 100.883  1.00  0.00     0.185 HD
HETATM    4  C2  UNL     1      30.490  65.390  99.021  1.00  0.00     0.215 A
HETATM    5  N3  UNL     1      30.399  65.481  97.690  1.00  0.00    -0.185 N
ATOM      6  H3  UNL     1      30.879  64.813  97.087  1.00  0.00     0.185 HD
HETATM    7  C3  UNL     1      29.650  66.486  97.159  1.00  0.00     0.723 A
HETATM    8  N4  UNL     1      29.360  66.850  95.900  1.00  0.00    -0.138 N
ATOM      9  H4  UNL     1      29.687  66.385  95.053  1.00  0.00     0.189 HD
HETATM   10  C4  UNL     1      28.565  67.931  95.950  1.00  0.00     0.354 A
HETATM   11  O1  UNL     1      28.071  68.577  94.979  1.00  0.00    -0.245 OA
HETATM   12  N5  UNL     1      28.383  68.211  97.246  1.00  0.00    -0.215 N
ATOM     13  H5  UNL     1      27.821  68.984  97.605  1.00  0.00     0.193 HD
HETATM   14  N6  UNL     1      29.040  67.336  97.996  1.00  0.00     0.094 N
ENDROOT
BRANCH   1  15
HETATM   15  N1  UNL     1      28.547  68.058 100.104  1.00  0.00    -0.232 N
ATOM     16  H12 UNL     1      28.951  68.308 101.007  1.00  0.00     0.174 HD
ATOM     17  H11 UNL     1      27.665  68.483  99.818  1.00  0.00     0.174 HD
ENDBRANCH   1  15
TORSDOF 1
ENDMDL