MODEL 3
REMARK VINA RESULT: -3.163449161      1.218      1.278
REMARK  1 active torsions:
REMARK  status: ('A' for Active; 'I' for Inactive)
REMARK       I    between atoms: C1_4  and  N2_5
REMARK       I    between atoms: C1_4  and  N4_10
REMARK    1  A    between atoms: N2_5  and  N3_7
ROOT
HETATM    1  N1  UNL     1      27.819  67.535  95.571  1.00  0.00    -0.230 N
ATOM      2  H11 UNL     1      27.070  66.913  95.874  1.00  0.00     0.174 HD
ATOM      3  H12 UNL     1      27.772  68.025  94.678  1.00  0.00     0.174 HD
HETATM    4  C1  UNL     1      28.860  67.734  96.299  1.00  0.00     0.726 C
HETATM    5  N2  UNL     1      29.901  68.599  95.878  1.00  0.00    -0.136 N
ATOM      6  H2  UNL     1      30.557  68.993  96.551  1.00  0.00     0.205 HD
HETATM    7  N4  UNL     1      28.926  67.048  97.548  1.00  0.00    -0.017 N
HETATM    8  N5  UNL     1      27.954  67.023  98.421  1.00  0.00    -0.270 N
ATOM      9  H5  UNL     1      27.050  67.484  98.311  1.00  0.00     0.189 HD
HETATM   10  C2  UNL     1      28.327  66.304  99.474  1.00  0.00     0.185 A
HETATM   11  C3  UNL     1      29.602  65.878  99.202  1.00  0.00     0.278 A
HETATM   12  O1  UNL     1      30.274  65.160 100.000  1.00  0.00    -0.265 OA
HETATM   13  N6  UNL     1      29.936  66.359  98.005  1.00  0.00    -0.229 N
ATOM     14  H6  UNL     1      30.826  66.213  97.528  1.00  0.00     0.193 HD
ENDROOT
BRANCH   5  15
HETATM   15  N3  UNL     1      30.006  68.897  94.523  1.00  0.00    -0.331 N
ATOM     16  H32 UNL     1      30.758  68.486  93.970  1.00  0.00     0.177 HD
ATOM     17  H31 UNL     1      29.319  69.527  94.110  1.00  0.00     0.177 HD
ENDBRANCH   5  15
TORSDOF 1
ENDMDL