MODEL 4
REMARK VINA RESULT: -3.448314827      1.867      2.767
REMARK  1 active torsions:
REMARK  status: ('A' for Active; 'I' for Inactive)
REMARK    1  A    between atoms: N1_1  and  C1_4
ROOT
HETATM    1  C1  UNL     1      27.172  66.146  98.572  1.00  0.00     0.694 A
HETATM    2  N2  UNL     1      28.408  66.262  99.083  1.00  0.00    -0.139 N
ATOM      3  H2  UNL     1      28.603  65.834  99.988  1.00  0.00     0.189 HD
HETATM    4  C2  UNL     1      29.403  66.919  98.455  1.00  0.00     0.374 A
HETATM    5  O1  UNL     1      30.534  66.995  98.977  1.00  0.00    -0.244 OA
HETATM    6  N3  UNL     1      29.176  67.496  97.258  1.00  0.00    -0.029 N
HETATM    7  N4  UNL     1      29.959  68.197  96.425  1.00  0.00    -0.270 N
ATOM      8  H4  UNL     1      30.941  68.421  96.585  1.00  0.00     0.189 HD
HETATM    9  C3  UNL     1      29.243  68.557  95.342  1.00  0.00     0.216 A
HETATM   10  N5  UNL     1      28.014  68.062  95.535  1.00  0.00    -0.184 N
ATOM     11  H5  UNL     1      27.236  68.168  94.883  1.00  0.00     0.185 HD
HETATM   12  C4  UNL     1      27.947  67.399  96.717  1.00  0.00     0.723 A
HETATM   13  N6  UNL     1      26.972  66.737  97.367  1.00  0.00    -0.020 N
ATOM     14  H6  UNL     1      26.049  66.676  96.938  1.00  0.00     0.203 HD
ENDROOT
BRANCH   1  15
HETATM   15  N1  UNL     1      26.236  65.515  99.186  1.00  0.00    -0.234 N
ATOM     16  H12 UNL     1      25.927  65.780 100.121  1.00  0.00     0.174 HD
ATOM     17  H11 UNL     1      25.756  64.718  98.769  1.00  0.00     0.174 HD
ENDBRANCH   1  15
TORSDOF 1
ENDMDL