MODEL 1
REMARK VINA RESULT: -4.525510223      0.000      0.000
REMARK  2 active torsions:
REMARK  status: ('A' for Active; 'I' for Inactive)
REMARK    1  A    between atoms: N2_3  and  C2_5
REMARK    2  A    between atoms: C3_8  and  N4_9
ROOT
HETATM    1  N1  UNL     1      28.068  68.773  95.180  1.00  0.00    -0.172 NA
HETATM    2  C1  UNL     1      28.041  67.784  95.782  1.00  0.00     0.183 C
HETATM    3  N2  UNL     1      28.003  66.572  96.510  1.00  0.00    -0.277 N
ATOM      4  H2  UNL     1      27.403  65.802  96.217  1.00  0.00     0.179 HD
ENDROOT
BRANCH   3   5
HETATM    5  C2  UNL     1      28.752  66.472  97.557  1.00  0.00     0.155 A
HETATM    6  N3  UNL     1      29.919  65.805  97.574  1.00  0.00    -0.174 N
HETATM    7  C3  UNL     1      30.690  65.706  98.669  1.00  0.00     0.677 A
ATOM      8  H3  UNL     1      30.233  65.353  96.715  1.00  0.00     0.186 HD
HETATM    9  N5  UNL     1      30.266  66.304  99.796  1.00  0.00    -0.200 N
HETATM   10  C4  UNL     1      29.105  66.988  99.847  1.00  0.00     0.136 A
ATOM     11  H5  UNL     1      30.840  66.240 100.637  1.00  0.00     0.183 HD
HETATM   12  C5  UNL     1      28.299  67.098  98.723  1.00  0.00     0.107 A
HETATM   13  N6  UNL     1      27.081  67.795  98.709  1.00  0.00    -0.097 NA
BRANCH   7  14
HETATM   14  N4  UNL     1      31.799  65.048  98.605  1.00  0.00    -0.234 N
ATOM     15  H42 UNL     1      32.517  65.106  99.326  1.00  0.00     0.174 HD
ATOM     16  H41 UNL     1      31.974  64.441  97.803  1.00  0.00     0.174 HD
ENDBRANCH   7  14
ENDBRANCH   3   5
TORSDOF 2
ENDMDL