MODEL 1
REMARK VINA RESULT: -4.090954384      0.000      0.000
REMARK  1 active torsions:
REMARK  status: ('A' for Active; 'I' for Inactive)
REMARK    1  A    between atoms: N1_1  and  C1_4
ROOT
HETATM    1  C1  UNL     1      30.001  66.108  98.169  1.00  0.00     0.682 A
HETATM    2  N2  UNL     1      28.864  65.790  98.795  1.00  0.00    -0.150 N
ATOM      3  H2  UNL     1      28.940  65.217  99.635  1.00  0.00     0.188 HD
HETATM    4  C2  UNL     1      27.629  66.160  98.415  1.00  0.00     0.307 A
HETATM    5  O1  UNL     1      26.600  65.805  99.083  1.00  0.00    -0.259 OA
HETATM    6  S1  UNL     1      27.578  67.115  97.004  1.00  0.00     0.033 SA
HETATM    7  C3  UNL     1      29.129  67.405  96.363  1.00  0.00     0.307 A
HETATM    8  O2  UNL     1      29.365  68.087  95.318  1.00  0.00    -0.259 OA
HETATM    9  N3  UNL     1      30.125  66.843  97.062  1.00  0.00    -0.150 N
ATOM     10  H3  UNL     1      31.072  66.992  96.714  1.00  0.00     0.188 HD
ENDROOT
BRANCH   1  11
HETATM   11  N1  UNL     1      31.082  65.619  98.747  1.00  0.00    -0.234 N
ATOM     12  H12 UNL     1      30.989  65.066  99.598  1.00  0.00     0.174 HD
ATOM     13  H11 UNL     1      31.949  65.854  98.263  1.00  0.00     0.174 HD
ENDBRANCH   1  11
TORSDOF 1
ENDMDL