MODEL 2
REMARK VINA RESULT: -10.038274017      1.738      2.358
REMARK  14 active torsions:
REMARK  status: ('A' for Active; 'I' for Inactive)
REMARK    1  A    between atoms: N1_2  and  C3_4
REMARK    2  A    between atoms: C4_7  and  N3_8
REMARK    3  A    between atoms: C6_14  and  C7_15
REMARK    4  A    between atoms: C7_15  and  O1_16
REMARK    5  A    between atoms: O1_16  and  C8_17
REMARK    6  A    between atoms: C8_17  and  C9_19
REMARK    7  A    between atoms: C9_19  and  C10_20
REMARK    8  A    between atoms: C9_19  and  N12_42
REMARK    9  A    between atoms: C13_26  and  S1_27
REMARK   10  A    between atoms: S1_27  and  N7_28
REMARK   11  A    between atoms: N7_28  and  C14_30
REMARK   12  A    between atoms: N11_36  and  O3_37
REMARK   13  A    between atoms: N12_42  and  N13_43
REMARK   14  A    between atoms: N12_42  and  N15_48
ROOT
HETATM    1  C9  UNL     1      45.096 -16.530  31.573  1.00  0.00     0.144 C
ENDROOT
BRANCH   1   2
HETATM    2  C8  UNL     1      46.177 -15.499  31.696  1.00  0.00     0.309 C
HETATM    3  O2  UNL     1      46.090 -14.430  32.322  1.00  0.00    -0.258 OA
BRANCH   2   4
HETATM    4  O1  UNL     1      47.368 -15.761  31.056  1.00  0.00    -0.309 OA
BRANCH   4   5
HETATM    5  C7  UNL     1      48.582 -16.133  31.571  1.00  0.00     0.255 C
BRANCH   5   6
HETATM    6  C6  UNL     1      49.367 -15.155  32.321  1.00  0.00     0.109 A
HETATM    7  N4  UNL     1      49.010 -14.795  33.594  1.00  0.00    -0.339 N
HETATM    8  C5  UNL     1      49.784 -13.933  34.277  1.00  0.00     0.111 A
ATOM      9  H4  UNL     1      48.166 -15.178  34.020  1.00  0.00     0.167 HD
HETATM   10  C4  UNL     1      49.469 -13.567  35.567  1.00  0.00     0.144 A
HETATM   11  C23 UNL     1      50.928 -13.404  33.723  1.00  0.00     0.147 A
HETATM   12  N2  UNL     1      50.278 -12.720  36.226  1.00  0.00    -0.175 N
HETATM   13  C3  UNL     1      51.394 -12.208  35.678  1.00  0.00     0.681 A
ATOM     14  H2  UNL     1      50.036 -12.456  37.181  1.00  0.00     0.186 HD
HETATM   15  N18 UNL     1      51.705 -12.562  34.418  1.00  0.00    -0.184 N
ATOM     16  H18 UNL     1      52.547 -12.183  33.984  1.00  0.00     0.184 HD
HETATM   17  C22 UNL     1      51.292 -13.767  32.427  1.00  0.00     0.276 A
HETATM   18  N17 UNL     1      50.479 -14.637  31.783  1.00  0.00    -0.309 N
HETATM   19  O5  UNL     1      52.328 -13.293  31.907  1.00  0.00    -0.266 OA
ATOM     20  H17 UNL     1      50.727 -14.914  30.833  1.00  0.00     0.170 HD
BRANCH  10  21
HETATM   21  N3  UNL     1      48.395 -14.032  36.160  1.00  0.00    -0.383 N
ATOM     22  H32 UNL     1      48.333 -15.010  36.444  1.00  0.00     0.157 HD
ATOM     23  H31 UNL     1      47.610 -13.408  36.344  1.00  0.00     0.157 HD
ENDBRANCH  10  21
BRANCH  13  24
HETATM   24  N1  UNL     1      52.270 -11.342  36.365  1.00  0.00    -0.226 N
HETATM   25  C1  UNL     1      53.098 -10.429  35.620  1.00  0.00     0.168 C
HETATM   26  C2  UNL     1      52.335 -11.375  37.801  1.00  0.00     0.168 C
ENDBRANCH  13  24
ENDBRANCH   5   6
ENDBRANCH   4   5
ENDBRANCH   2   4
ENDBRANCH   1   2
BRANCH   1  27
HETATM   27  C10 UNL     1      43.845 -15.967  31.056  1.00  0.00     0.048 C
HETATM   28  C11 UNL     1      42.831 -15.753  31.939  1.00  0.00     0.062 C
HETATM   29  C12 UNL     1      41.561 -15.216  31.806  1.00  0.00     0.118 C
HETATM   30  N5  UNL     1      40.827 -14.964  32.990  1.00  0.00    -0.083 NA
HETATM   31  N6  UNL     1      40.918 -14.888  30.652  1.00  0.00    -0.338 N
HETATM   32  C13 UNL     1      41.480 -14.676  29.444  1.00  0.00     0.096 C
ATOM     33  H6  UNL     1      39.904 -14.793  30.707  1.00  0.00     0.167 HD
HETATM   34  C15 UNL     1      42.690 -15.182  28.975  1.00  0.00     0.094 C
HETATM   35  C16 UNL     1      43.777 -15.660  29.712  1.00  0.00     0.187 C
HETATM   36  O4  UNL     1      44.799 -15.808  28.997  1.00  0.00    -0.287 OA
BRANCH  32  37
HETATM   37  S1  UNL     1      40.530 -13.614  28.376  1.00  0.00     0.020 SA
BRANCH  37  38
HETATM   38  N7  UNL     1      39.021 -13.109  29.090  1.00  0.00    -0.154 N
ATOM     39  H7  UNL     1      38.130 -13.512  28.801  1.00  0.00     0.193 HD
BRANCH  38  40
HETATM   40  C14 UNL     1      39.095 -12.095  30.109  1.00  0.00     0.744 A
HETATM   41  N8  UNL     1      39.389 -10.803  30.023  1.00  0.00    -0.115 N
HETATM   42  N9  UNL     1      39.328 -10.261  31.212  1.00  0.00    -0.209 N
ATOM     43  H8  UNL     1      39.626 -10.309  29.162  1.00  0.00     0.207 HD
HETATM   44  N10 UNL     1      38.987 -11.221  32.083  1.00  0.00     0.039 NA
ATOM     45  H9  UNL     1      39.509  -9.282  31.437  1.00  0.00     0.206 HD
HETATM   46  N11 UNL     1      38.839 -12.353  31.421  1.00  0.00     0.034 N
BRANCH  46  47
HETATM   47  O3  UNL     1      38.488 -13.580  31.928  1.00  0.00    -0.256 OA
ATOM     48  H3  UNL     1      37.646 -13.790  32.313  1.00  0.00     0.247 HD
ENDBRANCH  46  47
ENDBRANCH  38  40
ENDBRANCH  37  38
ENDBRANCH  32  37
ENDBRANCH   1  27
BRANCH   1  49
HETATM   49  N12 UNL     1      45.090 -17.581  32.460  1.00  0.00    -0.077 NA
BRANCH  49  50
HETATM   50  N13 UNL     1      46.086 -18.498  32.009  1.00  0.00    -0.245 N
HETATM   51  N14 UNL     1      46.117 -18.854  30.825  1.00  0.00    -0.333 N
ATOM     52 2H14 UNL     1      45.419 -18.482  30.181  1.00  0.00     0.178 HD
ATOM     53 1H14 UNL     1      46.828 -19.510  30.501  1.00  0.00     0.178 HD
ATOM     54  H13 UNL     1      46.777 -18.861  32.666  1.00  0.00     0.204 HD
ENDBRANCH  49  50
BRANCH  49  55
HETATM   55  N15 UNL     1      45.234 -17.512  33.800  1.00  0.00    -0.273 N
HETATM   56  C17 UNL     1      46.202 -16.987  34.551  1.00  0.00     0.114 A
HETATM   57  C18 UNL     1      46.217 -16.951  35.933  1.00  0.00     0.045 A
HETATM   58  C19 UNL     1      45.177 -17.486  36.617  1.00  0.00     0.049 A
HETATM   59  N16 UNL     1      45.147 -17.470  38.046  1.00  0.00    -0.102 NA
HETATM   60  C20 UNL     1      44.146 -18.044  35.883  1.00  0.00     0.045 A
HETATM   61  C21 UNL     1      44.184 -18.051  34.511  1.00  0.00     0.114 A
ENDBRANCH  49  55
ENDBRANCH   1  49
TORSDOF 14
ENDMDL