MODEL 5
REMARK VINA RESULT: -9.234724493      3.466      8.919
REMARK  18 active torsions:
REMARK  status: ('A' for Active; 'I' for Inactive)
REMARK    1  A    between atoms: C5_7  and  C6_8
REMARK    2  A    between atoms: C6_8  and  O3_9
REMARK    3  A    between atoms: O3_9  and  S1_10
REMARK    4  A    between atoms: S1_10  and  O6_13
REMARK    5  A    between atoms: O6_13  and  C7_14
REMARK    6  A    between atoms: C8_15  and  O7_16
REMARK    7  A    between atoms: O7_16  and  S2_17
REMARK    8  A    between atoms: C10_22  and  C11_23
REMARK    9  A    between atoms: C11_23  and  O11_24
REMARK   10  A    between atoms: C11_23  and  C12_26
REMARK   11  A    between atoms: C12_26  and  O12_27
REMARK   12  A    between atoms: O12_27  and  N1_28
REMARK   13  A    between atoms: N1_28  and  C13_29
REMARK   14  A    between atoms: C13_29  and  C14_30
REMARK   15  A    between atoms: C16_32  and  O13_33
REMARK   16  A    between atoms: C19_37  and  O14_38
REMARK   17  A    between atoms: C20_40  and  N2_41
REMARK   18  A    between atoms: C22_49  and  O17_50
ROOT
HETATM    1  C7  UNL     1      43.136 -15.729  33.012  1.00  0.00     0.194 C
HETATM    2  C8  UNL     1      41.821 -15.824  33.395  1.00  0.00     0.133 C
HETATM    3  C9  UNL     1      41.135 -14.921  34.228  1.00  0.00     0.055 C
HETATM    4  C10 UNL     1      41.559 -13.716  34.731  1.00  0.00     0.019 C
HETATM    5  C20 UNL     1      42.880 -13.253  34.817  1.00  0.00     0.110 C
HETATM    6  N3  UNL     1      43.971 -13.979  34.535  1.00  0.00    -0.307 N
ATOM      7  H3  UNL     1      44.823 -13.648  34.986  1.00  0.00     0.170 HD
HETATM    8  C21 UNL     1      44.146 -15.085  33.751  1.00  0.00     0.284 C
HETATM    9  O15 UNL     1      45.304 -15.568  33.684  1.00  0.00    -0.265 OA
ENDROOT
BRANCH   1  10
HETATM   10  O6  UNL     1      43.607 -16.261  31.849  1.00  0.00    -0.202 OA
BRANCH  10  11
HETATM   11  S1  UNL     1      43.424 -15.655  30.294  1.00  0.00     0.407 S
HETATM   12  O4  UNL     1      43.763 -14.176  30.302  1.00  0.00    -0.168 OA
HETATM   13  O5  UNL     1      42.039 -15.779  29.739  1.00  0.00    -0.168 OA
BRANCH  11  14
HETATM   14  O3  UNL     1      44.483 -16.389  29.207  1.00  0.00    -0.249 OA
BRANCH  14  15
HETATM   15  C6  UNL     1      45.379 -17.218  29.883  1.00  0.00     0.253 C
BRANCH  15  16
HETATM   16  C5  UNL     1      46.558 -16.416  30.349  1.00  0.00     0.294 C
HETATM   17  O2  UNL     1      47.285 -15.834  29.316  1.00  0.00    -0.321 OA
HETATM   18  C4  UNL     1      48.612 -15.826  29.747  1.00  0.00     0.359 C
HETATM   19  O1  UNL     1      48.853 -14.803  30.658  1.00  0.00    -0.318 OA
HETATM   20  C22 UNL     1      48.677 -17.057  30.594  1.00  0.00     0.338 C
HETATM   21  C2  UNL     1      49.457 -15.362  31.767  1.00  0.00     0.166 C
HETATM   22  C1  UNL     1      50.822 -14.713  31.996  1.00  0.00     0.078 C
HETATM   23  C3  UNL     1      48.637 -15.169  33.011  1.00  0.00     0.078 C
HETATM   24  O18 UNL     1      49.632 -16.707  31.542  1.00  0.00    -0.292 OA
HETATM   25  O16 UNL     1      47.410 -17.185  31.098  1.00  0.00    -0.296 OA
BRANCH  20  26
HETATM   26  O17 UNL     1      49.067 -18.131  29.800  1.00  0.00    -0.339 OA
ATOM     27  H17 UNL     1      49.836 -17.882  29.302  1.00  0.00     0.215 HD
ENDBRANCH  20  26
ENDBRANCH  15  16
ENDBRANCH  14  15
ENDBRANCH  11  14
ENDBRANCH  10  11
ENDBRANCH   1  10
BRANCH   2  28
HETATM   28  O7  UNL     1      41.133 -16.907  32.916  1.00  0.00    -0.211 OA
BRANCH  28  29
HETATM   29  S2  UNL     1      41.091 -18.472  33.483  1.00  0.00     0.257 S
HETATM   30  O8  UNL     1      42.222 -18.876  34.354  1.00  0.00    -0.572 OA
HETATM   31  O9  UNL     1      41.053 -19.476  32.340  1.00  0.00    -0.572 OA
HETATM   32  O10 UNL     1      39.634 -18.722  34.326  1.00  0.00    -0.572 OA
ENDBRANCH  28  29
ENDBRANCH   2  28
BRANCH   4  33
HETATM   33  C11 UNL     1      40.565 -12.791  35.251  1.00  0.00     0.182 C
BRANCH  33  34
HETATM   34  O11 UNL     1      40.680 -12.689  36.659  1.00  0.00    -0.389 OA
ATOM     35  H11 UNL     1      39.822 -12.578  37.052  1.00  0.00     0.210 HD
ENDBRANCH  33  34
BRANCH  33  36
HETATM   36  C12 UNL     1      39.151 -13.003  34.881  1.00  0.00     0.254 C
BRANCH  36  37
HETATM   37  O12 UNL     1      38.581 -12.070  34.018  1.00  0.00    -0.207 OA
BRANCH  37  38
HETATM   38  N1  UNL     1      38.891 -11.604  32.899  1.00  0.00    -0.293 NA
BRANCH  38  39
HETATM   39  C13 UNL     1      39.182 -11.160  31.829  1.00  0.00     0.232 C
BRANCH  39  40
HETATM   40  C14 UNL     1      39.461 -11.854  30.547  1.00  0.00     0.031 A
HETATM   41  C15 UNL     1      39.832 -11.126  29.437  1.00  0.00     0.053 A
HETATM   42  C16 UNL     1      40.100 -11.744  28.241  1.00  0.00     0.066 A
HETATM   43  C17 UNL     1      40.004 -13.092  28.124  1.00  0.00     0.039 A
HETATM   44  C18 UNL     1      39.636 -13.849  29.213  1.00  0.00     0.040 A
HETATM   45  C19 UNL     1      39.363 -13.224  30.429  1.00  0.00     0.078 A
BRANCH  42  46
HETATM   46  O13 UNL     1      40.477 -10.993  27.117  1.00  0.00    -0.361 OA
ATOM     47  H13 UNL     1      41.312 -11.146  26.690  1.00  0.00     0.217 HD
ENDBRANCH  42  46
BRANCH  45  48
HETATM   48  O14 UNL     1      38.991 -13.984  31.533  1.00  0.00    -0.360 OA
ATOM     49  H14 UNL     1      38.161 -14.446  31.526  1.00  0.00     0.217 HD
ENDBRANCH  45  48
ENDBRANCH  39  40
ENDBRANCH  38  39
ENDBRANCH  37  38
ENDBRANCH  36  37
ENDBRANCH  33  36
ENDBRANCH   4  33
BRANCH   5  50
HETATM   50  N2  UNL     1      43.027 -12.020  35.203  1.00  0.00    -0.385 N
ATOM     51  H22 UNL     1      43.561 -11.828  36.050  1.00  0.00     0.157 HD
ATOM     52  H21 UNL     1      42.586 -11.312  34.615  1.00  0.00     0.157 HD
ENDBRANCH   5  50
TORSDOF 18
ENDMDL