MODEL 5
REMARK VINA RESULT: -9.015121007      3.203      9.773
REMARK  15 active torsions:
REMARK  status: ('A' for Active; 'I' for Inactive)
REMARK    1  A    between atoms: N1_2  and  C2_4
REMARK    2  A    between atoms: C2_4  and  O1_5
REMARK    3  A    between atoms: C2_4  and  C3_7
REMARK    4  A    between atoms: C4_8  and  O2_9
REMARK    5  A    between atoms: C5_11  and  C6_12
REMARK    6  A    between atoms: C6_12  and  O3_13
REMARK    7  A    between atoms: C6_12  and  N2_15
REMARK    8  A    between atoms: N2_15  and  C7_17
REMARK    9  A    between atoms: C9_21  and  C10_22
REMARK   10  A    between atoms: C11_25  and  C12_26
REMARK   11  A    between atoms: C12_26  and  N4_27
REMARK   12  A    between atoms: C19_42  and  N9_43
REMARK   13  A    between atoms: C20_49  and  S2_50
REMARK   14  A    between atoms: S2_50  and  C21_51
REMARK   15  A    between atoms: C21_51  and  C22_52
ROOT
HETATM    1  C3  UNL     1      39.207 -12.173  31.334  1.00  0.00     0.077 C
HETATM    2  C4  UNL     1      39.548 -13.320  31.836  1.00  0.00     0.100 C
HETATM    3  C5  UNL     1      40.250 -13.633  33.139  1.00  0.00     0.090 C
HETATM    4  C18 UNL     1      40.331 -12.837  34.179  1.00  0.00     0.135 C
HETATM    5  N7  UNL     1      41.018 -13.279  35.317  1.00  0.00    -0.082 NA
HETATM    6  N8  UNL     1      39.798 -11.488  34.277  1.00  0.00    -0.327 N
ATOM      7  H8  UNL     1      39.475 -11.200  35.200  1.00  0.00     0.168 HD
HETATM    8  C19 UNL     1      39.672 -10.525  33.244  1.00  0.00     0.157 C
HETATM    9  C23 UNL     1      39.418 -10.838  31.979  1.00  0.00     0.109 C
HETATM   10  N13 UNL     1      39.350  -9.722  31.126  1.00  0.00    -0.097 NA
ENDROOT
BRANCH   3  11
HETATM   11  C6  UNL     1      40.868 -14.927  33.160  1.00  0.00     0.153 C
BRANCH  11  12
HETATM   12  O3  UNL     1      40.511 -15.690  34.191  1.00  0.00    -0.346 OA
ATOM     13  H3  UNL     1      40.998 -16.503  34.265  1.00  0.00     0.219 HD
ENDBRANCH  11  12
BRANCH  11  14
HETATM   14  N2  UNL     1      41.769 -15.571  32.337  1.00  0.00    -0.354 N
ATOM     15  H2  UNL     1      41.434 -16.260  31.663  1.00  0.00     0.162 HD
BRANCH  14  16
HETATM   16  C7  UNL     1      43.231 -15.269  32.424  1.00  0.00     0.210 C
HETATM   17  C8  UNL     1      43.773 -15.124  31.053  1.00  0.00     0.251 C
HETATM   18  O4  UNL     1      43.444 -14.625  29.947  1.00  0.00    -0.271 OA
HETATM   19  N3  UNL     1      44.929 -15.835  31.495  1.00  0.00    -0.293 N
HETATM   20  C9  UNL     1      46.343 -16.124  31.369  1.00  0.00     0.120 C
HETATM   21  C17 UNL     1      44.108 -16.471  32.484  1.00  0.00     0.187 C
HETATM   22  C11 UNL     1      47.096 -16.150  32.438  1.00  0.00    -0.017 C
HETATM   23  C16 UNL     1      46.540 -15.845  33.815  1.00  0.00     0.114 C
HETATM   24  S1  UNL     1      44.971 -16.726  34.049  1.00  0.00    -0.136 SA
BRANCH  20  25
HETATM   25  C10 UNL     1      46.833 -16.377  30.041  1.00  0.00     0.227 C
HETATM   26  O5  UNL     1      46.999 -15.406  29.222  1.00  0.00    -0.643 OA
HETATM   27  O6  UNL     1      47.157 -17.595  29.530  1.00  0.00    -0.643 OA
ENDBRANCH  20  25
BRANCH  22  28
HETATM   28  C12 UNL     1      48.511 -16.426  32.428  1.00  0.00     0.187 C
BRANCH  28  29
HETATM   29  N4  UNL     1      49.330 -15.278  32.858  1.00  0.00    -0.283 N
HETATM   30  C13 UNL     1      50.396 -14.795  32.154  1.00  0.00     0.138 A
HETATM   31  C14 UNL     1      50.932 -13.713  32.822  1.00  0.00     0.040 A
HETATM   32  C15 UNL     1      52.111 -12.878  32.411  1.00  0.00     0.071 C
HETATM   33  N5  UNL     1      50.165 -13.575  33.921  1.00  0.00    -0.289 N
HETATM   34  N6  UNL     1      49.232 -14.508  33.915  1.00  0.00    -0.240 N
ATOM     35  H5  UNL     1      50.286 -12.863  34.642  1.00  0.00     0.188 HD
ATOM     36  H6  UNL     1      48.524 -14.617  34.642  1.00  0.00     0.208 HD
ENDBRANCH  28  29
ENDBRANCH  22  28
ENDBRANCH  14  16
ENDBRANCH  11  14
ENDBRANCH   3  11
BRANCH   2  37
HETATM   37  O2  UNL     1      39.262 -14.470  31.143  1.00  0.00    -0.358 OA
ATOM     38  H2  UNL     1      39.500 -15.310  31.517  1.00  0.00     0.217 HD
ENDBRANCH   2  37
BRANCH   1  39
HETATM   39  C2  UNL     1      38.539 -12.126  30.053  1.00  0.00     0.150 C
BRANCH  39  40
HETATM   40  N1  UNL     1      38.906 -12.551  28.777  1.00  0.00    -0.375 N
HETATM   41  C1  UNL     1      40.350 -12.627  28.402  1.00  0.00     0.148 C
ATOM     42  H1  UNL     1      38.188 -12.811  28.100  1.00  0.00     0.161 HD
ENDBRANCH  39  40
BRANCH  39  43
HETATM   43  O1  UNL     1      37.346 -11.574  30.100  1.00  0.00    -0.346 OA
ATOM     44  H1  UNL     1      37.285 -10.761  29.614  1.00  0.00     0.219 HD
ENDBRANCH  39  43
ENDBRANCH   1  39
BRANCH   8  45
HETATM   45  N9  UNL     1      39.809  -9.162  33.555  1.00  0.00    -0.201 N
HETATM   46  N10 UNL     1      40.878  -8.425  33.359  1.00  0.00    -0.216 N
HETATM   47  N11 UNL     1      40.654  -7.189  33.769  1.00  0.00    -0.004 NA
ATOM     48  H10 UNL     1      41.751  -8.756  32.950  1.00  0.00     0.206 HD
HETATM   49  N12 UNL     1      39.422  -7.117  34.241  1.00  0.00    -0.261 N
HETATM   50  C20 UNL     1      38.886  -8.370  34.106  1.00  0.00     0.182 A
ATOM     51  H12 UNL     1      38.962  -6.294  34.629  1.00  0.00     0.186 HD
BRANCH  50  52
HETATM   52  S2  UNL     1      37.243  -8.866  34.579  1.00  0.00    -0.080 SA
BRANCH  52  53
HETATM   53  C21 UNL     1      35.995  -7.786  33.875  1.00  0.00     0.195 C
BRANCH  53  54
HETATM   54  C22 UNL     1      35.948  -7.970  32.385  1.00  0.00     0.182 C
HETATM   55  O7  UNL     1      35.573  -6.962  31.725  1.00  0.00    -0.647 OA
HETATM   56  O8  UNL     1      36.294  -9.172  31.784  1.00  0.00    -0.647 OA
ENDBRANCH  53  54
ENDBRANCH  52  53
ENDBRANCH  50  52
ENDBRANCH   8  45
TORSDOF 15
ENDMDL