MODEL 1
REMARK VINA RESULT: -9.174559376      0.000      0.000
REMARK  17 active torsions:
REMARK  status: ('A' for Active; 'I' for Inactive)
REMARK    1  A    between atoms: O1_2  and  N1_3
REMARK    2  A    between atoms: C2_5  and  C3_6
REMARK    3  A    between atoms: C2_5  and  C22_51
REMARK    4  A    between atoms: C3_6  and  O3_8
REMARK    5  A    between atoms: O3_8  and  C4_9
REMARK    6  A    between atoms: C4_9  and  O4_10
REMARK    7  A    between atoms: C4_9  and  C5_12
REMARK    8  A    between atoms: N4_17  and  C6_18
REMARK    9  A    between atoms: C6_18  and  C7_19
REMARK   10  A    between atoms: C7_19  and  N5_20
REMARK   11  A    between atoms: N7_26  and  C12_27
REMARK   12  A    between atoms: C12_27  and  O5_28
REMARK   13  A    between atoms: C12_27  and  C13_30
REMARK   14  A    between atoms: C15_33  and  N8_34
REMARK   15  A    between atoms: C17_40  and  C18_41
REMARK       I    between atoms: C18_41  and  N10_43
REMARK       I    between atoms: N10_43  and  C19_45
REMARK   16  A    between atoms: C21_48  and  O8_49
REMARK   17  A    between atoms: C24_54  and  N11_55
ROOT
HETATM    1  C6  UNL     1      45.291 -15.197  29.111  1.00  0.00     0.197 C
ENDROOT
BRANCH   1   2
HETATM    2  N4  UNL     1      44.177 -14.928  29.939  1.00  0.00    -0.250 N
HETATM    3  N3  UNL     1      44.194 -14.309  31.106  1.00  0.00    -0.238 N
HETATM    4  N2  UNL     1      43.010 -14.235  31.656  1.00  0.00    -0.281 N
ATOM      5  H3  UNL     1      45.039 -13.930  31.532  1.00  0.00     0.208 HD
HETATM    6  C5  UNL     1      42.126 -14.839  30.818  1.00  0.00     0.134 A
ATOM      7  H2  UNL     1      42.790 -13.802  32.552  1.00  0.00     0.188 HD
HETATM    8  C21 UNL     1      42.889 -15.264  29.750  1.00  0.00     0.188 A
BRANCH   6   9
HETATM    9  C4  UNL     1      40.652 -14.992  31.045  1.00  0.00     0.324 C
BRANCH   9  10
HETATM   10  O3  UNL     1      39.919 -14.755  29.858  1.00  0.00    -0.279 OA
BRANCH  10  11
HETATM   11  C3  UNL     1      39.137 -13.581  29.688  1.00  0.00     0.317 C
HETATM   12  O2  UNL     1      38.006 -13.673  30.181  1.00  0.00    -0.257 OA
BRANCH  11  13
HETATM   13  C2  UNL     1      39.713 -12.445  28.990  1.00  0.00     0.156 C
HETATM   14  N1  UNL     1      39.664 -11.344  29.603  1.00  0.00    -0.259 N
ATOM     15  H1  UNL     1      39.218 -11.422  30.516  1.00  0.00     0.194 HD
BRANCH  14  16
HETATM   16  O1  UNL     1      40.058 -10.116  29.334  1.00  0.00    -0.285 OA
HETATM   17  C1  UNL     1      39.442  -9.011  30.014  1.00  0.00     0.237 C
ENDBRANCH  14  16
BRANCH  13  18
HETATM   18  C22 UNL     1      40.332 -12.648  27.655  1.00  0.00     0.075 A
HETATM   19  C23 UNL     1      40.151 -11.680  26.687  1.00  0.00     0.085 A
HETATM   20  S2  UNL     1      40.976 -12.338  25.345  1.00  0.00    -0.064 SA
HETATM   21  C24 UNL     1      41.501 -13.780  26.055  1.00  0.00     0.142 A
HETATM   22  N12 UNL     1      41.024 -13.705  27.301  1.00  0.00    -0.335 N
ATOM     23  H12 UNL     1      41.195 -14.459  27.966  1.00  0.00     0.168 HD
BRANCH  21  24
HETATM   24  N11 UNL     1      42.212 -14.770  25.545  1.00  0.00    -0.380 N
ATOM     25 2H11 UNL     1      42.264 -15.035  24.562  1.00  0.00     0.158 HD
ATOM     26 1H11 UNL     1      42.826 -15.442  26.004  1.00  0.00     0.158 HD
ENDBRANCH  21  24
ENDBRANCH  13  18
ENDBRANCH  11  13
ENDBRANCH  10  11
ENDBRANCH   9  10
BRANCH   9  27
HETATM   27  O4  UNL     1      40.412 -16.310  31.423  1.00  0.00    -0.365 OA
ATOM     28  H4  UNL     1      41.254 -16.747  31.475  1.00  0.00     0.213 HD
ENDBRANCH   9  27
ENDBRANCH   6   9
BRANCH   8  29
HETATM   29  O8  UNL     1      42.368 -15.941  28.649  1.00  0.00    -0.343 OA
ATOM     30  H8  UNL     1      42.781 -15.951  27.794  1.00  0.00     0.219 HD
ENDBRANCH   8  29
ENDBRANCH   1   2
BRANCH   1  31
HETATM   31  C7  UNL     1      46.654 -15.148  29.711  1.00  0.00     0.088 C
BRANCH  31  32
HETATM   32  N5  UNL     1      47.161 -16.291  30.350  1.00  0.00    -0.323 N
HETATM   33  C8  UNL     1      46.537 -17.534  30.147  1.00  0.00     0.097 C
HETATM   34  C9  UNL     1      46.322 -18.078  31.551  1.00  0.00     0.321 C
HETATM   35  N6  UNL     1      47.301 -17.408  32.331  1.00  0.00     0.139 N
HETATM   36  C10 UNL     1      47.040 -17.348  33.737  1.00  0.00     0.297 C
HETATM   37  C17 UNL     1      47.586 -16.142  31.721  1.00  0.00     0.350 C
HETATM   38  C11 UNL     1      46.088 -16.260  34.116  1.00  0.00     0.155 C
HETATM   39  N7  UNL     1      46.626 -15.011  33.732  1.00  0.00    -0.356 N
HETATM   40  C16 UNL     1      46.994 -14.953  32.385  1.00  0.00     0.136 C
BRANCH  39  41
HETATM   41  C12 UNL     1      47.379 -14.314  34.700  1.00  0.00     0.271 C
BRANCH  41  42
HETATM   42  O5  UNL     1      48.554 -15.086  34.923  1.00  0.00    -0.371 OA
ATOM     43  H5  UNL     1      48.652 -15.155  35.865  1.00  0.00     0.212 HD
ENDBRANCH  41  42
BRANCH  41  44
HETATM   44  C13 UNL     1      46.628 -14.345  36.028  1.00  0.00     0.066 A
HETATM   45  C14 UNL     1      47.110 -15.098  37.072  1.00  0.00     0.082 A
HETATM   46  S1  UNL     1      45.950 -14.813  38.284  1.00  0.00    -0.064 SA
HETATM   47  C15 UNL     1      44.926 -13.762  37.410  1.00  0.00     0.142 A
HETATM   48  N9  UNL     1      45.526 -13.679  36.222  1.00  0.00    -0.336 N
ATOM     49  H9  UNL     1      45.128 -13.105  35.478  1.00  0.00     0.168 HD
BRANCH  47  50
HETATM   50  N8  UNL     1      43.815 -13.174  37.804  1.00  0.00    -0.380 N
ATOM     51  H82 UNL     1      43.008 -13.595  38.263  1.00  0.00     0.158 HD
ATOM     52  H81 UNL     1      43.549 -12.192  37.727  1.00  0.00     0.158 HD
ENDBRANCH  47  50
ENDBRANCH  41  44
ENDBRANCH  39  41
BRANCH  37  53
HETATM   53  C18 UNL     1      49.058 -16.002  31.730  1.00  0.00     0.290 C
HETATM   54  O6  UNL     1      49.770 -17.000  31.516  1.00  0.00    -0.268 OA
HETATM   55  N10 UNL     1      49.650 -14.751  31.976  1.00  0.00    -0.294 N
HETATM   56  C19 UNL     1      51.069 -14.611  31.991  1.00  0.00     0.220 C
ATOM     57  H10 UNL     1      49.060 -13.937  32.145  1.00  0.00     0.171 HD
HETATM   58  C20 UNL     1      51.713 -13.298  32.253  1.00  0.00     0.117 C
HETATM   59  O7  UNL     1      51.784 -15.629  31.777  1.00  0.00    -0.274 OA
ENDBRANCH  37  53
ENDBRANCH  31  32
ENDBRANCH   1  31
TORSDOF 17
ENDMDL