MODEL 1
REMARK VINA RESULT: -9.283941161      0.000      0.000
REMARK  19 active torsions:
REMARK  status: ('A' for Active; 'I' for Inactive)
REMARK    1  A    between atoms: O1_2  and  C2_3
REMARK    2  A    between atoms: C3_4  and  C4_5
REMARK    3  A    between atoms: C4_5  and  C5_6
REMARK    4  A    between atoms: N1_9  and  C8_10
REMARK    5  A    between atoms: C13_25  and  O3_26
REMARK    6  A    between atoms: O3_26  and  C14_27
REMARK    7  A    between atoms: C14_27  and  C15_28
REMARK    8  A    between atoms: C15_28  and  N7_29
REMARK    9  A    between atoms: C16_30  and  O4_31
REMARK   10  A    between atoms: C19_35  and  O5_36
REMARK   11  A    between atoms: C21_40  and  O7_41
REMARK   12  A    between atoms: C21_40  and  C22_43
REMARK   13  A    between atoms: C23_44  and  C24_45
REMARK   14  A    between atoms: C24_45  and  O8_46
REMARK   15  A    between atoms: C24_45  and  C25_48
REMARK   16  A    between atoms: C25_48  and  O9_49
REMARK   17  A    between atoms: C26_52  and  C27_53
REMARK   18  A    between atoms: C27_53  and  O11_54
REMARK   19  A    between atoms: C28_56  and  O12_57
ROOT
HETATM    1  O3  UNL     1      43.695 -15.693  34.202  1.00  0.00    -0.347 OA
ENDROOT
BRANCH   1   2
HETATM    2  C13 UNL     1      45.048 -15.467  34.389  1.00  0.00     0.104 A
HETATM    3  C12 UNL     1      45.539 -14.930  35.557  1.00  0.00     0.040 A
HETATM    4  C11 UNL     1      46.894 -14.722  35.694  1.00  0.00     0.013 A
HETATM    5  C3  UNL     1      47.796 -15.048  34.661  1.00  0.00    -0.020 A
HETATM    6  C2  UNL     1      47.285 -15.579  33.520  1.00  0.00     0.110 A
HETATM    7  C28 UNL     1      45.907 -15.796  33.362  1.00  0.00     0.135 A
BRANCH   5   8
HETATM    8  C4  UNL     1      49.182 -14.716  34.891  1.00  0.00     0.067 C
BRANCH   8   9
HETATM    9  C5  UNL     1      49.740 -13.472  34.316  1.00  0.00     0.092 C
HETATM   10  C6  UNL     1      49.720 -12.406  35.423  1.00  0.00     0.046 C
HETATM   11  C7  UNL     1      51.096 -12.364  36.082  1.00  0.00     0.154 C
HETATM   12  N1  UNL     1      52.002 -11.888  35.064  1.00  0.00    -0.130 N
HETATM   13  C10 UNL     1      51.996 -12.558  33.819  1.00  0.00     0.337 C
HETATM   14  O2  UNL     1      52.887 -12.328  32.959  1.00  0.00    -0.246 OA
HETATM   15  N6  UNL     1      50.945 -13.490  33.600  1.00  0.00    -0.337 N
ATOM     16  H6  UNL     1      51.075 -14.207  32.886  1.00  0.00     0.164 HD
BRANCH  12  17
HETATM   17  C8  UNL     1      52.850 -10.790  35.330  1.00  0.00     0.720 A
HETATM   18  N2  UNL     1      53.558 -10.038  34.457  1.00  0.00    -0.115 N
HETATM   19  N3  UNL     1      54.229  -9.102  35.126  1.00  0.00    -0.211 N
ATOM     20  H2  UNL     1      53.575 -10.168  33.445  1.00  0.00     0.207 HD
HETATM   21  N4  UNL     1      53.961  -9.244  36.407  1.00  0.00    -0.209 N
ATOM     22  H3  UNL     1      54.842  -8.398  34.717  1.00  0.00     0.210 HD
HETATM   23  C9  UNL     1      54.489  -8.431  37.464  1.00  0.00     0.202 C
HETATM   24  N5  UNL     1      53.132 -10.257  36.544  1.00  0.00    -0.113 N
ATOM     25  H5  UNL     1      52.757 -10.591  37.432  1.00  0.00     0.207 HD
ENDBRANCH  12  17
ENDBRANCH   8   9
ENDBRANCH   5   8
BRANCH   6  26
HETATM   26  O1  UNL     1      48.052 -15.943  32.465  1.00  0.00    -0.352 OA
HETATM   27  C1  UNL     1      48.481 -15.212  31.387  1.00  0.00     0.210 C
ENDBRANCH   6  26
BRANCH   7  28
HETATM   28  O12 UNL     1      45.437 -16.334  32.185  1.00  0.00    -0.351 OA
HETATM   29  C29 UNL     1      44.806 -15.647  31.144  1.00  0.00     0.210 C
ENDBRANCH   7  28
ENDBRANCH   1   2
BRANCH   1  30
HETATM   30  C14 UNL     1      42.759 -14.682  34.403  1.00  0.00     0.196 C
BRANCH  30  31
HETATM   31  C15 UNL     1      41.393 -15.205  34.007  1.00  0.00     0.161 C
BRANCH  31  32
HETATM   32  N7  UNL     1      40.929 -14.674  32.766  1.00  0.00    -0.290 N
HETATM   33  C16 UNL     1      40.598 -13.369  32.657  1.00  0.00     0.155 A
HETATM   34  C17 UNL     1      40.159 -12.781  31.489  1.00  0.00     0.040 A
HETATM   35  C18 UNL     1      40.061 -13.595  30.373  1.00  0.00     0.069 A
HETATM   36  C26 UNL     1      39.732 -11.425  31.063  1.00  0.00     0.188 C
HETATM   37  C19 UNL     1      40.392 -14.919  30.471  1.00  0.00     0.148 A
HETATM   38  C21 UNL     1      39.595 -12.757  29.263  1.00  0.00     0.264 C
HETATM   39  C20 UNL     1      40.828 -15.465  31.662  1.00  0.00     0.283 A
HETATM   40  O6  UNL     1      41.142 -16.675  31.793  1.00  0.00    -0.265 OA
HETATM   41  O10 UNL     1      39.830 -11.444  29.674  1.00  0.00    -0.329 OA
BRANCH  33  42
HETATM   42  O4  UNL     1      40.713 -12.579  33.813  1.00  0.00    -0.345 OA
ATOM     43  H4  UNL     1      40.232 -11.760  33.829  1.00  0.00     0.219 HD
ENDBRANCH  33  42
BRANCH  37  44
HETATM   44  O5  UNL     1      40.304 -15.778  29.355  1.00  0.00    -0.355 OA
ATOM     45  H5  UNL     1      40.534 -16.697  29.423  1.00  0.00     0.218 HD
ENDBRANCH  37  44
BRANCH  38  46
HETATM   46  O7  UNL     1      38.264 -12.967  29.003  1.00  0.00    -0.351 OA
ATOM     47  H7  UNL     1      38.117 -13.828  28.630  1.00  0.00     0.214 HD
ENDBRANCH  38  46
BRANCH  38  48
HETATM   48  C22 UNL     1      40.402 -13.016  28.043  1.00  0.00    -0.030 C
HETATM   49  C23 UNL     1      41.041 -13.245  27.049  1.00  0.00    -0.067 C
BRANCH  49  50
HETATM   50  C24 UNL     1      41.810 -13.527  25.827  1.00  0.00     0.220 C
BRANCH  50  51
HETATM   51  O8  UNL     1      41.544 -14.775  25.315  1.00  0.00    -0.381 OA
ATOM     52  H8  UNL     1      41.942 -14.909  24.462  1.00  0.00     0.211 HD
ENDBRANCH  50  51
BRANCH  50  53
HETATM   53  C25 UNL     1      41.432 -12.513  24.747  1.00  0.00     0.208 C
BRANCH  53  54
HETATM   54  O9  UNL     1      42.288 -11.406  24.798  1.00  0.00    -0.397 OA
ATOM     55  H9  UNL     1      42.798 -11.345  23.998  1.00  0.00     0.209 HD
ENDBRANCH  53  54
ENDBRANCH  50  53
ENDBRANCH  49  50
ENDBRANCH  38  48
BRANCH  36  56
HETATM   56  C27 UNL     1      38.296 -11.149  31.486  1.00  0.00     0.201 C
BRANCH  56  57
HETATM   57  O11 UNL     1      37.730 -10.319  30.504  1.00  0.00    -0.398 OA
ATOM     58  H11 UNL     1      37.066  -9.793  30.932  1.00  0.00     0.209 HD
ENDBRANCH  56  57
ENDBRANCH  36  56
ENDBRANCH  31  32
ENDBRANCH  30  31
ENDBRANCH   1  30
TORSDOF 19
ENDMDL