MODEL 5
REMARK VINA RESULT: -10.800959786      7.606     12.514
REMARK  12 active torsions:
REMARK  status: ('A' for Active; 'I' for Inactive)
REMARK       I    between atoms: C2_2  and  N1_4
REMARK    1  A    between atoms: N1_4  and  C3_6
REMARK    2  A    between atoms: C3_6  and  C4_7
REMARK    3  A    between atoms: C6_15  and  S1_16
REMARK    4  A    between atoms: S1_16  and  C7_17
REMARK    5  A    between atoms: C10_21  and  O2_22
REMARK    6  A    between atoms: C11_24  and  N7_25
REMARK    7  A    between atoms: C13_27  and  N8_28
REMARK       I    between atoms: N8_28  and  C14_30
REMARK    8  A    between atoms: C14_30  and  C15_32
REMARK    9  A    between atoms: C15_32  and  C16_33
REMARK   10  A    between atoms: C16_33  and  C17_34
REMARK   11  A    between atoms: C17_34  and  C18_36
REMARK   12  A    between atoms: N9_38  and  C20_39
ROOT
HETATM    1  C7  UNL     1      43.375 -14.936  31.278  1.00  0.00     0.001 C
HETATM    2  C8  UNL     1      42.406 -15.100  30.427  1.00  0.00     0.066 C
HETATM    3  C9  UNL     1      42.445 -15.514  29.047  1.00  0.00     0.099 C
HETATM    4  N6  UNL     1      42.438 -15.850  27.940  1.00  0.00    -0.192 NA
HETATM    5  C10 UNL     1      41.069 -14.781  31.080  1.00  0.00     0.188 C
HETATM    6  C11 UNL     1      41.373 -15.122  32.523  1.00  0.00     0.147 C
HETATM    7  C25 UNL     1      42.767 -14.534  32.631  1.00  0.00     0.077 C
ENDROOT
BRANCH   1   8
HETATM    8  S1  UNL     1      45.108 -15.159  31.040  1.00  0.00    -0.107 SA
BRANCH   8   9
HETATM    9  C6  UNL     1      45.579 -16.513  29.991  1.00  0.00     0.189 C
HETATM   10  C4  UNL     1      46.453 -17.524  30.789  1.00  0.00     0.133 C
HETATM   11  N2  UNL     1      47.275 -16.712  31.657  1.00  0.00    -0.355 N
HETATM   12  C5  UNL     1      47.818 -15.653  31.113  1.00  0.00     0.200 C
ATOM     13  H2  UNL     1      47.424 -16.951  32.638  1.00  0.00     0.162 HD
HETATM   14  N3  UNL     1      48.644 -14.791  31.886  1.00  0.00    -0.062 NA
HETATM   15  N4  UNL     1      47.570 -15.382  29.745  1.00  0.00    -0.277 N
HETATM   16  N5  UNL     1      46.543 -15.983  29.006  1.00  0.00    -0.121 NA
ATOM     17  H4  UNL     1      48.174 -14.710  29.271  1.00  0.00     0.185 HD
BRANCH  10  18
HETATM   18  C3  UNL     1      45.579 -18.473  31.554  1.00  0.00     0.150 C
BRANCH  18  19
HETATM   19  N1  UNL     1      45.397 -18.029  32.919  1.00  0.00    -0.359 N
HETATM   20  C2  UNL     1      44.116 -17.899  33.506  1.00  0.00     0.213 C
HETATM   21  C1  UNL     1      43.964 -17.435  34.921  1.00  0.00     0.117 C
HETATM   22  O1  UNL     1      43.114 -18.187  32.793  1.00  0.00    -0.274 OA
ATOM     23  H1  UNL     1      46.220 -17.804  33.477  1.00  0.00     0.162 HD
ENDBRANCH  18  19
ENDBRANCH  10  18
ENDBRANCH   8   9
ENDBRANCH   1   8
BRANCH   5  24
HETATM   24  O2  UNL     1      40.057 -15.552  30.565  1.00  0.00    -0.388 OA
ATOM     25  H2  UNL     1      40.003 -15.474  29.620  1.00  0.00     0.210 HD
ENDBRANCH   5  24
BRANCH   6  26
HETATM   26  N7  UNL     1      40.457 -14.439  33.415  1.00  0.00    -0.278 N
HETATM   27  C12 UNL     1      40.311 -13.101  33.478  1.00  0.00     0.162 A
HETATM   28  C13 UNL     1      39.372 -12.786  34.419  1.00  0.00     0.141 A
HETATM   29  N13 UNL     1      38.971 -14.006  34.908  1.00  0.00    -0.270 N
HETATM   30  N14 UNL     1      39.636 -14.957  34.289  1.00  0.00    -0.239 N
ATOM     31  H13 UNL     1      38.270 -14.151  35.634  1.00  0.00     0.190 HD
ATOM     32  H14 UNL     1      39.527 -15.956  34.466  1.00  0.00     0.208 HD
BRANCH  28  33
HETATM   33  N8  UNL     1      38.848 -11.558  34.877  1.00  0.00    -0.311 N
HETATM   34  C14 UNL     1      37.838 -11.467  35.845  1.00  0.00     0.223 C
HETATM   35  O3  UNL     1      37.303 -12.460  36.398  1.00  0.00    -0.273 OA
ATOM     36  H8  UNL     1      39.222 -10.694  34.485  1.00  0.00     0.170 HD
BRANCH  34  37
HETATM   37  C15 UNL     1      37.312 -10.130  36.304  1.00  0.00     0.111 C
BRANCH  37  38
HETATM   38  C16 UNL     1      35.834  -9.978  35.979  1.00  0.00     0.093 C
BRANCH  38  39
HETATM   39  C17 UNL     1      35.611  -9.283  34.718  1.00  0.00     0.166 C
HETATM   40  O4  UNL     1      34.500  -9.503  34.103  1.00  0.00    -0.292 OA
BRANCH  39  41
HETATM   41  C18 UNL     1      36.499  -8.362  34.070  1.00  0.00     0.093 A
HETATM   42  C19 UNL     1      37.496  -8.807  33.187  1.00  0.00     0.120 A
HETATM   43  N9  UNL     1      38.336  -8.006  32.563  1.00  0.00    -0.265 N
HETATM   44  C23 UNL     1      38.255  -6.684  32.766  1.00  0.00     0.332 A
HETATM   45  O6  UNL     1      39.066  -5.942  32.161  1.00  0.00    -0.246 OA
HETATM   46  N12 UNL     1      37.324  -6.194  33.597  1.00  0.00    -0.274 N
HETATM   47  C24 UNL     1      36.443  -7.002  34.257  1.00  0.00     0.264 A
ATOM     48  H12 UNL     1      37.273  -5.185  33.742  1.00  0.00     0.173 HD
HETATM   49  O7  UNL     1      35.597  -6.456  35.022  1.00  0.00    -0.267 OA
BRANCH  43  50
HETATM   50  C20 UNL     1      39.335  -8.541  31.666  1.00  0.00     0.357 C
HETATM   51  N10 UNL     1      39.091  -8.163  30.289  1.00  0.00    -0.085 NA
HETATM   52  N11 UNL     1      39.381  -9.322  29.544  1.00  0.00    -0.284 N
HETATM   53  C21 UNL     1      39.464 -10.335  30.315  1.00  0.00     0.129 C
ATOM     54  H11 UNL     1      39.508  -9.348  28.532  1.00  0.00     0.184 HD
HETATM   55  C22 UNL     1      39.759 -11.755  29.917  1.00  0.00     0.098 C
HETATM   56  O5  UNL     1      39.239  -9.946  31.623  1.00  0.00    -0.296 OA
ENDBRANCH  43  50
ENDBRANCH  39  41
ENDBRANCH  38  39
ENDBRANCH  37  38
ENDBRANCH  34  37
ENDBRANCH  28  33
ENDBRANCH   6  26
TORSDOF 12
ENDMDL