MODEL 2
REMARK VINA RESULT: -8.254985924      2.792      4.599
REMARK  17 active torsions:
REMARK  status: ('A' for Active; 'I' for Inactive)
REMARK    1  A    between atoms: C2_2  and  O1_3
REMARK    2  A    between atoms: O1_3  and  C3_4
REMARK    3  A    between atoms: C3_4  and  C4_6
REMARK    4  A    between atoms: C4_6  and  N1_7
REMARK    5  A    between atoms: N1_7  and  C5_9
REMARK    6  A    between atoms: C5_9  and  O3_10
REMARK    7  A    between atoms: C5_9  and  C6_12
REMARK    8  A    between atoms: C6_12  and  C20_44
REMARK    9  A    between atoms: N2_13  and  O4_15
REMARK   10  A    between atoms: O4_15  and  C7_16
REMARK   11  A    between atoms: C8_17  and  C9_18
REMARK   12  A    between atoms: C11_26  and  N6_27
REMARK       I    between atoms: N6_27  and  C12_29
REMARK   13  A    between atoms: C12_29  and  C13_31
REMARK   14  A    between atoms: C13_31  and  O8_32
REMARK   15  A    between atoms: N7_34  and  O9_36
REMARK   16  A    between atoms: O9_36  and  C14_37
REMARK   17  A    between atoms: C22_47  and  N8_48
ROOT
HETATM    1  C6  UNL     1      41.469 -14.455  32.666  1.00  0.00     0.132 C
HETATM    2  N2  UNL     1      42.195 -15.415  33.106  1.00  0.00    -0.255 N
ATOM      3  H2  UNL     1      42.840 -15.786  32.410  1.00  0.00     0.195 HD
ENDROOT
BRANCH   2   4
HETATM    4  O4  UNL     1      42.280 -16.023  34.274  1.00  0.00    -0.238 OA
BRANCH   4   5
HETATM    5  C7  UNL     1      43.250 -15.832  35.226  1.00  0.00     0.119 C
HETATM    6  C8  UNL     1      44.174 -16.779  35.412  1.00  0.00     0.148 C
HETATM    7  N3  UNL     1      45.184 -16.715  36.373  1.00  0.00    -0.295 N
HETATM    8  C10 UNL     1      46.023 -17.691  37.017  1.00  0.00     0.194 C
HETATM    9  C18 UNL     1      45.701 -15.486  37.023  1.00  0.00     0.197 C
HETATM   10  N4  UNL     1      45.615 -19.048  37.307  1.00  0.00    -0.063 NA
HETATM   11  N5  UNL     1      47.167 -17.175  37.311  1.00  0.00    -0.340 N
HETATM   12  C11 UNL     1      47.176 -15.754  36.866  1.00  0.00     0.220 C
ATOM     13  H5  UNL     1      47.937 -17.659  37.771  1.00  0.00     0.164 HD
HETATM   14  S1  UNL     1      45.010 -14.067  36.231  1.00  0.00    -0.133 SA
HETATM   15  C19 UNL     1      43.213 -14.554  35.994  1.00  0.00     0.146 C
BRANCH   6  16
HETATM   16  C9  UNL     1      44.099 -17.991  34.561  1.00  0.00     0.229 C
HETATM   17  O5  UNL     1      44.843 -18.063  33.524  1.00  0.00    -0.643 OA
HETATM   18  O6  UNL     1      43.268 -19.026  34.857  1.00  0.00    -0.643 OA
ENDBRANCH   6  16
BRANCH  12  19
HETATM   19  N6  UNL     1      47.573 -15.840  35.476  1.00  0.00    -0.330 N
HETATM   20  C12 UNL     1      48.335 -14.809  34.894  1.00  0.00     0.295 C
HETATM   21  O7  UNL     1      48.652 -13.816  35.595  1.00  0.00    -0.264 OA
ATOM     22  H6  UNL     1      47.301 -16.649  34.918  1.00  0.00     0.165 HD
BRANCH  20  23
HETATM   23  C13 UNL     1      48.760 -14.872  33.499  1.00  0.00     0.230 C
HETATM   24  N7  UNL     1      48.006 -15.393  32.614  1.00  0.00    -0.239 N
ATOM     25  H7  UNL     1      47.103 -15.765  32.908  1.00  0.00     0.196 HD
BRANCH  23  26
HETATM   26  O8  UNL     1      49.981 -14.370  33.093  1.00  0.00    -0.341 OA
ATOM     27  H8  UNL     1      50.084 -13.464  32.828  1.00  0.00     0.219 HD
ENDBRANCH  23  26
BRANCH  24  28
HETATM   28  O9  UNL     1      48.342 -15.482  31.289  1.00  0.00    -0.268 OA
BRANCH  28  29
HETATM   29  C14 UNL     1      47.659 -16.293  30.380  1.00  0.00     0.078 C
HETATM   30  C15 UNL     1      48.382 -17.632  30.315  1.00  0.00     0.048 C
HETATM   31  C16 UNL     1      46.203 -16.491  30.727  1.00  0.00     0.048 C
HETATM   32  C17 UNL     1      47.690 -15.715  28.970  1.00  0.00     0.048 C
ENDBRANCH  28  29
ENDBRANCH  24  28
ENDBRANCH  20  23
ENDBRANCH  12  19
ENDBRANCH   4   5
ENDBRANCH   2   4
BRANCH   1  33
HETATM   33  C5  UNL     1      41.705 -14.081  31.283  1.00  0.00     0.171 C
BRANCH  33  34
HETATM   34  N1  UNL     1      40.903 -13.297  30.439  1.00  0.00    -0.305 N
ATOM     35  H1  UNL     1      40.879 -12.286  30.574  1.00  0.00     0.166 HD
BRANCH  34  36
HETATM   36  C4  UNL     1      40.104 -13.890  29.374  1.00  0.00     0.452 C
HETATM   37  N10 UNL     1      39.142 -14.830  29.945  1.00  0.00    -0.011 N
HETATM   38  C23 UNL     1      38.130 -13.989  30.598  1.00  0.00     0.266 C
ATOM     39 2H10 UNL     1      38.757 -15.489  29.270  1.00  0.00     0.283 HD
ATOM     40 1H10 UNL     1      39.561 -15.526  30.562  1.00  0.00     0.283 HD
HETATM   41  C24 UNL     1      38.432 -12.582  30.074  1.00  0.00     0.266 C
HETATM   42  N11 UNL     1      39.190 -12.879  28.862  1.00  0.00    -0.011 N
ATOM     43 2H11 UNL     1      39.625 -12.079  28.403  1.00  0.00     0.283 HD
ATOM     44 1H11 UNL     1      38.638 -13.150  28.048  1.00  0.00     0.283 HD
BRANCH  36  45
HETATM   45  C3  UNL     1      40.864 -14.537  28.317  1.00  0.00     0.346 C
HETATM   46  O2  UNL     1      41.202 -15.739  28.412  1.00  0.00    -0.258 OA
BRANCH  45  47
HETATM   47  O1  UNL     1      41.247 -13.857  27.169  1.00  0.00    -0.317 OA
BRANCH  47  48
HETATM   48  C2  UNL     1      41.857 -14.547  26.104  1.00  0.00     0.174 C
HETATM   49  C1  UNL     1      41.669 -13.744  24.821  1.00  0.00     0.034 C
ENDBRANCH  47  48
ENDBRANCH  45  47
ENDBRANCH  36  45
ENDBRANCH  34  36
ENDBRANCH  33  34
BRANCH  33  50
HETATM   50  O3  UNL     1      42.821 -14.544  30.799  1.00  0.00    -0.344 OA
ATOM     51  H3  UNL     1      42.848 -15.459  30.547  1.00  0.00     0.219 HD
ENDBRANCH  33  50
ENDBRANCH   1  33
BRANCH   1  52
HETATM   52  C20 UNL     1      40.434 -13.817  33.530  1.00  0.00     0.074 A
HETATM   53  C21 UNL     1      40.224 -12.461  33.434  1.00  0.00     0.085 A
HETATM   54  S2  UNL     1      38.892 -12.217  34.476  1.00  0.00    -0.064 SA
HETATM   55  C22 UNL     1      38.671 -13.824  34.974  1.00  0.00     0.142 A
HETATM   56  N9  UNL     1      39.631 -14.484  34.317  1.00  0.00    -0.335 N
ATOM     57  H9  UNL     1      39.735 -15.492  34.428  1.00  0.00     0.168 HD
BRANCH  55  58
HETATM   58  N8  UNL     1      37.785 -14.347  35.805  1.00  0.00    -0.380 N
ATOM     59  H82 UNL     1      36.903 -13.925  36.096  1.00  0.00     0.158 HD
ATOM     60  H81 UNL     1      37.794 -15.237  36.304  1.00  0.00     0.158 HD
ENDBRANCH  55  58
ENDBRANCH   1  52
TORSDOF 17
ENDMDL