MODEL 2
REMARK VINA RESULT: -8.590889316      3.259      6.313
REMARK  15 active torsions:
REMARK  status: ('A' for Active; 'I' for Inactive)
REMARK    1  A    between atoms: O1_2  and  C2_3
REMARK    2  A    between atoms: C2_3  and  C3_5
REMARK    3  A    between atoms: C3_5  and  S1_6
REMARK    4  A    between atoms: C3_5  and  C5_9
REMARK    5  A    between atoms: C5_9  and  N3_13
REMARK    6  A    between atoms: N3_13  and  C6_15
REMARK    7  A    between atoms: C10_24  and  O5_25
REMARK    8  A    between atoms: C13_31  and  C14_32
REMARK    9  A    between atoms: C14_32  and  C15_33
REMARK   10  A    between atoms: C15_33  and  C16_34
REMARK   11  A    between atoms: C15_33  and  N7_38
REMARK   12  A    between atoms: C16_34  and  C17_35
REMARK   13  A    between atoms: C17_35  and  S2_36
REMARK       I    between atoms: N7_38  and  C19_40
REMARK   14  A    between atoms: C19_40  and  C20_42
REMARK   15  A    between atoms: C22_50  and  N11_51
ROOT
HETATM    1  S1  UNL     1      44.376 -18.538  39.018  1.00  0.00    -0.028 SA
HETATM    2  C4  UNL     1      43.042 -17.914  39.992  1.00  0.00     0.134 C
HETATM    3  N1  UNL     1      42.152 -17.515  40.633  1.00  0.00    -0.184 NA
ENDROOT
BRANCH   1   4
HETATM    4  C3  UNL     1      45.034 -17.224  37.943  1.00  0.00     0.228 C
BRANCH   4   5
HETATM    5  C2  UNL     1      46.501 -17.184  37.967  1.00  0.00     0.280 C
HETATM    6  O2  UNL     1      47.090 -16.277  38.627  1.00  0.00    -0.263 OA
BRANCH   5   7
HETATM    7  O1  UNL     1      47.303 -18.099  37.296  1.00  0.00    -0.325 OA
HETATM    8  C1  UNL     1      47.990 -19.092  38.040  1.00  0.00     0.213 C
ENDBRANCH   5   7
ENDBRANCH   4   5
BRANCH   4   9
HETATM    9  C5  UNL     1      44.495 -17.355  36.562  1.00  0.00     0.097 C
HETATM   10  N2  UNL     1      44.734 -18.473  35.939  1.00  0.00    -0.388 N
ATOM     11  H22 UNL     1      45.266 -19.229  36.370  1.00  0.00     0.157 HD
ATOM     12  H21 UNL     1      44.365 -18.562  34.992  1.00  0.00     0.157 HD
BRANCH   9  13
HETATM   13  N3  UNL     1      43.756 -16.304  35.962  1.00  0.00    -0.349 N
ATOM     14  H3  UNL     1      43.407 -15.532  36.530  1.00  0.00     0.163 HD
BRANCH  13  15
HETATM   15  C6  UNL     1      43.499 -16.335  34.537  1.00  0.00     0.270 C
HETATM   16  O3  UNL     1      42.231 -16.731  34.320  1.00  0.00    -0.336 OA
HETATM   17  C7  UNL     1      41.727 -16.570  33.041  1.00  0.00     0.256 C
HETATM   18  N4  UNL     1      40.952 -15.308  33.110  1.00  0.00    -0.347 N
HETATM   19  C24 UNL     1      42.812 -16.392  32.018  1.00  0.00     0.201 C
HETATM   20  C8  UNL     1      41.542 -14.210  33.553  1.00  0.00     0.164 C
ATOM     21  H4  UNL     1      39.975 -15.287  32.819  1.00  0.00     0.163 HD
HETATM   22  N5  UNL     1      40.714 -13.028  33.589  1.00  0.00    -0.079 NA
HETATM   23  C9  UNL     1      42.914 -14.007  34.011  1.00  0.00     0.231 C
HETATM   24  O4  UNL     1      43.149 -12.912  34.536  1.00  0.00    -0.286 OA
HETATM   25  C10 UNL     1      43.949 -15.059  33.848  1.00  0.00     0.196 C
HETATM   26  C12 UNL     1      43.899 -15.436  32.354  1.00  0.00     0.186 C
HETATM   27  N6  UNL     1      43.925 -14.232  31.619  1.00  0.00    -0.289 N
HETATM   28  O6  UNL     1      43.173 -14.168  30.522  1.00  0.00    -0.252 OA
ATOM     29  H6  UNL     1      44.497 -13.441  31.916  1.00  0.00     0.188 HD
HETATM   30  C13 UNL     1      43.057 -15.456  30.003  1.00  0.00     0.290 C
HETATM   31  O8  UNL     1      42.177 -16.145  30.788  1.00  0.00    -0.347 OA
BRANCH  25  32
HETATM   32  O5  UNL     1      45.194 -14.797  34.218  1.00  0.00    -0.370 OA
HETATM   33  C11 UNL     1      46.272 -15.470  33.818  1.00  0.00     0.203 C
ENDBRANCH  25  32
BRANCH  30  34
HETATM   34  C14 UNL     1      42.847 -15.499  28.539  1.00  0.00     0.088 C
BRANCH  34  35
HETATM   35  C15 UNL     1      41.534 -15.045  28.014  1.00  0.00     0.090 C
BRANCH  35  36
HETATM   36  C16 UNL     1      41.444 -15.192  26.525  1.00  0.00     0.035 C
BRANCH  36  37
HETATM   37  C17 UNL     1      42.285 -14.144  25.808  1.00  0.00     0.075 C
BRANCH  37  38
HETATM   38  S2  UNL     1      41.181 -13.311  24.627  1.00  0.00    -0.173 SA
HETATM   39  C18 UNL     1      40.401 -11.866  25.424  1.00  0.00     0.089 C
ENDBRANCH  37  38
ENDBRANCH  36  37
ENDBRANCH  35  36
BRANCH  35  40
HETATM   40  N7  UNL     1      41.221 -13.683  28.403  1.00  0.00    -0.350 N
HETATM   41  C19 UNL     1      40.166 -13.341  29.270  1.00  0.00     0.287 C
HETATM   42  O7  UNL     1      39.457 -14.265  29.730  1.00  0.00    -0.264 OA
ATOM     43  H7  UNL     1      41.798 -12.931  28.028  1.00  0.00     0.163 HD
BRANCH  41  44
HETATM   44  C20 UNL     1      39.893 -11.928  29.636  1.00  0.00     0.191 A
HETATM   45  N8  UNL     1      40.115 -10.948  28.756  1.00  0.00    -0.279 N
HETATM   46  N9  UNL     1      39.888  -9.691  29.046  1.00  0.00    -0.280 N
ATOM     47  H8  UNL     1      40.471 -11.186  27.831  1.00  0.00     0.189 HD
HETATM   48  C21 UNL     1      39.418  -9.364  30.267  1.00  0.00     0.180 A
ATOM     49  H9  UNL     1      40.065  -8.964  28.353  1.00  0.00     0.188 HD
HETATM   50  N10 UNL     1      39.092  -8.199  30.862  1.00  0.00    -0.172 N
HETATM   51  C23 UNL     1      39.178 -10.357  31.201  1.00  0.00     0.169 A
HETATM   52  C22 UNL     1      38.666  -8.436  32.113  1.00  0.00     0.679 A
ATOM     53  H10 UNL     1      39.159  -7.278  30.428  1.00  0.00     0.186 HD
HETATM   54  N12 UNL     1      38.712  -9.770  32.340  1.00  0.00    -0.173 N
ATOM     55  H12 UNL     1      38.449 -10.246  33.202  1.00  0.00     0.186 HD
HETATM   56  N13 UNL     1      39.427 -11.626  30.853  1.00  0.00    -0.319 N
ATOM     57  H13 UNL     1      39.257 -12.373  31.525  1.00  0.00     0.169 HD
BRANCH  52  58
HETATM   58  N11 UNL     1      38.282  -7.535  32.945  1.00  0.00    -0.234 N
ATOM     59 2H11 UNL     1      38.729  -7.301  33.832  1.00  0.00     0.174 HD
ATOM     60 1H11 UNL     1      37.470  -6.930  32.820  1.00  0.00     0.174 HD
ENDBRANCH  52  58
ENDBRANCH  41  44
ENDBRANCH  35  40
ENDBRANCH  34  35
ENDBRANCH  30  34
ENDBRANCH  13  15
ENDBRANCH   9  13
ENDBRANCH   4   9
ENDBRANCH   1   4
TORSDOF 15
ENDMDL