MODEL 2
REMARK VINA RESULT: -9.702228328      1.684      1.992
REMARK  15 active torsions:
REMARK  status: ('A' for Active; 'I' for Inactive)
REMARK    1  A    between atoms: N1_1  and  C1_4
REMARK    2  A    between atoms: C3_8  and  C4_9
REMARK    3  A    between atoms: C4_9  and  N3_10
REMARK    4  A    between atoms: C4_9  and  C7_16
REMARK    5  A    between atoms: N3_10  and  C5_12
REMARK    6  A    between atoms: C5_12  and  C6_13
REMARK    7  A    between atoms: C7_16  and  O3_17
REMARK    8  A    between atoms: C7_16  and  C8_19
REMARK    9  A    between atoms: C8_19  and  C9_21
REMARK       I    between atoms: C9_21  and  N4_23
REMARK   10  A    between atoms: N4_23  and  C10_25
REMARK   11  A    between atoms: C11_28  and  C12_29
REMARK   12  A    between atoms: C12_29  and  N6_30
REMARK   13  A    between atoms: C12_29  and  S1_45
REMARK   14  A    between atoms: C14_32  and  N7_33
REMARK   15  A    between atoms: C18_38  and  O7_39
ROOT
HETATM    1  C10 UNL     1      44.258 -14.960  32.346  1.00  0.00     0.129 A
HETATM    2  N5  UNL     1      45.443 -15.444  31.888  1.00  0.00    -0.342 N
ATOM      3  H5  UNL     1      45.717 -15.320  30.914  1.00  0.00     0.167 HD
HETATM    4  C11 UNL     1      46.242 -16.090  32.753  1.00  0.00     0.055 A
HETATM    5  C19 UNL     1      45.894 -16.268  34.070  1.00  0.00     0.061 A
HETATM    6  C20 UNL     1      44.678 -15.781  34.577  1.00  0.00     0.072 A
HETATM    7  N10 UNL     1      44.234 -15.885  35.800  1.00  0.00    -0.293 N
ATOM      8  H10 UNL     1      44.793 -16.363  36.507  1.00  0.00     0.187 HD
HETATM    9  N11 UNL     1      43.083 -15.382  36.118  1.00  0.00    -0.269 N
ATOM     10  H11 UNL     1      42.617 -15.390  37.025  1.00  0.00     0.195 HD
HETATM   11  S2  UNL     1      42.542 -14.711  34.669  1.00  0.00     0.007 SA
HETATM   12  C21 UNL     1      43.874 -15.127  33.682  1.00  0.00     0.095 A
ENDROOT
BRANCH   1  13
HETATM   13  N4  UNL     1      43.450 -14.343  31.590  1.00  0.00    -0.305 N
HETATM   14  C9  UNL     1      42.585 -14.866  30.637  1.00  0.00     0.295 C
HETATM   15  O5  UNL     1      43.043 -15.055  29.470  1.00  0.00    -0.264 OA
ATOM     16  H4  UNL     1      43.433 -13.328  31.695  1.00  0.00     0.170 HD
BRANCH  14  17
HETATM   17  C8  UNL     1      41.189 -15.213  30.873  1.00  0.00     0.247 C
HETATM   18  O4  UNL     1      40.979 -16.171  31.691  1.00  0.00    -0.284 OA
BRANCH  17  19
HETATM   19  C7  UNL     1      40.070 -14.497  30.202  1.00  0.00     0.225 C
BRANCH  19  20
HETATM   20  C4  UNL     1      39.482 -13.449  31.108  1.00  0.00     0.155 C
BRANCH  20  21
HETATM   21  C3  UNL     1      39.573 -12.092  30.452  1.00  0.00     0.027 A
HETATM   22  C2  UNL     1      40.102 -11.792  29.219  1.00  0.00     0.107 A
HETATM   23  N2  UNL     1      40.077 -10.545  28.842  1.00  0.00    -0.346 N
HETATM   24  C1  UNL     1      39.549  -9.637  29.657  1.00  0.00     0.142 A
ATOM     25  H2  UNL     1      40.456 -10.270  27.935  1.00  0.00     0.167 HD
HETATM   26  S3  UNL     1      39.067 -10.561  31.007  1.00  0.00    -0.055 SA
BRANCH  24  27
HETATM   27  N1  UNL     1      39.439  -8.341  29.446  1.00  0.00    -0.380 N
ATOM     28  H12 UNL     1      39.039  -7.846  28.649  1.00  0.00     0.158 HD
ATOM     29  H11 UNL     1      39.742  -7.586  30.060  1.00  0.00     0.158 HD
ENDBRANCH  24  27
ENDBRANCH  20  21
BRANCH  20  30
HETATM   30  N3  UNL     1      40.112 -13.352  32.376  1.00  0.00    -0.401 N
ATOM     31  H3  UNL     1      41.115 -13.197  32.479  1.00  0.00     0.154 HD
BRANCH  30  32
HETATM   32  C5  UNL     1      39.234 -13.488  33.501  1.00  0.00     0.228 C
BRANCH  32  33
HETATM   33  C6  UNL     1      39.245 -12.206  34.256  1.00  0.00     0.190 C
HETATM   34  O1  UNL     1      40.320 -11.648  34.595  1.00  0.00    -0.647 OA
HETATM   35  O2  UNL     1      38.066 -11.559  34.629  1.00  0.00    -0.647 OA
ENDBRANCH  32  33
ENDBRANCH  30  32
ENDBRANCH  20  30
ENDBRANCH  19  20
BRANCH  19  36
HETATM   36  O3  UNL     1      39.030 -15.442  30.008  1.00  0.00    -0.385 OA
ATOM     37  H3  UNL     1      38.500 -15.085  29.305  1.00  0.00     0.210 HD
ENDBRANCH  19  36
ENDBRANCH  17  19
ENDBRANCH  14  17
ENDBRANCH   1  13
BRANCH   4  38
HETATM   38  C12 UNL     1      47.565 -16.659  32.280  1.00  0.00     0.302 C
BRANCH  38  39
HETATM   39  N6  UNL     1      48.625 -15.714  32.320  1.00  0.00    -0.257 N
HETATM   40  C13 UNL     1      49.047 -15.031  33.397  1.00  0.00     0.163 A
HETATM   41  C14 UNL     1      50.098 -14.219  33.008  1.00  0.00     0.139 A
HETATM   42  N8  UNL     1      50.285 -14.433  31.705  1.00  0.00    -0.270 N
HETATM   43  N9  UNL     1      49.396 -15.325  31.324  1.00  0.00    -0.237 N
ATOM     44  H8  UNL     1      50.986 -13.987  31.114  1.00  0.00     0.190 HD
ATOM     45  H9  UNL     1      49.313 -15.676  30.370  1.00  0.00     0.208 HD
BRANCH  41  46
HETATM   46  N7  UNL     1      50.826 -13.329  33.880  1.00  0.00    -0.332 N
HETATM   47  C15 UNL     1      50.275 -12.799  35.107  1.00  0.00     0.135 C
HETATM   48  C16 UNL     1      51.338 -11.922  35.679  1.00  0.00     0.103 C
HETATM   49  C17 UNL     1      52.343 -11.731  34.601  1.00  0.00     0.176 C
HETATM   50  O6  UNL     1      53.158 -10.817  34.518  1.00  0.00    -0.293 OA
HETATM   51  C18 UNL     1      52.166 -12.856  33.656  1.00  0.00     0.292 C
BRANCH  51  52
HETATM   52  O7  UNL     1      52.269 -12.343  32.361  1.00  0.00    -0.369 OA
ATOM     53  H7  UNL     1      53.180 -12.343  32.091  1.00  0.00     0.212 HD
ENDBRANCH  51  52
ENDBRANCH  41  46
ENDBRANCH  38  39
BRANCH  38  54
HETATM   54  S1  UNL     1      47.295 -17.390  30.691  1.00  0.00     0.133 S
HETATM   55  O8  UNL     1      48.464 -18.212  30.300  1.00  0.00    -0.593 OA
HETATM   56  O9  UNL     1      46.081 -18.279  30.746  1.00  0.00    -0.593 OA
HETATM   57  O10 UNL     1      47.038 -16.178  29.526  1.00  0.00    -0.593 OA
ENDBRANCH  38  54
ENDBRANCH   4  38
TORSDOF 15
ENDMDL