MODEL 5
REMARK VINA RESULT: -6.752585075      2.577      3.690
REMARK  8 active torsions:
REMARK  status: ('A' for Active; 'I' for Inactive)
REMARK    1  A    between atoms: O1_1  and  C1_3
REMARK    2  A    between atoms: C1_3  and  O2_4
REMARK    3  A    between atoms: C1_3  and  N1_6
REMARK    4  A    between atoms: N1_6  and  C2_9
REMARK    5  A    between atoms: C2_9  and  C3_10
REMARK    6  A    between atoms: C5_12  and  C6_13
REMARK    7  A    between atoms: C6_13  and  O3_14
REMARK    8  A    between atoms: C6_13  and  C7_16
ROOT
HETATM    1  C3  UNL     1      -1.443  -6.516  -8.322  1.00  0.00     0.018 A
HETATM    2  C4  UNL     1      -0.291  -5.910  -9.062  1.00  0.00     0.014 A
HETATM    3  C5  UNL     1      -0.177  -7.227  -8.267  1.00  0.00     0.021 A
ENDROOT
BRANCH   1   4
HETATM    4  C2  UNL     1      -1.974  -5.671  -7.193  1.00  0.00     0.243 C
BRANCH   4   5
HETATM    5  N1  UNL     1      -3.081  -6.365  -6.601  1.00  0.00    -0.025 N
ATOM      6  H12 UNL     1      -2.892  -6.577  -5.621  1.00  0.00     0.283 HD
ATOM      7  H11 UNL     1      -3.150  -7.314  -6.968  1.00  0.00     0.283 HD
BRANCH   5   8
HETATM    8  C1  UNL     1      -4.341  -5.666  -6.741  1.00  0.00     0.464 C
BRANCH   8   9
HETATM    9  O1  UNL     1      -5.195  -6.190  -5.758  1.00  0.00    -0.350 OA
ATOM     10  H1  UNL     1      -5.911  -6.634  -6.196  1.00  0.00     0.214 HD
ENDBRANCH   8   9
BRANCH   8  11
HETATM   11  O2  UNL     1      -4.231  -4.314  -6.531  1.00  0.00    -0.350 OA
ATOM     12  H2  UNL     1      -3.307  -4.094  -6.507  1.00  0.00     0.214 HD
ENDBRANCH   8  11
ENDBRANCH   5   8
ENDBRANCH   4   5
ENDBRANCH   1   4
BRANCH   3  13
HETATM   13  C6  UNL     1       0.763  -7.208  -7.124  1.00  0.00     0.126 C
BRANCH  13  14
HETATM   14  O3  UNL     1       1.943  -6.571  -7.503  1.00  0.00    -0.395 OA
ATOM     15  H3  UNL     1       2.287  -6.076  -6.769  1.00  0.00     0.210 HD
ENDBRANCH  13  14
BRANCH  13  16
HETATM   16  C7  UNL     1       1.107  -8.523  -6.538  1.00  0.00     0.015 C
HETATM   17  C8  UNL     1       1.694  -8.460  -5.157  1.00  0.00     0.007 C
HETATM   18  C9  UNL     1       1.858  -9.960  -4.889  1.00  0.00     0.000 C
HETATM   19  C10 UNL     1       0.640 -10.586  -5.540  1.00  0.00     0.000 C
HETATM   20  C11 UNL     1      -0.024  -9.467  -6.338  1.00  0.00     0.007 C
ENDBRANCH  13  16
ENDBRANCH   3  13
TORSDOF 8
ENDMDL