MODEL 2
REMARK VINA RESULT: -6.637603660      5.042      7.664
REMARK  7 active torsions:
REMARK  status: ('A' for Active; 'I' for Inactive)
REMARK    1  A    between atoms: C2_2  and  C3_3
REMARK    2  A    between atoms: C2_2  and  N1_6
REMARK    3  A    between atoms: C3_3  and  O1_4
REMARK    4  A    between atoms: N1_6  and  C4_8
REMARK    5  A    between atoms: C4_8  and  N3_11
REMARK    6  A    between atoms: N3_11  and  C6_13
REMARK    7  A    between atoms: C6_13  and  C7_14
ROOT
HETATM    1  C4  UNL     1      -5.856  -7.993  -8.114  1.00  0.00     0.180 C
HETATM    2  C5  UNL     1      -5.813  -7.189  -6.937  1.00  0.00     0.136 C
HETATM    3  N2  UNL     1      -5.767  -6.548  -5.954  1.00  0.00    -0.188 NA
ENDROOT
BRANCH   1   4
HETATM    4  N1  UNL     1      -7.091  -8.542  -8.480  1.00  0.00    -0.361 N
ATOM      5  H1  UNL     1      -7.103  -9.406  -9.022  1.00  0.00     0.162 HD
BRANCH   4   6
HETATM    6  C2  UNL     1      -8.306  -7.954  -8.131  1.00  0.00     0.103 C
HETATM    7  C1  UNL     1      -8.859  -7.128  -9.281  1.00  0.00     0.034 C
BRANCH   6   8
HETATM    8  C3  UNL     1      -9.416  -8.929  -7.761  1.00  0.00     0.188 C
BRANCH   8   9
HETATM    9  O1  UNL     1     -10.337  -8.221  -6.988  1.00  0.00    -0.399 OA
ATOM     10  H1  UNL     1     -10.192  -8.476  -6.084  1.00  0.00     0.209 HD
ENDBRANCH   8   9
ENDBRANCH   6   8
ENDBRANCH   4   6
ENDBRANCH   1   4
BRANCH   1  11
HETATM   11  N3  UNL     1      -5.006  -7.540  -9.202  1.00  0.00    -0.367 N
ATOM     12  H3  UNL     1      -5.321  -7.217 -10.116  1.00  0.00     0.161 HD
BRANCH  11  13
HETATM   13  C6  UNL     1      -3.641  -7.630  -8.758  1.00  0.00     0.127 C
BRANCH  13  14
HETATM   14  C7  UNL     1      -2.854  -6.430  -9.150  1.00  0.00     0.010 C
HETATM   15  C8  UNL     1      -3.454  -5.097  -8.988  1.00  0.00     0.050 C
HETATM   16  C9  UNL     1      -2.515  -4.020  -8.532  1.00  0.00     0.056 C
HETATM   17  N4  UNL     1      -1.141  -4.188  -8.765  1.00  0.00    -0.402 N
HETATM   18  C10 UNL     1      -0.669  -5.467  -9.186  1.00  0.00     0.119 C
ATOM     19  H4  UNL     1      -0.493  -3.411  -8.635  1.00  0.00     0.158 HD
HETATM   20  C11 UNL     1      -1.489  -6.536  -8.472  1.00  0.00     0.026 C
ENDBRANCH  13  14
ENDBRANCH  11  13
ENDBRANCH   1  11
TORSDOF 7
ENDMDL