MODEL 2
REMARK VINA RESULT: -6.298239262      4.658      6.220
REMARK  6 active torsions:
REMARK  status: ('A' for Active; 'I' for Inactive)
REMARK    1  A    between atoms: O1_1  and  C1_3
REMARK    2  A    between atoms: C1_3  and  O2_4
REMARK    3  A    between atoms: O2_4  and  C2_5
REMARK    4  A    between atoms: C2_5  and  C3_6
REMARK    5  A    between atoms: C8_11  and  N1_12
REMARK    6  A    between atoms: N1_12  and  C9_14
ROOT
HETATM    1  C3  UNL     1      -7.869  -6.603  -8.460  1.00  0.00     0.032 C
HETATM    2  C4  UNL     1      -8.356  -7.434  -9.585  1.00  0.00     0.009 C
HETATM    3  C5  UNL     1      -7.608  -8.669  -9.928  1.00  0.00     0.001 C
HETATM    4  C6  UNL     1      -6.734  -9.282  -8.898  1.00  0.00     0.002 C
HETATM    5  C7  UNL     1      -6.660  -8.492  -7.602  1.00  0.00     0.025 C
HETATM    6  C8  UNL     1      -6.470  -7.087  -8.000  1.00  0.00     0.083 C
ENDROOT
BRANCH   6   7
HETATM    7  N1  UNL     1      -5.851  -6.152  -7.180  1.00  0.00    -0.411 N
ATOM      8  H1  UNL     1      -6.191  -5.977  -6.234  1.00  0.00     0.154 HD
BRANCH   7   9
HETATM    9  C9  UNL     1      -4.737  -5.452  -7.698  1.00  0.00     0.104 C
HETATM   10  C10 UNL     1      -4.050  -5.971  -8.905  1.00  0.00     0.054 C
HETATM   11  C11 UNL     1      -3.000  -6.909  -8.261  1.00  0.00     0.234 C
HETATM   12  N2  UNL     1      -2.740  -6.424  -6.945  1.00  0.00    -0.073 N
HETATM   13  C12 UNL     1      -3.586  -5.284  -6.710  1.00  0.00     0.256 C
ATOM     14  H22 UNL     1      -2.846  -7.145  -6.232  1.00  0.00     0.277 HD
ATOM     15  H21 UNL     1      -1.753  -6.219  -6.789  1.00  0.00     0.277 HD
ENDBRANCH   7   9
ENDBRANCH   6   7
BRANCH   1  16
HETATM   16  C2  UNL     1      -8.841  -6.584  -7.311  1.00  0.00     0.177 C
BRANCH  16  17
HETATM   17  O2  UNL     1      -8.813  -5.430  -6.554  1.00  0.00    -0.367 OA
BRANCH  17  18
HETATM   18  C1  UNL     1      -9.040  -4.343  -7.374  1.00  0.00     0.334 C
BRANCH  18  19
HETATM   19  O1  UNL     1      -9.703  -3.313  -6.679  1.00  0.00    -0.377 OA
ATOM     20  H1  UNL     1      -9.166  -2.531  -6.632  1.00  0.00     0.212 HD
ENDBRANCH  18  19
ENDBRANCH  17  18
ENDBRANCH  16  17
ENDBRANCH   1  16
TORSDOF 6
ENDMDL