MODEL 1
REMARK VINA RESULT: -6.875548603      0.000      0.000
REMARK  7 active torsions:
REMARK  status: ('A' for Active; 'I' for Inactive)
REMARK    1  A    between atoms: C2_2  and  C3_3
REMARK    2  A    between atoms: C4_5  and  C5_6
REMARK    3  A    between atoms: C5_6  and  N1_7
REMARK    4  A    between atoms: C5_6  and  C11_14
REMARK    5  A    between atoms: N1_7  and  C6_9
REMARK    6  A    between atoms: C11_14  and  N3_18
REMARK    7  A    between atoms: N3_18  and  N4_20
ROOT
HETATM    1  C5  UNL     1      -3.346  -4.721  -8.689  1.00  0.00     0.083 C
ENDROOT
BRANCH   1   2
HETATM    2  C4  UNL     1      -3.836  -6.028  -9.099  1.00  0.00     0.208 A
HETATM    3  C3  UNL     1      -4.782  -6.882  -8.405  1.00  0.00     0.179 A
HETATM    4  O1  UNL     1      -3.389  -7.212  -8.501  1.00  0.00    -0.365 OA
BRANCH   3   5
HETATM    5  C2  UNL     1      -5.597  -7.891  -9.180  1.00  0.00    -0.003 C
HETATM    6  C1  UNL     1      -6.912  -7.888  -9.181  1.00  0.00     0.009 C
ENDBRANCH   3   5
ENDBRANCH   1   2
BRANCH   1   7
HETATM    7  N1  UNL     1      -3.661  -3.641  -9.627  1.00  0.00    -0.383 N
ATOM      8  H1  UNL     1      -3.324  -3.653 -10.589  1.00  0.00     0.160 HD
BRANCH   7   9
HETATM    9  C6  UNL     1      -4.451  -2.587  -9.138  1.00  0.00     0.081 C
HETATM   10  C7  UNL     1      -5.717  -2.946  -8.422  1.00  0.00     0.025 C
HETATM   11  C8  UNL     1      -6.349  -1.541  -8.320  1.00  0.00     0.002 C
HETATM   12  C9  UNL     1      -6.304  -1.145  -9.789  1.00  0.00     0.002 C
HETATM   13  C10 UNL     1      -5.035  -1.753 -10.301  1.00  0.00     0.025 C
ENDBRANCH   7   9
ENDBRANCH   1   7
BRANCH   1  14
HETATM   14  C11 UNL     1      -2.038  -4.541  -8.076  1.00  0.00     0.138 C
HETATM   15  N2  UNL     1      -1.603  -5.109  -7.046  1.00  0.00    -0.383 N
ATOM     16  H22 UNL     1      -2.255  -5.770  -6.622  1.00  0.00     0.157 HD
ATOM     17  H21 UNL     1      -0.687  -4.984  -6.616  1.00  0.00     0.157 HD
BRANCH  14  18
HETATM   18  N3  UNL     1      -1.103  -3.592  -8.685  1.00  0.00    -0.291 N
ATOM     19  H3  UNL     1      -0.580  -3.857  -9.519  1.00  0.00     0.188 HD
BRANCH  18  20
HETATM   20  N4  UNL     1      -0.925  -2.319  -8.124  1.00  0.00    -0.344 N
ATOM     21  H42 UNL     1      -0.597  -2.246  -7.161  1.00  0.00     0.176 HD
ATOM     22  H41 UNL     1      -1.122  -1.484  -8.675  1.00  0.00     0.176 HD
ENDBRANCH  18  20
ENDBRANCH  14  18
ENDBRANCH   1  14
TORSDOF 7
ENDMDL