MODEL 1
REMARK VINA RESULT: -7.089362935      0.000      0.000
REMARK  8 active torsions:
REMARK  status: ('A' for Active; 'I' for Inactive)
REMARK    1  A    between atoms: N1_2  and  C2_5
REMARK    2  A    between atoms: C2_5  and  C3_6
REMARK    3  A    between atoms: C3_6  and  O1_7
REMARK    4  A    between atoms: C3_6  and  C4_9
REMARK    5  A    between atoms: C4_9  and  O2_10
REMARK    6  A    between atoms: C4_9  and  C5_12
REMARK    7  A    between atoms: C5_12  and  O3_13
REMARK    8  A    between atoms: C5_12  and  C6_15
ROOT
HETATM    1  C4  UNL     1      -4.324  -5.242  -7.560  1.00  0.00     0.177 C
ENDROOT
BRANCH   1   2
HETATM    2  C3  UNL     1      -2.871  -5.424  -7.748  1.00  0.00     0.175 C
BRANCH   2   3
HETATM    3  C2  UNL     1      -2.348  -4.612  -8.897  1.00  0.00     0.266 C
BRANCH   3   4
HETATM    4  N1  UNL     1      -0.945  -4.413  -8.982  1.00  0.00    -0.076 N
HETATM    5  C1  UNL     1      -0.288  -5.681  -9.425  1.00  0.00     0.267 C
ATOM      6  H12 UNL     1      -0.553  -4.060  -8.110  1.00  0.00     0.276 HD
ATOM      7  H11 UNL     1      -0.703  -3.624  -9.581  1.00  0.00     0.276 HD
ENDBRANCH   3   4
ENDBRANCH   2   3
BRANCH   2   8
HETATM    8  O1  UNL     1      -2.113  -5.108  -6.616  1.00  0.00    -0.391 OA
ATOM      9  H1  UNL     1      -2.010  -5.900  -6.102  1.00  0.00     0.210 HD
ENDBRANCH   2   8
ENDBRANCH   1   2
BRANCH   1  10
HETATM   10  O2  UNL     1      -4.425  -4.479  -6.323  1.00  0.00    -0.390 OA
ATOM     11  H2  UNL     1      -4.165  -5.098  -5.652  1.00  0.00     0.210 HD
ENDBRANCH   1  10
BRANCH   1  12
HETATM   12  C5  UNL     1      -5.177  -6.430  -7.316  1.00  0.00     0.153 C
BRANCH  12  13
HETATM   13  O3  UNL     1      -5.682  -6.208  -5.969  1.00  0.00    -0.393 OA
ATOM     14  H3  UNL     1      -6.322  -6.901  -5.860  1.00  0.00     0.210 HD
ENDBRANCH  12  13
BRANCH  12  15
HETATM   15  C6  UNL     1      -6.440  -6.573  -8.127  1.00  0.00     0.017 C
HETATM   16  C7  UNL     1      -6.363  -7.608  -9.165  1.00  0.00     0.007 C
HETATM   17  C8  UNL     1      -7.725  -8.154  -9.582  1.00  0.00     0.000 C
HETATM   18  C9  UNL     1      -8.826  -7.185  -9.234  1.00  0.00     0.000 C
HETATM   19  C10 UNL     1      -8.896  -7.101  -7.751  1.00  0.00     0.000 C
HETATM   20  C11 UNL     1      -7.604  -6.700  -7.166  1.00  0.00     0.007 C
ENDBRANCH  12  15
ENDBRANCH   1  12
TORSDOF 8
ENDMDL