MODEL 5
REMARK VINA RESULT: -6.302697344      3.748      4.721
REMARK  9 active torsions:
REMARK  status: ('A' for Active; 'I' for Inactive)
REMARK    1  A    between atoms: O1_1  and  C1_3
REMARK    2  A    between atoms: C1_3  and  C2_4
REMARK    3  A    between atoms: C2_4  and  C3_5
REMARK    4  A    between atoms: C3_5  and  O2_6
REMARK    5  A    between atoms: C3_5  and  C4_8
REMARK    6  A    between atoms: C4_8  and  O3_9
REMARK    7  A    between atoms: C4_8  and  C5_11
REMARK    8  A    between atoms: C5_11  and  O4_12
REMARK    9  A    between atoms: C5_11  and  C6_14
ROOT
HETATM    1  C4  UNL     1      -3.636  -3.682  -8.385  1.00  0.00     0.176 C
ENDROOT
BRANCH   1   2
HETATM    2  C3  UNL     1      -2.246  -4.177  -8.594  1.00  0.00     0.151 C
BRANCH   2   3
HETATM    3  C2  UNL     1      -1.836  -5.321  -7.723  1.00  0.00     0.060 C
BRANCH   3   4
HETATM    4  C1  UNL     1      -0.842  -6.178  -8.506  1.00  0.00     0.166 C
BRANCH   4   5
HETATM    5  O1  UNL     1       0.135  -5.363  -9.073  1.00  0.00    -0.401 OA
ATOM      6  H1  UNL     1      -0.279  -4.637  -9.525  1.00  0.00     0.209 HD
ENDBRANCH   4   5
ENDBRANCH   3   4
ENDBRANCH   2   3
BRANCH   2   7
HETATM    7  O2  UNL     1      -1.384  -3.099  -8.283  1.00  0.00    -0.393 OA
ATOM      8  H2  UNL     1      -1.035  -2.783  -9.108  1.00  0.00     0.210 HD
ENDBRANCH   2   7
ENDBRANCH   1   2
BRANCH   1   9
HETATM    9  O3  UNL     1      -4.025  -4.079  -7.103  1.00  0.00    -0.390 OA
ATOM     10  H3  UNL     1      -4.673  -4.766  -7.208  1.00  0.00     0.210 HD
ENDBRANCH   1   9
BRANCH   1  11
HETATM   11  C5  UNL     1      -3.848  -2.231  -8.656  1.00  0.00     0.153 C
BRANCH  11  12
HETATM   12  O4  UNL     1      -3.855  -1.464  -7.491  1.00  0.00    -0.393 OA
ATOM     13  H4  UNL     1      -3.510  -1.935  -6.742  1.00  0.00     0.210 HD
ENDBRANCH  11  12
BRANCH  11  14
HETATM   14  C6  UNL     1      -5.033  -1.980  -9.527  1.00  0.00     0.017 C
HETATM   15  C7  UNL     1      -4.743  -0.804 -10.461  1.00  0.00     0.007 C
HETATM   16  C8  UNL     1      -5.739  -0.882 -11.581  1.00  0.00     0.000 C
HETATM   17  C9  UNL     1      -7.113  -0.949 -11.031  1.00  0.00     0.000 C
HETATM   18  C10 UNL     1      -7.247  -0.819  -9.550  1.00  0.00     0.000 C
HETATM   19  C11 UNL     1      -6.328  -1.744  -8.785  1.00  0.00     0.007 C
ENDBRANCH  11  14
ENDBRANCH   1  11
TORSDOF 9
ENDMDL