MODEL 4
REMARK VINA RESULT: -6.701931531      1.536      2.047
REMARK  6 active torsions:
REMARK  status: ('A' for Active; 'I' for Inactive)
REMARK    1  A    between atoms: N1_2  and  S1_4
REMARK    2  A    between atoms: S1_4  and  N2_5
REMARK    3  A    between atoms: S1_4  and  N3_9
REMARK    4  A    between atoms: N3_9  and  N4_11
REMARK    5  A    between atoms: N4_11  and  C2_12
REMARK    6  A    between atoms: C2_12  and  C3_13
ROOT
HETATM    1  N3  UNL     1       0.102  -6.231  -7.534  1.00  0.00    -0.232 N
ATOM      2  H3  UNL     1      -0.161  -6.023  -6.570  1.00  0.00     0.195 HD
ENDROOT
BRANCH   1   3
HETATM    3  S1  UNL     1      -0.701  -5.581  -8.894  1.00  0.00     0.203 S
HETATM    4  O1  UNL     1       0.082  -5.670 -10.154  1.00  0.00    -0.205 OA
BRANCH   3   5
HETATM    5  N1  UNL     1      -2.279  -6.302  -9.097  1.00  0.00    -0.323 N
HETATM    6  C1  UNL     1      -3.171  -5.214  -9.464  1.00  0.00     0.159 C
ATOM      7  H1  UNL     1      -2.524  -7.286  -8.983  1.00  0.00     0.171 HD
ENDBRANCH   3   5
BRANCH   3   8
HETATM    8  N2  UNL     1      -0.962  -4.059  -8.613  1.00  0.00    -0.328 N
ATOM      9  H22 UNL     1      -0.851  -3.581  -7.719  1.00  0.00     0.169 HD
ATOM     10  H21 UNL     1      -1.262  -3.662  -9.504  1.00  0.00     0.169 HD
ENDBRANCH   3   8
ENDBRANCH   1   3
BRANCH   1  11
HETATM   11  N4  UNL     1       1.160  -7.084  -7.884  1.00  0.00    -0.131 NA
BRANCH  11  12
HETATM   12  C2  UNL     1       2.052  -7.186  -6.772  1.00  0.00     0.140 C
BRANCH  12  13
HETATM   13  C3  UNL     1       1.650  -8.296  -5.833  1.00  0.00     0.002 C
HETATM   14  C4  UNL     1       1.623  -9.641  -6.559  1.00  0.00     0.006 C
HETATM   15  C5  UNL     1       0.945 -10.601  -5.585  1.00  0.00     0.000 C
HETATM   16  C6  UNL     1       1.869 -10.809  -4.440  1.00  0.00     0.000 C
HETATM   17  C7  UNL     1       2.894  -9.761  -4.214  1.00  0.00     0.000 C
HETATM   18  C8  UNL     1       2.489  -8.366  -4.587  1.00  0.00     0.006 C
ENDBRANCH  12  13
ENDBRANCH  11  12
ENDBRANCH   1  11
TORSDOF 6
ENDMDL