MODEL 5
REMARK VINA RESULT: -6.358073343      0.852      1.516
REMARK  8 active torsions:
REMARK  status: ('A' for Active; 'I' for Inactive)
REMARK    1  A    between atoms: C1_4  and  C2_5
REMARK    2  A    between atoms: C2_5  and  O1_6
REMARK    3  A    between atoms: C2_5  and  C3_8
REMARK    4  A    between atoms: C3_8  and  O2_9
REMARK    5  A    between atoms: C3_8  and  C4_11
REMARK    6  A    between atoms: C4_11  and  C5_12
REMARK    7  A    between atoms: C5_12  and  O3_13
REMARK    8  A    between atoms: C5_12  and  N2_15
ROOT
HETATM    1  C3  UNL     1      -3.822  -5.227  -7.655  1.00  0.00     0.156 C
ENDROOT
BRANCH   1   2
HETATM    2  C2  UNL     1      -2.372  -4.935  -7.977  1.00  0.00     0.184 C
BRANCH   2   3
HETATM    3  C1  UNL     1      -2.206  -3.547  -8.488  1.00  0.00     0.087 C
HETATM    4  N1  UNL     1      -1.221  -2.797  -8.215  1.00  0.00    -0.409 N
ATOM      5  H12 UNL     1      -0.504  -3.185  -7.603  1.00  0.00     0.155 HD
ATOM      6  H11 UNL     1      -1.107  -1.845  -8.565  1.00  0.00     0.155 HD
ENDBRANCH   2   3
BRANCH   2   7
HETATM    7  O1  UNL     1      -1.569  -5.049  -6.836  1.00  0.00    -0.388 OA
ATOM      8  H1  UNL     1      -1.731  -5.910  -6.467  1.00  0.00     0.210 HD
ENDBRANCH   2   7
ENDBRANCH   1   2
BRANCH   1   9
HETATM    9  O2  UNL     1      -4.107  -4.324  -6.581  1.00  0.00    -0.393 OA
ATOM     10  H2  UNL     1      -4.227  -4.903  -5.838  1.00  0.00     0.210 HD
ENDBRANCH   1   9
BRANCH   1  11
HETATM   11  C4  UNL     1      -4.113  -6.567  -7.144  1.00  0.00     0.088 C
BRANCH  11  12
HETATM   12  C5  UNL     1      -5.489  -7.084  -7.048  1.00  0.00     0.221 C
BRANCH  12  13
HETATM   13  O3  UNL     1      -6.028  -6.342  -5.906  1.00  0.00    -0.377 OA
ATOM     14  H3  UNL     1      -6.965  -6.379  -6.060  1.00  0.00     0.212 HD
ENDBRANCH  12  13
BRANCH  12  15
HETATM   15  N2  UNL     1      -6.402  -6.860  -8.098  1.00  0.00    -0.367 N
HETATM   16  C6  UNL     1      -6.674  -7.877  -9.018  1.00  0.00     0.060 C
HETATM   17  C7  UNL     1      -8.033  -7.725  -9.704  1.00  0.00     0.044 C
HETATM   18  C8  UNL     1      -9.161  -7.626  -8.741  1.00  0.00     0.007 C
HETATM   19  C9  UNL     1      -8.657  -7.115  -7.394  1.00  0.00     0.020 C
HETATM   20  C10 UNL     1      -7.567  -6.111  -7.699  1.00  0.00     0.124 C
ENDBRANCH  12  15
ENDBRANCH  11  12
ENDBRANCH   1  11
TORSDOF 8
ENDMDL