MODEL 3
REMARK VINA RESULT: -6.150085369      3.792      5.718
REMARK  7 active torsions:
REMARK  status: ('A' for Active; 'I' for Inactive)
REMARK    1  A    between atoms: C2_2  and  C4_4
REMARK    2  A    between atoms: C4_4  and  O1_5
REMARK    3  A    between atoms: C4_4  and  C5_7
REMARK    4  A    between atoms: C4_4  and  C6_10
REMARK    5  A    between atoms: C5_7  and  O2_8
REMARK    6  A    between atoms: C6_10  and  O3_11
REMARK    7  A    between atoms: O3_11  and  C7_12
ROOT
HETATM    1  C6  UNL     1      -4.721  -7.530  -8.035  1.00  0.00     0.208 C
ENDROOT
BRANCH   1   2
HETATM    2  C4  UNL     1      -6.218  -7.690  -7.821  1.00  0.00     0.103 C
BRANCH   2   3
HETATM    3  C2  UNL     1      -6.989  -7.517  -9.087  1.00  0.00     0.016 C
HETATM    4  C1  UNL     1      -7.149  -8.766  -9.894  1.00  0.00     0.012 C
HETATM    5  C3  UNL     1      -8.324  -6.890  -8.738  1.00  0.00     0.012 C
ENDBRANCH   2   3
BRANCH   2   6
HETATM    6  O1  UNL     1      -6.496  -8.962  -7.319  1.00  0.00    -0.385 OA
ATOM      7  H1  UNL     1      -6.328  -8.951  -6.385  1.00  0.00     0.210 HD
ENDBRANCH   2   6
BRANCH   2   8
HETATM    8  C5  UNL     1      -6.670  -6.694  -6.746  1.00  0.00     0.204 C
BRANCH   8   9
HETATM    9  O2  UNL     1      -5.594  -6.377  -5.918  1.00  0.00    -0.398 OA
ATOM     10  H2  UNL     1      -5.804  -5.609  -5.400  1.00  0.00     0.209 HD
ENDBRANCH   8   9
ENDBRANCH   2   8
ENDBRANCH   1   2
BRANCH   1  11
HETATM   11  O3  UNL     1      -4.530  -6.457  -8.862  1.00  0.00    -0.383 OA
BRANCH  11  12
HETATM   12  C7  UNL     1      -3.223  -6.201  -9.194  1.00  0.00     0.124 C
HETATM   13  C8  UNL     1      -2.370  -6.681  -8.012  1.00  0.00     0.059 C
HETATM   14  C9  UNL     1      -0.900  -6.468  -8.297  1.00  0.00     0.235 C
HETATM   15  N1  UNL     1      -0.631  -5.164  -8.845  1.00  0.00    -0.075 N
HETATM   16  C10 UNL     1      -1.741  -4.282  -8.567  1.00  0.00     0.235 C
ATOM     17  H12 UNL     1       0.255  -4.783  -8.512  1.00  0.00     0.277 HD
ATOM     18  H11 UNL     1      -0.410  -5.203  -9.840  1.00  0.00     0.277 HD
HETATM   19  C11 UNL     1      -2.998  -4.712  -9.317  1.00  0.00     0.059 C
ENDBRANCH  11  12
ENDBRANCH   1  11
TORSDOF 7
ENDMDL