MODEL 3
REMARK VINA RESULT: -6.510683563      6.687      8.380
REMARK  7 active torsions:
REMARK  status: ('A' for Active; 'I' for Inactive)
REMARK    1  A    between atoms: C2_2  and  O1_3
REMARK    2  A    between atoms: C2_2  and  C3_5
REMARK    3  A    between atoms: C3_5  and  C4_6
REMARK    4  A    between atoms: C4_6  and  C5_7
REMARK    5  A    between atoms: C4_6  and  C11_17
REMARK    6  A    between atoms: C6_8  and  C7_9
REMARK    7  A    between atoms: C11_17  and  O2_19
ROOT
HETATM    1  C4  UNL     1      -5.632  -6.725  -8.117  1.00  0.00     0.038 C
ENDROOT
BRANCH   1   2
HETATM    2  C3  UNL     1      -4.337  -5.984  -8.023  1.00  0.00     0.042 C
BRANCH   2   3
HETATM    3  C2  UNL     1      -4.436  -4.499  -7.964  1.00  0.00     0.114 C
HETATM    4  C1  UNL     1      -3.171  -3.971  -8.662  1.00  0.00     0.039 C
BRANCH   3   5
HETATM    5  O1  UNL     1      -4.401  -3.972  -6.693  1.00  0.00    -0.396 OA
ATOM      6  H1  UNL     1      -4.798  -4.630  -6.134  1.00  0.00     0.210 HD
ENDBRANCH   3   5
ENDBRANCH   2   3
ENDBRANCH   1   2
BRANCH   1   7
HETATM    7  C5  UNL     1      -5.566  -7.923  -8.983  1.00  0.00    -0.021 C
HETATM    8  C6  UNL     1      -6.657  -8.591  -9.320  1.00  0.00    -0.005 C
BRANCH   8   9
HETATM    9  C7  UNL     1      -6.637  -9.800 -10.187  1.00  0.00     0.106 C
HETATM   10  C8  UNL     1      -5.548 -10.770  -9.766  1.00  0.00     0.048 C
HETATM   11  C9  UNL     1      -5.501 -11.834 -10.830  1.00  0.00     0.122 C
HETATM   12  N1  UNL     1      -6.754 -12.478 -10.930  1.00  0.00    -0.386 N
HETATM   13  C10 UNL     1      -7.851 -11.883 -10.287  1.00  0.00     0.171 C
ATOM     14  H1  UNL     1      -6.858 -13.347 -11.453  1.00  0.00     0.160 HD
HETATM   15  N2  UNL     1      -7.907 -10.461 -10.268  1.00  0.00    -0.378 N
ATOM     16  H2  UNL     1      -8.787  -9.948 -10.309  1.00  0.00     0.160 HD
ENDBRANCH   8   9
ENDBRANCH   1   7
BRANCH   1  17
HETATM   17  C11 UNL     1      -6.321  -6.930  -6.812  1.00  0.00     0.121 C
HETATM   18  C12 UNL     1      -7.739  -6.375  -6.950  1.00  0.00     0.040 C
BRANCH  17  19
HETATM   19  O2  UNL     1      -5.671  -6.385  -5.721  1.00  0.00    -0.395 OA
ATOM     20  H2  UNL     1      -5.450  -5.465  -5.807  1.00  0.00     0.210 HD
ENDBRANCH  17  19
ENDBRANCH   1  17
TORSDOF 7
ENDMDL