MODEL 3
REMARK VINA RESULT: -7.865694798      3.042      8.162
REMARK  8 active torsions:
REMARK  status: ('A' for Active; 'I' for Inactive)
REMARK       I    between atoms: C1_2  and  N1_3
REMARK    1  A    between atoms: C1_2  and  C7_10
REMARK    2  A    between atoms: N1_3  and  C2_5
REMARK    3  A    between atoms: N2_13  and  S1_14
REMARK    4  A    between atoms: S1_14  and  N3_17
REMARK    5  A    between atoms: N3_17  and  C10_19
REMARK    6  A    between atoms: C14_26  and  C15_27
REMARK    7  A    between atoms: C15_27  and  C16_28
REMARK    8  A    between atoms: C16_28  and  N5_29
ROOT
HETATM    1  C10 UNL     1      14.406  -3.332  47.026  1.00  0.00     0.124 C
HETATM    2  C11 UNL     1      15.374  -4.456  46.762  1.00  0.00     0.258 C
HETATM    3  N4  UNL     1      15.054  -5.561  47.644  1.00  0.00    -0.073 N
ATOM      4  H41 UNL     1      15.832  -6.216  47.727  1.00  0.00     0.277 HD
ATOM      5  H42 UNL     1      14.368  -6.192  47.228  1.00  0.00     0.277 HD
HETATM    6  C12 UNL     1      14.619  -5.073  48.942  1.00  0.00     0.232 C
HETATM    7  C13 UNL     1      15.319  -3.731  49.232  1.00  0.00     0.034 C
HETATM    8  C14 UNL     1      14.889  -2.657  48.338  1.00  0.00     0.014 C
ENDROOT
BRANCH   1   9
HETATM    9  N3  UNL     1      14.247  -2.409  45.990  1.00  0.00    -0.295 N
ATOM     10  H3  UNL     1      13.303  -2.155  45.701  1.00  0.00     0.174 HD
BRANCH   9  11
HETATM   11  S1  UNL     1      15.542  -1.707  45.207  1.00  0.00     0.324 S
HETATM   12  O2  UNL     1      15.052  -1.218  43.837  1.00  0.00    -0.182 OA
HETATM   13  O3  UNL     1      16.632  -2.709  44.800  1.00  0.00    -0.182 OA
BRANCH  11  14
HETATM   14  N2  UNL     1      16.241  -0.333  45.930  1.00  0.00    -0.253 N
HETATM   15  C9  UNL     1      15.309   0.634  46.279  1.00  0.00     0.083 C
HETATM   16  C8  UNL     1      15.752   2.068  46.207  1.00  0.00     0.060 C
HETATM   17  C7  UNL     1      16.566   2.190  44.936  1.00  0.00     0.087 C
HETATM   18  C26 UNL     1      17.832   1.412  45.197  1.00  0.00     0.060 C
HETATM   19  C25 UNL     1      17.527   0.002  45.528  1.00  0.00     0.083 C
BRANCH  17  20
HETATM   20  C1  UNL     1      16.825   3.596  44.572  1.00  0.00     0.222 C
HETATM   21  O1  UNL     1      17.431   3.805  43.485  1.00  0.00    -0.273 OA
HETATM   22  N1  UNL     1      16.434   4.696  45.365  1.00  0.00    -0.356 N
ATOM     23  H1  UNL     1      15.944   4.537  46.245  1.00  0.00     0.162 HD
BRANCH  22  24
HETATM   24  C2  UNL     1      16.722   6.038  44.943  1.00  0.00     0.084 C
HETATM   25  C3  UNL     1      15.716   7.051  45.430  1.00  0.00     0.025 C
HETATM   26  C4  UNL     1      16.442   8.381  45.237  1.00  0.00     0.002 C
HETATM   27  C5  UNL     1      17.914   8.043  45.151  1.00  0.00     0.002 C
HETATM   28  C6  UNL     1      18.019   6.563  45.510  1.00  0.00     0.025 C
ENDBRANCH  22  24
ENDBRANCH  17  20
ENDBRANCH  11  14
ENDBRANCH   9  11
ENDBRANCH   1   9
BRANCH   8  29
HETATM   29  C15 UNL     1      13.887  -1.674  48.728  1.00  0.00     0.027 C
BRANCH  29  30
HETATM   30  C16 UNL     1      14.231  -0.474  49.506  1.00  0.00     0.127 C
BRANCH  30  31
HETATM   31  N5  UNL     1      13.172   0.424  49.765  1.00  0.00    -0.373 N
HETATM   32  C17 UNL     1      13.532   1.698  50.249  1.00  0.00     0.065 C
HETATM   33  C18 UNL     1      12.869   2.187  51.480  1.00  0.00     0.077 C
HETATM   34  C19 UNL     1      11.395   1.908  51.383  1.00  0.00     0.135 C
HETATM   35  O4  UNL     1      10.676   2.463  52.428  1.00  0.00    -0.385 OA
HETATM   36  C23 UNL     1      11.243   0.404  51.326  1.00  0.00     0.053 C
HETATM   37  C20 UNL     1       9.938   1.560  53.152  1.00  0.00     0.168 C
HETATM   38  C21 UNL     1      10.748   0.408  53.703  1.00  0.00     0.027 C
HETATM   39  C22 UNL     1      11.649  -0.210  52.642  1.00  0.00     0.014 C
HETATM   40  C24 UNL     1      11.934  -0.125  50.139  1.00  0.00     0.070 C
ENDBRANCH  30  31
ENDBRANCH  29  30
ENDBRANCH   8  29
TORSDOF 8
ENDMDL