MODEL 2
REMARK VINA RESULT: -6.202691533      4.500      9.213
REMARK  12 active torsions:
REMARK  status: ('A' for Active; 'I' for Inactive)
REMARK    1  A    between atoms: C2_2  and  C3_3
REMARK    2  A    between atoms: C3_3  and  C4_4
REMARK    3  A    between atoms: C4_4  and  N1_5
REMARK    4  A    between atoms: C4_4  and  C11_18
REMARK       I    between atoms: N1_5  and  C5_7
REMARK    5  A    between atoms: C5_7  and  C6_9
REMARK    6  A    between atoms: C10_13  and  N2_14
REMARK    7  A    between atoms: C11_18  and  C12_20
REMARK       I    between atoms: C12_20  and  N3_22
REMARK    8  A    between atoms: C13_23  and  C14_24
REMARK    9  A    between atoms: C14_24  and  O4_25
REMARK   10  A    between atoms: C14_24  and  N4_27
REMARK   11  A    between atoms: C18_31  and  C19_32
REMARK   12  A    between atoms: C21_36  and  C22_37
REMARK       I    between atoms: C22_37  and  N5_39
ROOT
HETATM    1  C12 UNL     1      14.831  -4.246  48.467  1.00  0.00     0.292 C
HETATM    2  O3  UNL     1      14.407  -5.214  47.764  1.00  0.00    -0.264 OA
HETATM    3  N3  UNL     1      14.855  -2.949  47.848  1.00  0.00    -0.327 N
HETATM    4  C13 UNL     1      15.222  -1.654  48.218  1.00  0.00     0.169 C
HETATM    5  C20 UNL     1      15.396  -1.198  46.771  1.00  0.00     0.055 A
HETATM    6  C21 UNL     1      15.745  -2.136  45.706  1.00  0.00     0.110 A
HETATM    7  C26 UNL     1      14.537  -2.454  46.522  1.00  0.00     0.109 A
ENDROOT
BRANCH   1   8
HETATM    8  C11 UNL     1      15.280  -4.380  49.829  1.00  0.00     0.239 C
HETATM    9  O2  UNL     1      14.862  -3.580  50.687  1.00  0.00    -0.285 OA
BRANCH   8  10
HETATM   10  C4  UNL     1      16.248  -5.481  50.171  1.00  0.00     0.164 C
BRANCH  10  11
HETATM   11  C3  UNL     1      17.182  -4.985  51.207  1.00  0.00     0.033 C
BRANCH  11  12
HETATM   12  C2  UNL     1      18.472  -5.703  51.373  1.00  0.00    -0.002 C
HETATM   13  C1  UNL     1      18.473  -6.946  52.174  1.00  0.00     0.005 C
ENDBRANCH  11  12
ENDBRANCH  10  11
BRANCH  10  14
HETATM   14  N1  UNL     1      16.858  -6.004  48.977  1.00  0.00    -0.349 N
HETATM   15  C5  UNL     1      16.954  -7.354  48.597  1.00  0.00     0.224 C
HETATM   16  O1  UNL     1      16.453  -8.242  49.325  1.00  0.00    -0.273 OA
ATOM     17  H1  UNL     1      17.266  -5.321  48.339  1.00  0.00     0.163 HD
BRANCH  15  18
HETATM   18  C6  UNL     1      17.632  -7.772  47.364  1.00  0.00     0.108 C
HETATM   19  C7  UNL     1      16.794  -8.818  46.611  1.00  0.00     0.016 C
HETATM   20  C8  UNL     1      15.740  -7.941  45.974  1.00  0.00     0.003 C
HETATM   21  C9  UNL     1      16.570  -6.799  45.425  1.00  0.00     0.034 C
HETATM   22  C10 UNL     1      17.798  -6.713  46.330  1.00  0.00     0.196 C
BRANCH  22  23
HETATM   23  N2  UNL     1      18.936  -7.087  45.477  1.00  0.00    -0.074 N
ATOM     24  H23 UNL     1      19.774  -7.309  46.014  1.00  0.00     0.274 HD
ATOM     25  H22 UNL     1      18.813  -7.996  45.031  1.00  0.00     0.274 HD
ATOM     26  H21 UNL     1      19.085  -6.334  44.805  1.00  0.00     0.274 HD
ENDBRANCH  22  23
ENDBRANCH  15  18
ENDBRANCH  10  14
ENDBRANCH   8  10
ENDBRANCH   1   8
BRANCH   4  27
HETATM   27  C14 UNL     1      14.290  -0.833  48.957  1.00  0.00     0.138 C
BRANCH  27  28
HETATM   28  O4  UNL     1      13.271  -1.518  49.473  1.00  0.00    -0.348 OA
ATOM     29  H4  UNL     1      12.700  -1.903  48.817  1.00  0.00     0.219 HD
ENDBRANCH  27  28
BRANCH  27  30
HETATM   30  N4  UNL     1      14.213   0.521  49.255  1.00  0.00    -0.349 N
HETATM   31  C15 UNL     1      14.246   1.585  48.216  1.00  0.00     0.126 C
HETATM   32  C16 UNL     1      14.797   2.802  48.913  1.00  0.00     0.022 C
HETATM   33  C17 UNL     1      15.141   2.327  50.306  1.00  0.00     0.038 C
HETATM   34  C18 UNL     1      14.068   1.224  50.463  1.00  0.00     0.187 C
BRANCH  34  35
HETATM   35  C19 UNL     1      12.761   1.939  50.585  1.00  0.00     0.196 C
HETATM   36  O5  UNL     1      11.734   1.243  50.403  1.00  0.00    -0.646 OA
HETATM   37  O6  UNL     1      12.615   3.263  50.874  1.00  0.00    -0.646 OA
ENDBRANCH  34  35
ENDBRANCH  27  30
ENDBRANCH   4  27
BRANCH   6  38
HETATM   38  C22 UNL     1      15.467  -1.817  44.299  1.00  0.00     0.228 C
HETATM   39  O7  UNL     1      14.839  -2.703  43.623  1.00  0.00    -0.273 OA
HETATM   40  N5  UNL     1      15.833  -0.629  43.645  1.00  0.00    -0.335 N
HETATM   41  C23 UNL     1      14.921   0.257  43.352  1.00  0.00    -0.018 C
ATOM     42  H5  UNL     1      16.808  -0.460  43.399  1.00  0.00     0.168 HD
HETATM   43  C24 UNL     1      15.299   1.531  42.653  1.00  0.00     0.062 C
HETATM   44  C25 UNL     1      13.508   0.004  43.710  1.00  0.00     0.062 C
ENDBRANCH   6  38
TORSDOF 12
ENDMDL