MODEL 1
REMARK VINA RESULT: -6.588537927      0.000      0.000
REMARK  8 active torsions:
REMARK  status: ('A' for Active; 'I' for Inactive)
REMARK    1  A    between atoms: C1_2  and  C2_4
REMARK    2  A    between atoms: C4_6  and  C5_7
REMARK    3  A    between atoms: C5_7  and  N1_8
REMARK    4  A    between atoms: C5_7  and  C9_16
REMARK    5  A    between atoms: N1_8  and  S1_10
REMARK    6  A    between atoms: S1_10  and  C6_13
REMARK       I    between atoms: C9_16  and  N2_18
REMARK    7  A    between atoms: C13_22  and  C14_23
REMARK       I    between atoms: C14_23  and  N3_25
REMARK    8  A    between atoms: N3_25  and  C15_27
ROOT
HETATM    1  C5  UNL     1      14.572  -1.120  44.135  1.00  0.00     0.189 C
ENDROOT
BRANCH   1   2
HETATM    2  C4  UNL     1      14.435  -1.886  45.425  1.00  0.00     0.019 C
HETATM    3  C3  UNL     1      14.357  -0.922  46.601  1.00  0.00     0.024 C
HETATM    4  C2  UNL     1      14.905  -1.547  47.854  1.00  0.00     0.105 C
HETATM    5  C24 UNL     1      14.434  -2.990  47.874  1.00  0.00     0.096 C
HETATM    6  C23 UNL     1      15.166  -3.745  46.807  1.00  0.00     0.021 C
HETATM    7 CL1  UNL     1      14.822  -3.729  49.442  1.00  0.00    -0.124 Cl
HETATM    8  C22 UNL     1      15.542  -2.888  45.608  1.00  0.00     0.009 C
BRANCH   4   9
HETATM    9  C1  UNL     1      14.287  -0.825  49.008  1.00  0.00     0.178 C
HETATM   10  O1  UNL     1      13.105  -0.998  49.352  1.00  0.00    -0.648 OA
HETATM   11  O2  UNL     1      15.077   0.068  49.708  1.00  0.00    -0.648 OA
ENDBRANCH   4   9
ENDBRANCH   1   2
BRANCH   1  12
HETATM   12  N1  UNL     1      14.883   0.240  44.493  1.00  0.00    -0.305 N
ATOM     13  H1  UNL     1      14.314   0.765  45.157  1.00  0.00     0.173 HD
BRANCH  12  14
HETATM   14  S1  UNL     1      16.242   0.918  43.755  1.00  0.00     0.231 S
HETATM   15  O3  UNL     1      16.586   0.309  42.432  1.00  0.00    -0.206 OA
HETATM   16  O4  UNL     1      16.013   2.392  43.486  1.00  0.00    -0.206 OA
BRANCH  14  17
HETATM   17  C6  UNL     1      17.666   0.774  44.790  1.00  0.00     0.129 A
HETATM   18  C7  UNL     1      18.057  -0.506  45.407  1.00  0.00     0.023 A
HETATM   19  C8  UNL     1      17.397   0.559  46.237  1.00  0.00     0.023 A
ENDBRANCH  14  17
ENDBRANCH  12  14
ENDBRANCH   1  12
BRANCH   1  20
HETATM   20  C9  UNL     1      13.223  -1.207  43.484  1.00  0.00     0.244 C
HETATM   21  O5  UNL     1      12.168  -0.894  44.063  1.00  0.00    -0.271 OA
HETATM   22  N2  UNL     1      13.148  -1.665  42.142  1.00  0.00    -0.337 N
HETATM   23  C10 UNL     1      11.949  -1.904  41.352  1.00  0.00     0.127 C
HETATM   24  C13 UNL     1      14.247  -1.945  41.246  1.00  0.00     0.179 C
HETATM   25  C11 UNL     1      12.336  -3.067  40.473  1.00  0.00     0.022 C
HETATM   26  C12 UNL     1      13.841  -3.216  40.553  1.00  0.00     0.037 C
BRANCH  24  27
HETATM   27  C14 UNL     1      14.466  -0.822  40.286  1.00  0.00     0.241 C
HETATM   28  O6  UNL     1      14.899  -1.102  39.147  1.00  0.00    -0.271 OA
HETATM   29  N3  UNL     1      14.197   0.526  40.638  1.00  0.00    -0.354 N
ATOM     30  H3  UNL     1      13.842   0.754  41.567  1.00  0.00     0.162 HD
BRANCH  29  31
HETATM   31  C15 UNL     1      14.426   1.561  39.682  1.00  0.00     0.092 C
HETATM   32  C16 UNL     1      13.128   2.174  39.136  1.00  0.00     0.104 C
HETATM   33  C17 UNL     1      13.692   3.396  38.467  1.00  0.00     0.137 C
HETATM   34  O7  UNL     1      13.317   3.856  37.413  1.00  0.00    -0.297 OA
HETATM   35  C18 UNL     1      14.758   3.886  39.345  1.00  0.00     0.022 A
HETATM   36  C19 UNL     1      14.615   5.273  39.876  1.00  0.00     0.018 A
HETATM   37  C20 UNL     1      15.733   4.909  38.914  1.00  0.00     0.018 A
HETATM   38  C21 UNL     1      15.151   2.774  40.279  1.00  0.00     0.042 C
ENDBRANCH  29  31
ENDBRANCH  24  27
ENDBRANCH   1  20
TORSDOF 8
ENDMDL