MODEL 2
REMARK VINA RESULT: -6.139265185      1.018      1.322
REMARK  8 active torsions:
REMARK  status: ('A' for Active; 'I' for Inactive)
REMARK    1  A    between atoms: C2_2  and  C5_5
REMARK    2  A    between atoms: C5_5  and  N1_6
REMARK    3  A    between atoms: C5_5  and  C11_19
REMARK       I    between atoms: N1_6  and  C6_8
REMARK       I    between atoms: C6_8  and  N2_10
REMARK    4  A    between atoms: N2_10  and  C7_12
REMARK       I    between atoms: C11_19  and  N3_21
REMARK    5  A    between atoms: C15_25  and  C16_26
REMARK       I    between atoms: C16_26  and  N4_28
REMARK    6  A    between atoms: N4_28  and  C17_30
REMARK    7  A    between atoms: C17_30  and  C19_33
REMARK    8  A    between atoms: C19_33  and  C20_34
ROOT
HETATM    1  C17 UNL     1      15.028   0.707  48.719  1.00  0.00     0.193 C
HETATM    2  C18 UNL     1      14.580  -0.617  49.082  1.00  0.00     0.084 C
HETATM    3  N5  UNL     1      14.203  -1.695  49.365  1.00  0.00    -0.195 NA
ENDROOT
BRANCH   1   4
HETATM    4  N4  UNL     1      14.375   1.082  47.492  1.00  0.00    -0.342 N
HETATM    5  C16 UNL     1      15.013   1.063  46.229  1.00  0.00     0.242 C
HETATM    6  O5  UNL     1      16.213   0.694  46.221  1.00  0.00    -0.271 OA
ATOM      7  H4  UNL     1      13.399   1.377  47.535  1.00  0.00     0.163 HD
BRANCH   5   8
HETATM    8  C15 UNL     1      14.320   1.448  45.010  1.00  0.00     0.184 C
HETATM    9  N3  UNL     1      15.275   1.680  43.904  1.00  0.00    -0.336 N
HETATM   10  C11 UNL     1      16.195   2.738  43.822  1.00  0.00     0.244 C
HETATM   11  C12 UNL     1      15.082   0.639  42.922  1.00  0.00     0.132 C
HETATM   12  O4  UNL     1      16.196   3.593  44.794  1.00  0.00    -0.271 OA
HETATM   13  C13 UNL     1      14.592  -0.436  43.846  1.00  0.00     0.019 A
HETATM   14  C14 UNL     1      13.414   0.482  44.382  1.00  0.00     0.032 A
HETATM   15  C21 UNL     1      13.342  -0.923  44.238  1.00  0.00    -0.036 A
HETATM   16  C22 UNL     1      13.197  -1.744  45.516  1.00  0.00     0.016 C
HETATM   17  C23 UNL     1      12.479  -1.533  43.120  1.00  0.00     0.016 C
BRANCH  10  18
HETATM   18  C5  UNL     1      17.137   2.944  42.725  1.00  0.00     0.185 C
BRANCH  18  19
HETATM   19  C2  UNL     1      18.595   2.992  43.138  1.00  0.00    -0.022 C
HETATM   20  C1  UNL     1      18.969   2.022  44.206  1.00  0.00     0.017 C
HETATM   21  C3  UNL     1      19.470   2.860  41.928  1.00  0.00     0.017 C
HETATM   22  C4  UNL     1      18.819   4.416  43.668  1.00  0.00     0.017 C
ENDBRANCH  18  19
BRANCH  18  23
HETATM   23  N1  UNL     1      16.917   4.259  42.093  1.00  0.00    -0.329 N
HETATM   24  C6  UNL     1      16.459   4.403  40.787  1.00  0.00     0.317 C
HETATM   25  O1  UNL     1      16.209   3.395  40.084  1.00  0.00    -0.247 OA
HETATM   26  N2  UNL     1      16.268   5.687  40.230  1.00  0.00    -0.338 N
ATOM     27  H2  UNL     1      16.470   6.505  40.806  1.00  0.00     0.164 HD
ATOM     28  H1  UNL     1      17.110   5.099  42.638  1.00  0.00     0.165 HD
BRANCH  26  29
HETATM   29  C7  UNL     1      15.793   5.892  38.863  1.00  0.00     0.101 C
HETATM   30  C8  UNL     1      14.590   5.112  38.645  1.00  0.00     0.041 C
HETATM   31  C9  UNL     1      13.465   5.900  38.081  1.00  0.00     0.142 C
HETATM   32  S1  UNL     1      13.824   7.540  38.725  1.00  0.00     0.146 S
HETATM   33  O2  UNL     1      13.371   7.680  40.142  1.00  0.00    -0.228 OA
HETATM   34  O3  UNL     1      13.354   8.614  37.825  1.00  0.00    -0.228 OA
HETATM   35  C10 UNL     1      15.613   7.356  38.683  1.00  0.00     0.165 C
ENDBRANCH  26  29
ENDBRANCH  18  23
ENDBRANCH  10  18
ENDBRANCH   5   8
ENDBRANCH   1   4
BRANCH   1  36
HETATM   36  C19 UNL     1      14.895   1.663  49.849  1.00  0.00     0.055 C
BRANCH  36  37
HETATM   37  C20 UNL     1      13.611   2.371  50.018  1.00  0.00     0.117 C
HETATM   38 CL1  UNL     1      12.308   1.478  50.769  1.00  0.00    -0.130 Cl
ENDBRANCH  36  37
ENDBRANCH   1  36
TORSDOF 8
ENDMDL