MODEL 1
REMARK VINA RESULT: -6.099944243      0.000      0.000
REMARK  8 active torsions:
REMARK  status: ('A' for Active; 'I' for Inactive)
REMARK    1  A    between atoms: C2_2  and  C4_4
REMARK    2  A    between atoms: C4_4  and  N1_5
REMARK    3  A    between atoms: C4_4  and  C12_15
REMARK       I    between atoms: N1_5  and  C5_7
REMARK    4  A    between atoms: C5_7  and  C6_9
REMARK       I    between atoms: C12_15  and  N2_17
REMARK    5  A    between atoms: N2_17  and  C13_19
REMARK    6  A    between atoms: N3_24  and  C15_25
REMARK    7  A    between atoms: C15_25  and  C17_27
REMARK    8  A    between atoms: C17_27  and  O5_28
ROOT
HETATM    1  C12 UNL     1      15.166   1.206  44.664  1.00  0.00     0.241 C
HETATM    2  O2  UNL     1      14.198   2.049  44.862  1.00  0.00    -0.271 OA
HETATM    3  N2  UNL     1      16.243   1.727  43.919  1.00  0.00    -0.352 N
ATOM      4  H2  UNL     1      17.037   1.116  43.726  1.00  0.00     0.163 HD
ENDROOT
BRANCH   3   5
HETATM    5  C13 UNL     1      16.284   3.108  43.404  1.00  0.00     0.119 C
HETATM    6  C14 UNL     1      17.159   3.821  44.317  1.00  0.00     0.185 C
HETATM    7  S1  UNL     1      16.988   5.613  44.508  1.00  0.00     0.224 S
HETATM    8  O3  UNL     1      18.172   6.062  45.282  1.00  0.00    -0.210 OA
HETATM    9  O4  UNL     1      15.687   5.925  45.138  1.00  0.00    -0.210 OA
HETATM   10  N3  UNL     1      17.039   6.356  42.867  1.00  0.00    -0.139 NA
HETATM   11  C18 UNL     1      16.871   5.284  42.070  1.00  0.00    -0.076 C
HETATM   12  C19 UNL     1      16.675   4.263  41.143  1.00  0.00     0.086 C
HETATM   13  C20 UNL     1      15.420   4.425  40.298  1.00  0.00     0.025 C
HETATM   14  C21 UNL     1      16.614   2.927  41.947  1.00  0.00     0.050 C
HETATM   15  C22 UNL     1      17.912   2.198  41.776  1.00  0.00     0.031 C
HETATM   16 BR1  UNL     1      15.229   1.886  41.103  1.00  0.00    -0.082 Br
BRANCH  10  17
HETATM   17  C15 UNL     1      18.171   7.206  42.763  1.00  0.00     0.107 C
HETATM   18  C16 UNL     1      17.792   8.396  41.894  1.00  0.00     0.030 C
BRANCH  17  19
HETATM   19  C17 UNL     1      19.372   6.556  42.104  1.00  0.00     0.185 C
BRANCH  19  20
HETATM   20  O5  UNL     1      20.263   6.095  43.071  1.00  0.00    -0.399 OA
ATOM     21  H5  UNL     1      20.577   5.228  42.843  1.00  0.00     0.209 HD
ENDBRANCH  19  20
ENDBRANCH  17  19
ENDBRANCH  10  17
ENDBRANCH   3   5
BRANCH   1  22
HETATM   22  C4  UNL     1      15.035  -0.140  45.222  1.00  0.00     0.180 C
BRANCH  22  23
HETATM   23  C2  UNL     1      14.020  -0.942  44.491  1.00  0.00     0.009 C
HETATM   24  C1  UNL     1      14.668  -1.899  43.536  1.00  0.00     0.012 C
HETATM   25  C3  UNL     1      13.107  -1.740  45.381  1.00  0.00     0.012 C
ENDBRANCH  22  23
BRANCH  22  26
HETATM   26  N1  UNL     1      14.541   0.053  46.616  1.00  0.00    -0.347 N
HETATM   27  C5  UNL     1      15.418   0.150  47.714  1.00  0.00     0.222 C
HETATM   28  O1  UNL     1      16.645   0.073  47.517  1.00  0.00    -0.273 OA
ATOM     29  H1  UNL     1      13.536   0.117  46.780  1.00  0.00     0.163 HD
BRANCH  27  30
HETATM   30  C6  UNL     1      14.953   0.340  49.101  1.00  0.00     0.078 C
HETATM   31  C7  UNL     1      13.732  -0.462  49.321  1.00  0.00     0.014 C
HETATM   32  C8  UNL     1      12.845  -0.026  50.428  1.00  0.00     0.001 C
HETATM   33  C9  UNL     1      12.467   1.437  50.162  1.00  0.00     0.000 C
HETATM   34  C10 UNL     1      13.776   2.200  50.320  1.00  0.00     0.001 C
HETATM   35  C11 UNL     1      14.785   1.822  49.300  1.00  0.00     0.014 C
ENDBRANCH  27  30
ENDBRANCH  22  26
ENDBRANCH   1  22
TORSDOF 8
ENDMDL