MODEL 3
REMARK VINA RESULT: -7.784348498      2.261      9.726
REMARK  10 active torsions:
REMARK  status: ('A' for Active; 'I' for Inactive)
REMARK       I    between atoms: N1_2  and  C2_3
REMARK       I    between atoms: N1_2  and  C7_11
REMARK       I    between atoms: C2_3  and  N2_5
REMARK    1  A    between atoms: N2_5  and  C3_7
REMARK    2  A    between atoms: C7_11  and  C8_13
REMARK    3  A    between atoms: C10_15  and  C11_16
REMARK    4  A    between atoms: C11_16  and  N3_18
REMARK    5  A    between atoms: N3_18  and  C12_20
REMARK    6  A    between atoms: C12_20  and  C13_21
REMARK    7  A    between atoms: C12_20  and  C20_28
REMARK    8  A    between atoms: C13_21  and  C14_22
REMARK    9  A    between atoms: C20_28  and  C21_30
REMARK       I    between atoms: C21_30  and  N4_32
REMARK   10  A    between atoms: C25_36  and  C26_37
ROOT
HETATM    1  C12 UNL     1      15.385  -0.883  46.244  1.00  0.00     0.159 C
ENDROOT
BRANCH   1   2
HETATM    2  N3  UNL     1      15.680  -2.148  46.752  1.00  0.00    -0.381 N
ATOM      3  H3  UNL     1      16.626  -2.267  47.113  1.00  0.00     0.156 HD
BRANCH   2   4
HETATM    4  C11 UNL     1      14.870  -3.258  46.833  1.00  0.00     0.270 C
HETATM    5  F1  UNL     1      13.511  -2.822  46.740  1.00  0.00    -0.227 F
BRANCH   4   6
HETATM    6  C10 UNL     1      14.977  -3.952  48.225  1.00  0.00     0.053 A
HETATM    7  C8  UNL     1      15.902  -5.088  48.296  1.00  0.00     0.087 A
HETATM    8  C9  UNL     1      14.402  -5.372  48.233  1.00  0.00     0.024 A
BRANCH   7   9
HETATM    9  C7  UNL     1      16.496  -5.569  49.610  1.00  0.00     0.232 C
HETATM   10  N1  UNL     1      17.456  -6.579  49.598  1.00  0.00    -0.274 N
HETATM   11  C1  UNL     1      17.825  -7.121  48.266  1.00  0.00     0.164 C
HETATM   12  C2  UNL     1      18.066  -7.156  50.689  1.00  0.00     0.325 C
HETATM   13  O1  UNL     1      18.846  -8.157  50.436  1.00  0.00    -0.247 OA
HETATM   14  N2  UNL     1      17.937  -6.780  52.039  1.00  0.00    -0.335 N
ATOM     15  H2  UNL     1      17.343  -5.995  52.304  1.00  0.00     0.165 HD
HETATM   16  O2  UNL     1      16.080  -5.030  50.677  1.00  0.00    -0.272 OA
BRANCH  14  17
HETATM   17  C3  UNL     1      18.682  -7.549  53.075  1.00  0.00     0.023 C
HETATM   18  C4  UNL     1      20.146  -7.575  52.779  1.00  0.00     0.037 C
HETATM   19  C5  UNL     1      18.446  -6.880  54.390  1.00  0.00     0.037 C
HETATM   20  C6  UNL     1      18.100  -8.957  53.144  1.00  0.00     0.037 C
ENDBRANCH  14  17
ENDBRANCH   7   9
ENDBRANCH   4   6
ENDBRANCH   2   4
ENDBRANCH   1   2
BRANCH   1  21
HETATM   21  C13 UNL     1      14.611   0.047  47.062  1.00  0.00     0.037 C
BRANCH  21  22
HETATM   22  C14 UNL     1      15.171   0.600  48.340  1.00  0.00    -0.012 C
HETATM   23  C15 UNL     1      14.671   2.043  48.433  1.00  0.00     0.005 C
HETATM   24  C16 UNL     1      14.346   2.471  49.807  1.00  0.00     0.000 C
HETATM   25  C17 UNL     1      13.376   1.574  50.532  1.00  0.00     0.000 C
HETATM   26  C18 UNL     1      13.242   0.233  49.795  1.00  0.00     0.000 C
HETATM   27  C19 UNL     1      14.660  -0.208  49.506  1.00  0.00     0.005 C
ENDBRANCH  21  22
ENDBRANCH   1  21
BRANCH   1  28
HETATM   28  C20 UNL     1      16.613  -0.287  45.583  1.00  0.00     0.238 C
HETATM   29  O3  UNL     1      17.691  -0.502  46.243  1.00  0.00    -0.285 OA
BRANCH  28  30
HETATM   30  C21 UNL     1      16.651   0.439  44.386  1.00  0.00     0.292 C
HETATM   31  O4  UNL     1      16.599  -0.155  43.247  1.00  0.00    -0.264 OA
HETATM   32  N4  UNL     1      16.744   1.879  44.381  1.00  0.00    -0.332 N
HETATM   33  C22 UNL     1      16.831   2.740  45.511  1.00  0.00     0.127 C
HETATM   34  C25 UNL     1      16.740   2.640  43.151  1.00  0.00     0.176 C
HETATM   35  C23 UNL     1      16.411   4.111  44.999  1.00  0.00     0.022 C
HETATM   36  C24 UNL     1      16.736   4.070  43.557  1.00  0.00     0.036 C
BRANCH  34  37
HETATM   37  C26 UNL     1      17.956   2.363  42.310  1.00  0.00     0.254 C
HETATM   38  N5  UNL     1      19.228   2.474  42.875  1.00  0.00    -0.060 NA
HETATM   39  O5  UNL     1      17.835   2.037  41.122  1.00  0.00    -0.275 OA
ENDBRANCH  34  37
ENDBRANCH  28  30
ENDBRANCH   1  28
TORSDOF 10
ENDMDL