MODEL 1
REMARK VINA RESULT: -6.210156096      0.000      0.000
REMARK  7 active torsions:
REMARK  status: ('A' for Active; 'I' for Inactive)
REMARK    1  A    between atoms: C3_3  and  C4_4
REMARK    2  A    between atoms: C3_3  and  N1_9
REMARK    3  A    between atoms: C3_3  and  C14_23
REMARK    4  A    between atoms: C4_4  and  C5_5
REMARK    5  A    between atoms: C5_5  and  C6_6
REMARK       I    between atoms: N1_9  and  C7_11
REMARK    6  A    between atoms: C7_11  and  C8_13
REMARK       I    between atoms: C14_23  and  N2_25
REMARK    7  A    between atoms: N2_25  and  C15_27
ROOT
HETATM    1  C1  UNL     1      16.205  -7.619  45.008  1.00  0.00     0.015 C
HETATM    2  C2  UNL     1      16.018  -7.037  46.045  1.00  0.00    -0.075 C
HETATM    3  C3  UNL     1      15.806  -6.285  47.360  1.00  0.00     0.177 C
ENDROOT
BRANCH   3   4
HETATM    4  C4  UNL     1      14.553  -6.920  47.887  1.00  0.00     0.065 C
BRANCH   4   5
HETATM    5  C5  UNL     1      14.648  -8.201  48.612  1.00  0.00     0.117 C
BRANCH   5   6
HETATM    6  C6  UNL     1      13.676  -9.202  47.988  1.00  0.00     0.172 C
HETATM    7  O1  UNL     1      13.647  -9.399  46.753  1.00  0.00    -0.648 OA
HETATM    8  O2  UNL     1      12.842  -9.872  48.837  1.00  0.00    -0.648 OA
ENDBRANCH   5   6
ENDBRANCH   4   5
ENDBRANCH   3   4
BRANCH   3   9
HETATM    9  N1  UNL     1      16.941  -6.503  48.171  1.00  0.00    -0.332 N
HETATM   10  C7  UNL     1      17.213  -6.112  49.491  1.00  0.00     0.239 C
HETATM   11  O3  UNL     1      16.373  -5.444  50.135  1.00  0.00    -0.272 OA
ATOM     12  H1  UNL     1      17.689  -7.032  47.722  1.00  0.00     0.164 HD
BRANCH  10  13
HETATM   13  C8  UNL     1      18.476  -6.454  50.192  1.00  0.00     0.221 C
HETATM   14  C9  UNL     1      18.304  -7.468  51.293  1.00  0.00     0.061 C
HETATM   15  C10 UNL     1      18.061  -6.788  52.626  1.00  0.00     0.031 C
HETATM   16 BR1  UNL     1      17.053  -8.876  50.973  1.00  0.00    -0.082 Br
HETATM   17  C11 UNL     1      19.723  -7.986  51.120  1.00  0.00     0.076 C
HETATM   18  C12 UNL     1      20.779  -7.222  51.854  1.00  0.00     0.033 C
HETATM   19  C13 UNL     1      19.892  -9.464  51.285  1.00  0.00     0.033 C
HETATM   20  S1  UNL     1      19.566  -7.566  49.396  1.00  0.00     0.168 S
HETATM   21  O4  UNL     1      20.849  -6.983  48.897  1.00  0.00    -0.226 OA
HETATM   22  O5  UNL     1      18.934  -8.598  48.544  1.00  0.00    -0.226 OA
ENDBRANCH  10  13
ENDBRANCH   3   9
BRANCH   3  23
HETATM   23  C14 UNL     1      15.614  -4.878  46.923  1.00  0.00     0.260 C
HETATM   24  O6  UNL     1      16.115  -4.480  45.844  1.00  0.00    -0.270 OA
HETATM   25  N2  UNL     1      14.878  -3.937  47.677  1.00  0.00    -0.336 N
ATOM     26  H2  UNL     1      14.463  -4.242  48.558  1.00  0.00     0.164 HD
BRANCH  25  27
HETATM   27  C15 UNL     1      14.681  -2.568  47.270  1.00  0.00     0.122 C
HETATM   28  C16 UNL     1      14.228  -1.742  48.415  1.00  0.00     0.091 C
HETATM   29  N3  UNL     1      13.864  -1.114  49.317  1.00  0.00    -0.195 NA
HETATM   30  C17 UNL     1      13.568  -2.539  46.246  1.00  0.00     0.046 C
HETATM   31  C18 UNL     1      13.978  -1.599  45.105  1.00  0.00     0.004 C
HETATM   32  C19 UNL     1      14.307  -0.270  45.753  1.00  0.00     0.000 C
HETATM   33  C20 UNL     1      15.598  -0.435  46.523  1.00  0.00     0.004 C
HETATM   34  C21 UNL     1      15.929  -1.894  46.764  1.00  0.00     0.046 C
ENDBRANCH  25  27
ENDBRANCH   3  23
TORSDOF 7
ENDMDL