MODEL 5
REMARK VINA RESULT: -7.065934913      2.869      3.749
REMARK  9 active torsions:
REMARK  status: ('A' for Active; 'I' for Inactive)
REMARK    1  A    between atoms: C2_2  and  C3_3
REMARK    2  A    between atoms: C3_3  and  N1_4
REMARK       I    between atoms: N1_4  and  C4_6
REMARK    3  A    between atoms: C4_6  and  C5_8
REMARK       I    between atoms: C5_8  and  N2_10
REMARK    4  A    between atoms: N2_10  and  C6_12
REMARK    5  A    between atoms: C6_12  and  C7_13
REMARK    6  A    between atoms: C7_13  and  N3_14
REMARK    7  A    between atoms: C13_20  and  N4_22
REMARK    8  A    between atoms: N5_26  and  C15_27
REMARK       I    between atoms: N6_30  and  C18_31
REMARK    9  A    between atoms: C18_31  and  C19_33
ROOT
HETATM    1  C15 UNL     1      16.297   0.827  43.309  1.00  0.00     0.102 C
HETATM    2  C16 UNL     1      15.346   1.673  42.535  1.00  0.00     0.046 C
HETATM    3  C17 UNL     1      14.896   1.028  41.240  1.00  0.00     0.128 C
HETATM    4  N6  UNL     1      16.151   0.860  40.470  1.00  0.00    -0.350 N
HETATM    5  C18 UNL     1      16.321   1.555  39.258  1.00  0.00     0.224 C
HETATM    6  O3  UNL     1      15.396   2.297  38.799  1.00  0.00    -0.273 OA
HETATM    7  C25 UNL     1      17.069  -0.052  41.068  1.00  0.00     0.147 C
HETATM    8  C26 UNL     1      17.302   0.077  42.528  1.00  0.00     0.133 C
HETATM    9  C27 UNL     1      18.676   0.629  42.693  1.00  0.00     0.067 C
HETATM   10  N7  UNL     1      19.746   1.063  42.812  1.00  0.00    -0.197 NA
ENDROOT
BRANCH   1  11
HETATM   11  N5  UNL     1      15.672   0.010  44.280  1.00  0.00    -0.374 N
HETATM   12  C13 UNL     1      15.586   0.473  45.620  1.00  0.00     0.210 C
HETATM   13  C12 UNL     1      15.577  -0.804  46.488  1.00  0.00     0.139 C
HETATM   14  C14 UNL     1      16.845   1.221  45.995  1.00  0.00     0.072 C
HETATM   15  N3  UNL     1      14.237  -1.125  46.781  1.00  0.00    -0.383 N
HETATM   16  C11 UNL     1      16.370  -1.895  45.822  1.00  0.00     0.030 C
HETATM   17  C8  UNL     1      13.469  -1.818  45.825  1.00  0.00     0.065 C
HETATM   18  C9  UNL     1      14.269  -1.985  44.550  1.00  0.00     0.041 C
HETATM   19  C10 UNL     1      15.525  -2.744  44.904  1.00  0.00     0.013 C
HETATM   20  C28 UNL     1      14.518  -0.706  43.827  1.00  0.00     0.129 C
BRANCH  12  21
HETATM   21  N4  UNL     1      14.459   1.226  46.011  1.00  0.00    -0.051 N
ATOM     22  H43 UNL     1      14.443   1.443  47.007  1.00  0.00     0.277 HD
ATOM     23  H42 UNL     1      14.479   2.189  45.673  1.00  0.00     0.277 HD
ATOM     24  H41 UNL     1      13.642   0.704  45.696  1.00  0.00     0.277 HD
ENDBRANCH  12  21
BRANCH  15  25
HETATM   25  C7  UNL     1      13.899  -1.289  48.151  1.00  0.00     0.142 C
BRANCH  25  26
HETATM   26  C6  UNL     1      14.614  -0.350  49.074  1.00  0.00     0.143 C
BRANCH  26  27
HETATM   27  N2  UNL     1      13.752   0.326  50.015  1.00  0.00    -0.351 N
HETATM   28  C5  UNL     1      13.386   1.697  49.929  1.00  0.00     0.309 C
HETATM   29  O2  UNL     1      13.850   2.365  48.965  1.00  0.00    -0.262 OA
ATOM     30  H2  UNL     1      13.381  -0.217  50.795  1.00  0.00     0.162 HD
BRANCH  28  31
HETATM   31  C4  UNL     1      12.508   2.325  50.909  1.00  0.00     0.309 C
HETATM   32  N1  UNL     1      11.734   1.534  51.782  1.00  0.00    -0.353 N
ATOM     33  H1  UNL     1      11.813   0.520  51.711  1.00  0.00     0.162 HD
HETATM   34  O1  UNL     1      12.466   3.566  50.945  1.00  0.00    -0.262 OA
BRANCH  32  35
HETATM   35  C3  UNL     1      10.839   2.080  52.770  1.00  0.00     0.122 C
BRANCH  35  36
HETATM   36  C2  UNL     1      10.159   0.969  53.518  1.00  0.00     0.015 C
HETATM   37  C1  UNL     1      10.964  -0.304  53.337  1.00  0.00     0.006 C
ENDBRANCH  35  36
ENDBRANCH  32  35
ENDBRANCH  28  31
ENDBRANCH  26  27
ENDBRANCH  25  26
ENDBRANCH  15  25
ENDBRANCH   1  11
BRANCH   5  38
HETATM   38  C19 UNL     1      17.587   1.428  38.510  1.00  0.00     0.078 C
HETATM   39  C20 UNL     1      18.471   2.630  38.744  1.00  0.00     0.014 C
HETATM   40  C21 UNL     1      18.952   3.208  37.421  1.00  0.00     0.001 C
HETATM   41  C22 UNL     1      19.587   2.103  36.567  1.00  0.00     0.000 C
HETATM   42  C23 UNL     1      18.519   1.097  36.229  1.00  0.00     0.001 C
HETATM   43  C24 UNL     1      17.269   1.262  37.039  1.00  0.00     0.014 C
ENDBRANCH   5  38
TORSDOF 9
ENDMDL