MODEL 3
REMARK VINA RESULT: -6.775906335      1.637      3.382
REMARK  8 active torsions:
REMARK  status: ('A' for Active; 'I' for Inactive)
REMARK    1  A    between atoms: C2_2  and  C3_3
REMARK    2  A    between atoms: C3_3  and  C4_4
REMARK    3  A    between atoms: C4_4  and  N1_5
REMARK       I    between atoms: N1_5  and  C5_7
REMARK    4  A    between atoms: C5_7  and  C6_9
REMARK       I    between atoms: N2_14  and  C11_15
REMARK    5  A    between atoms: C11_15  and  C12_17
REMARK    6  A    between atoms: C12_17  and  N3_18
REMARK    7  A    between atoms: C12_17  and  C19_31
REMARK       I    between atoms: N3_18  and  C13_20
REMARK    8  A    between atoms: C13_20  and  C14_22
ROOT
HETATM    1  C6  UNL     1      15.095   1.649  42.324  1.00  0.00     0.183 C
HETATM    2  C7  UNL     1      14.984   0.760  41.145  1.00  0.00     0.024 A
HETATM    3  C8  UNL     1      13.957   0.100  40.455  1.00  0.00     0.014 A
HETATM    4  C9  UNL     1      13.946  -0.194  41.822  1.00  0.00     0.011 A
HETATM    5  C10 UNL     1      14.967  -0.641  42.831  1.00  0.00     0.132 C
HETATM    6  N2  UNL     1      15.254   0.694  43.386  1.00  0.00    -0.336 N
HETATM    7  C11 UNL     1      15.545   0.881  44.749  1.00  0.00     0.243 C
HETATM    8  O2  UNL     1      15.646   2.065  45.250  1.00  0.00    -0.271 OA
ENDROOT
BRANCH   1   9
HETATM    9  C5  UNL     1      16.189   2.634  42.201  1.00  0.00     0.241 C
HETATM   10  N1  UNL     1      16.110   3.951  42.716  1.00  0.00    -0.347 N
ATOM     11  H1  UNL     1      15.253   4.229  43.194  1.00  0.00     0.163 HD
HETATM   12  O1  UNL     1      17.232   2.296  41.616  1.00  0.00    -0.271 OA
BRANCH  10  13
HETATM   13  C4  UNL     1      17.174   4.922  42.605  1.00  0.00     0.064 C
HETATM   14  C22 UNL     1      17.794   4.869  41.209  1.00  0.00     0.068 C
HETATM   15  C23 UNL     1      17.514   6.330  41.021  1.00  0.00     0.159 C
HETATM   16  O5  UNL     1      16.722   6.656  39.938  1.00  0.00    -0.348 OA
HETATM   17  C27 UNL     1      16.613   6.272  42.224  1.00  0.00     0.182 C
HETATM   18  C24 UNL     1      15.422   6.701  40.366  1.00  0.00     0.158 C
HETATM   19  C25 UNL     1      14.611   5.868  39.392  1.00  0.00     0.078 C
HETATM   20  C26 UNL     1      14.866   8.129  40.372  1.00  0.00     0.078 C
HETATM   21  O6  UNL     1      15.350   6.235  41.651  1.00  0.00    -0.345 OA
BRANCH  13  22
HETATM   22  C3  UNL     1      18.193   4.912  43.712  1.00  0.00     0.033 C
BRANCH  22  23
HETATM   23  C2  UNL     1      17.743   5.684  44.925  1.00  0.00    -0.002 C
HETATM   24  C1  UNL     1      18.757   6.754  45.267  1.00  0.00     0.005 C
ENDBRANCH  22  23
ENDBRANCH  13  22
ENDBRANCH  10  13
ENDBRANCH   1   9
BRANCH   7  25
HETATM   25  C12 UNL     1      15.759  -0.203  45.725  1.00  0.00     0.180 C
BRANCH  25  26
HETATM   26  N3  UNL     1      15.535   0.335  47.084  1.00  0.00    -0.345 N
HETATM   27  C13 UNL     1      14.603  -0.244  47.958  1.00  0.00     0.261 C
HETATM   28  O3  UNL     1      13.956  -1.242  47.555  1.00  0.00    -0.270 OA
ATOM     29  H3  UNL     1      16.070   1.147  47.393  1.00  0.00     0.163 HD
BRANCH  27  30
HETATM   30  C14 UNL     1      14.350   0.268  49.332  1.00  0.00     0.210 C
HETATM   31  F1  UNL     1      15.508   0.163  50.104  1.00  0.00    -0.230 F
HETATM   32  C15 UNL     1      13.268  -0.531  49.996  1.00  0.00     0.177 C
HETATM   33  N4  UNL     1      12.537   0.414  50.793  1.00  0.00    -0.357 N
HETATM   34  C16 UNL     1      12.566   1.652  50.097  1.00  0.00     0.225 C
ATOM     35  H4  UNL     1      12.084   0.231  51.688  1.00  0.00     0.162 HD
HETATM   36  O4  UNL     1      11.716   2.571  50.103  1.00  0.00    -0.273 OA
HETATM   37  C17 UNL     1      13.831   1.671  49.324  1.00  0.00     0.125 C
HETATM   38  C18 UNL     1      14.771   2.619  50.066  1.00  0.00     0.024 C
ENDBRANCH  27  30
ENDBRANCH  25  26
BRANCH  25  39
HETATM   39  C19 UNL     1      17.137  -0.812  45.693  1.00  0.00     0.009 C
HETATM   40  C20 UNL     1      17.244  -2.026  44.825  1.00  0.00     0.012 C
HETATM   41  C21 UNL     1      18.222   0.186  45.382  1.00  0.00     0.012 C
ENDBRANCH  25  39
ENDBRANCH   7  25
TORSDOF 8
ENDMDL