MODEL 1
REMARK VINA RESULT: -5.658755541      0.000      0.000
REMARK  9 active torsions:
REMARK  status: ('A' for Active; 'I' for Inactive)
REMARK    1  A    between atoms: N1_2  and  C2_5
REMARK    2  A    between atoms: C2_5  and  C4_7
REMARK       I    between atoms: C4_7  and  N2_9
REMARK       I    between atoms: N2_9  and  C5_11
REMARK    3  A    between atoms: C5_11  and  C6_13
REMARK    4  A    between atoms: C6_13  and  N3_14
REMARK    5  A    between atoms: C6_13  and  C24_39
REMARK    6  A    between atoms: C7_15  and  C8_16
REMARK       I    between atoms: C8_16  and  N4_18
REMARK    7  A    between atoms: N4_18  and  C9_20
REMARK    8  A    between atoms: C9_20  and  C10_21
REMARK    9  A    between atoms: C9_20  and  C16_31
REMARK       I    between atoms: C10_21  and  N5_23
ROOT
HETATM    1  C10 UNL     1      18.029   5.174  42.789  1.00  0.00     0.244 C
HETATM    2  O4  UNL     1      18.580   5.169  41.638  1.00  0.00    -0.271 OA
HETATM    3  N5  UNL     1      17.183   6.251  43.124  1.00  0.00    -0.330 N
HETATM    4  C11 UNL     1      16.399   6.515  44.312  1.00  0.00     0.164 C
HETATM    5  C12 UNL     1      16.765   7.965  44.639  1.00  0.00     0.191 C
HETATM    6  F1  UNL     1      15.728   8.572  45.282  1.00  0.00    -0.248 F
HETATM    7  C13 UNL     1      17.056   8.571  43.273  1.00  0.00     0.079 C
HETATM    8  C14 UNL     1      16.906   7.439  42.286  1.00  0.00     0.197 C
HETATM    9  C15 UNL     1      15.537   7.354  41.807  1.00  0.00     0.085 C
HETATM   10  N6  UNL     1      14.441   7.303  41.428  1.00  0.00    -0.195 NA
ENDROOT
BRANCH   1  11
HETATM   11  C9  UNL     1      18.346   4.016  43.670  1.00  0.00     0.180 C
BRANCH  11  12
HETATM   12  N4  UNL     1      17.414   2.913  43.387  1.00  0.00    -0.346 N
HETATM   13  C8  UNL     1      16.346   2.597  44.220  1.00  0.00     0.252 C
HETATM   14  O3  UNL     1      16.214   3.325  45.269  1.00  0.00    -0.271 OA
ATOM     15  H4  UNL     1      17.558   2.356  42.545  1.00  0.00     0.163 HD
BRANCH  13  16
HETATM   16  C7  UNL     1      15.331   1.541  44.075  1.00  0.00     0.316 C
HETATM   17  N3  UNL     1      15.852   0.227  43.783  1.00  0.00     0.121 N
HETATM   18  C23 UNL     1      15.611  -0.572  44.970  1.00  0.00     0.229 A
HETATM   19  C20 UNL     1      14.848   0.245  45.992  1.00  0.00     0.021 A
HETATM   20  C22 UNL     1      16.763  -0.620  45.941  1.00  0.00     0.036 A
HETATM   21  C19 UNL     1      14.532   1.524  45.325  1.00  0.00     0.052 C
HETATM   22  C21 UNL     1      16.059   0.288  46.888  1.00  0.00     0.009 A
BRANCH  17  23
HETATM   23  C6  UNL     1      15.072  -0.351  42.675  1.00  0.00     0.323 C
BRANCH  23  24
HETATM   24  C5  UNL     1      15.146   0.645  41.502  1.00  0.00     0.258 C
HETATM   25  N2  UNL     1      13.940   0.996  40.847  1.00  0.00    -0.294 N
HETATM   26  C4  UNL     1      13.807   1.868  39.772  1.00  0.00     0.254 C
ATOM     27  H2  UNL     1      13.084   0.567  41.198  1.00  0.00     0.171 HD
HETATM   28  O1  UNL     1      12.621   1.992  39.276  1.00  0.00    -0.271 OA
HETATM   29  O2  UNL     1      16.213   1.141  41.128  1.00  0.00    -0.271 OA
BRANCH  26  30
HETATM   30  C2  UNL     1      14.827   2.681  39.106  1.00  0.00     0.273 C
HETATM   31  C3  UNL     1      14.482   4.183  39.126  1.00  0.00     0.050 C
BRANCH  30  32
HETATM   32  N1  UNL     1      14.999   2.321  37.705  1.00  0.00    -0.067 N
HETATM   33  C1  UNL     1      15.599   1.041  37.497  1.00  0.00     0.267 C
ATOM     34  H12 UNL     1      15.524   3.044  37.213  1.00  0.00     0.277 HD
ATOM     35  H11 UNL     1      14.109   2.382  37.210  1.00  0.00     0.277 HD
ENDBRANCH  30  32
ENDBRANCH  26  30
ENDBRANCH  23  24
BRANCH  23  36
HETATM   36  C24 UNL     1      15.694  -1.610  42.113  1.00  0.00    -0.011 C
HETATM   37  C25 UNL     1      17.173  -1.735  42.099  1.00  0.00     0.017 C
HETATM   38  C26 UNL     1      15.124  -1.878  40.702  1.00  0.00     0.017 C
HETATM   39  C27 UNL     1      15.220  -2.835  42.916  1.00  0.00     0.017 C
ENDBRANCH  23  36
ENDBRANCH  17  23
ENDBRANCH  13  16
ENDBRANCH  11  12
BRANCH  11  40
HETATM   40  C16 UNL     1      19.737   3.492  43.392  1.00  0.00     0.009 C
HETATM   41  C17 UNL     1      20.838   4.372  43.927  1.00  0.00     0.012 C
HETATM   42  C18 UNL     1      19.916   2.065  43.840  1.00  0.00     0.012 C
ENDBRANCH  11  40
ENDBRANCH   1  11
TORSDOF 9
ENDMDL