MODEL 1
REMARK VINA RESULT: -11.106270398      0.000      0.000
REMARK  13 active torsions:
REMARK  status: ('A' for Active; 'I' for Inactive)
REMARK    1  A    between atoms: C3_3  and  C4_4
REMARK    2  A    between atoms: C4_4  and  C5_5
REMARK    3  A    between atoms: C5_5  and  N1_6
REMARK    4  A    between atoms: C7_8  and  C8_9
REMARK    5  A    between atoms: C8_9  and  C9_10
REMARK    6  A    between atoms: C19_25  and  C20_26
REMARK    7  A    between atoms: C20_26  and  C21_27
REMARK    8  A    between atoms: C21_27  and  C22_28
REMARK    9  A    between atoms: C22_28  and  C23_29
REMARK       I    between atoms: C23_29  and  N4_31
REMARK   10  A    between atoms: N4_31  and  C24_33
REMARK   11  A    between atoms: C24_33  and  C25_34
REMARK   12  A    between atoms: C25_34  and  N5_35
REMARK       I    between atoms: N5_35  and  C26_36
REMARK   13  A    between atoms: C26_36  and  C27_38
ROOT
HETATM    1  C1  UNL     1      19.130  21.840  16.948  1.00  0.00     0.046 C
HETATM    2  C2  UNL     1      17.894  21.627  17.718  1.00  0.00    -0.054 C
HETATM    3  C3  UNL     1      18.029  21.391  19.023  1.00  0.00     0.050 C
HETATM    4  O1  UNL     1      16.906  21.162  19.862  1.00  0.00    -0.350 OA
HETATM    5  C19 UNL     1      15.694  20.420  19.454  1.00  0.00     0.128 C
HETATM    6  C35 UNL     1      14.847  21.477  18.829  1.00  0.00     0.033 C
HETATM    7  C36 UNL     1      15.665  22.474  17.984  1.00  0.00     0.007 C
HETATM    8  C37 UNL     1      16.562  21.722  16.989  1.00  0.00     0.036 C
ENDROOT
BRANCH   5   9
HETATM    9  C20 UNL     1      15.190  19.724  20.654  1.00  0.00     0.033 C
BRANCH   9  10
HETATM   10  C21 UNL     1      14.494  18.441  20.407  1.00  0.00     0.012 C
BRANCH  10  11
HETATM   11  C22 UNL     1      13.198  18.153  21.028  1.00  0.00     0.103 C
BRANCH  11  12
HETATM   12  C23 UNL     1      12.149  17.914  19.981  1.00  0.00     0.217 C
HETATM   13  O2  UNL     1      11.759  18.862  19.292  1.00  0.00    -0.274 OA
HETATM   14  N4  UNL     1      11.668  16.616  19.838  1.00  0.00    -0.355 N
ATOM     15  H4  UNL     1      12.094  15.927  20.458  1.00  0.00     0.162 HD
BRANCH  14  16
HETATM   16  C24 UNL     1      10.677  16.103  18.964  1.00  0.00     0.182 C
BRANCH  16  17
HETATM   17  C25 UNL     1      11.004  15.735  17.589  1.00  0.00     0.178 C
BRANCH  17  18
HETATM   18  N5  UNL     1      10.934  16.572  16.498  1.00  0.00    -0.385 NA
HETATM   19  C26 UNL     1      10.862  17.389  15.428  1.00  0.00     0.311 C
HETATM   20  O3  UNL     1      10.008  17.311  14.474  1.00  0.00    -0.255 OA
BRANCH  19  21
HETATM   21  C27 UNL     1      11.849  18.540  15.247  1.00  0.00     0.193 C
HETATM   22  C28 UNL     1      11.668  19.138  13.898  1.00  0.00     0.040 C
HETATM   23  C29 UNL     1      11.873  20.648  14.048  1.00  0.00     0.025 C
HETATM   24  C30 UNL     1      10.655  21.175  14.789  1.00  0.00     0.024 C
HETATM   25  C32 UNL     1      13.063  20.857  14.964  1.00  0.00     0.079 C
HETATM   26  C31 UNL     1      10.450  20.310  16.004  1.00  0.00     0.122 C
HETATM   27  N6  UNL     1      11.674  19.549  16.240  1.00  0.00    -0.181 NA
HETATM   28  O4  UNL     1      12.760  20.359  16.213  1.00  0.00    -0.292 OA
HETATM   29  C33 UNL     1      14.276  20.212  14.331  1.00  0.00     0.048 C
HETATM   30  C34 UNL     1      13.354  22.365  15.040  1.00  0.00     0.048 C
ENDBRANCH  19  21
ENDBRANCH  17  18
ENDBRANCH  16  17
ENDBRANCH  14  16
ENDBRANCH  11  12
ENDBRANCH  10  11
ENDBRANCH   9  10
ENDBRANCH   5   9
BRANCH   3  31
HETATM   31  C4  UNL     1      19.364  21.360  19.607  1.00  0.00     0.086 C
BRANCH  31  32
HETATM   32  C5  UNL     1      19.637  22.518  20.552  1.00  0.00     0.156 C
BRANCH  32  33
HETATM   33  N1  UNL     1      20.570  23.482  20.038  1.00  0.00    -0.287 N
HETATM   34  C6  UNL     1      20.167  24.579  19.326  1.00  0.00     0.138 A
HETATM   35  C7  UNL     1      21.259  25.332  18.957  1.00  0.00     0.045 A
HETATM   36  N2  UNL     1      22.316  24.672  19.459  1.00  0.00    -0.289 N
HETATM   37  N3  UNL     1      21.875  23.585  20.091  1.00  0.00    -0.241 N
ATOM     38  H2  UNL     1      23.291  24.956  19.371  1.00  0.00     0.188 HD
ATOM     39  H3  UNL     1      22.482  22.913  20.561  1.00  0.00     0.208 HD
BRANCH  35  40
HETATM   40  C8  UNL     1      21.272  26.567  18.179  1.00  0.00     0.069 C
BRANCH  40  41
HETATM   41  C9  UNL     1      21.548  26.414  16.717  1.00  0.00    -0.034 C
HETATM   42  C10 UNL     1      20.781  25.258  16.106  1.00  0.00     0.014 C
HETATM   43  C11 UNL     1      21.174  25.115  14.673  1.00  0.00    -0.013 C
HETATM   44  C12 UNL     1      22.646  24.813  14.561  1.00  0.00     0.009 C
HETATM   45  C16 UNL     1      20.791  26.355  13.919  1.00  0.00     0.009 C
HETATM   46  C13 UNL     1      23.403  26.013  15.080  1.00  0.00    -0.013 C
HETATM   47  C14 UNL     1      23.024  27.256  14.328  1.00  0.00     0.009 C
HETATM   48  C18 UNL     1      23.045  26.197  16.537  1.00  0.00     0.014 C
HETATM   49  C15 UNL     1      21.560  27.524  14.507  1.00  0.00    -0.013 C
HETATM   50  C17 UNL     1      21.180  27.667  15.966  1.00  0.00     0.014 C
ENDBRANCH  40  41
ENDBRANCH  35  40
ENDBRANCH  32  33
ENDBRANCH  31  32
ENDBRANCH   3  31
TORSDOF 13
ENDMDL