MODEL 5
REMARK VINA RESULT: -8.168471863      5.492     13.088
REMARK  14 active torsions:
REMARK  status: ('A' for Active; 'I' for Inactive)
REMARK    1  A    between atoms: C2_2  and  O1_3
REMARK    2  A    between atoms: O1_3  and  C3_4
REMARK    3  A    between atoms: C3_4  and  C5_6
REMARK    4  A    between atoms: C3_4  and  N6_43
REMARK    5  A    between atoms: C5_6  and  N1_7
REMARK    6  A    between atoms: C5_6  and  C27_40
REMARK    7  A    between atoms: N1_7  and  S1_9
REMARK    8  A    between atoms: S1_9  and  C6_12
REMARK    9  A    between atoms: C13_21  and  N3_22
REMARK   10  A    between atoms: N3_22  and  C14_24
REMARK   11  A    between atoms: C14_24  and  C15_25
REMARK   12  A    between atoms: C15_25  and  C16_26
REMARK   13  A    between atoms: C16_26  and  N4_27
REMARK   14  A    between atoms: C19_30  and  N5_31
ROOT
HETATM    1  C6  UNL     1      13.604  19.142  18.334  1.00  0.00     0.105 A
HETATM    2  C7  UNL     1      14.009  18.852  19.626  1.00  0.00    -0.037 A
HETATM    3  C8  UNL     1      13.538  17.677  20.364  1.00  0.00     0.050 C
HETATM    4  C9  UNL     1      14.908  19.764  20.190  1.00  0.00     0.017 A
HETATM    5  C10 UNL     1      15.379  20.874  19.549  1.00  0.00    -0.033 A
HETATM    6  C11 UNL     1      16.327  21.732  20.289  1.00  0.00     0.050 C
HETATM    7  C12 UNL     1      14.958  21.159  18.232  1.00  0.00     0.059 A
HETATM    8  N2  UNL     1      15.313  22.184  17.501  1.00  0.00    -0.335 N
ATOM      9  H2  UNL     1      15.967  22.879  17.863  1.00  0.00     0.168 HD
HETATM   10  C13 UNL     1      14.806  22.306  16.274  1.00  0.00     0.145 A
HETATM   11  S2  UNL     1      13.796  20.934  16.141  1.00  0.00    -0.051 SA
HETATM   12  C26 UNL     1      14.079  20.265  17.685  1.00  0.00     0.059 A
ENDROOT
BRANCH   1  13
HETATM   13  S1  UNL     1      12.431  18.055  17.558  1.00  0.00     0.265 S
HETATM   14  O2  UNL     1      11.148  18.232  18.358  1.00  0.00    -0.200 OA
HETATM   15  O3  UNL     1      12.875  16.647  17.747  1.00  0.00    -0.200 OA
BRANCH  13  16
HETATM   16  N1  UNL     1      12.294  18.528  15.943  1.00  0.00    -0.279 N
ATOM     17  H1  UNL     1      13.079  18.963  15.458  1.00  0.00     0.179 HD
BRANCH  16  18
HETATM   18  C5  UNL     1      11.037  18.301  15.262  1.00  0.00     0.076 C
BRANCH  18  19
HETATM   19  C3  UNL     1      10.997  17.115  14.412  1.00  0.00     0.172 C
HETATM   20  C4  UNL     1      12.169  16.768  13.553  1.00  0.00     0.078 C
BRANCH  19  21
HETATM   21  O1  UNL     1       9.845  17.165  13.622  1.00  0.00    -0.356 OA
BRANCH  21  22
HETATM   22  C2  UNL     1       9.688  16.782  12.401  1.00  0.00     0.167 C
HETATM   23  C1  UNL     1       8.942  15.502  12.071  1.00  0.00     0.033 C
ENDBRANCH  21  22
ENDBRANCH  19  21
BRANCH  19  24
HETATM   24  N6  UNL     1      10.700  15.911  15.146  1.00  0.00    -0.378 N
HETATM   25  C30 UNL     1       9.826  15.771  16.178  1.00  0.00     0.120 C
HETATM   26  C31 UNL     1       8.786  14.683  15.845  1.00  0.00     0.020 C
HETATM   27  C32 UNL     1       9.498  13.432  15.378  1.00  0.00     0.003 C
HETATM   28  C33 UNL     1      10.983  13.539  15.476  1.00  0.00     0.020 C
HETATM   29  C34 UNL     1      11.587  14.816  15.015  1.00  0.00     0.120 C
ENDBRANCH  19  24
ENDBRANCH  18  19
BRANCH  18  30
HETATM   30  C27 UNL     1      10.418  19.590  14.957  1.00  0.00    -0.059 C
HETATM   31  C28 UNL     1      10.170  20.621  15.972  1.00  0.00     0.045 C
HETATM   32  C29 UNL     1      10.960  20.279  13.707  1.00  0.00     0.045 C
ENDBRANCH  18  30
ENDBRANCH  16  18
ENDBRANCH  13  16
ENDBRANCH   1  13
BRANCH  10  33
HETATM   33  N3  UNL     1      15.028  23.254  15.393  1.00  0.00    -0.370 N
ATOM     34  H3  UNL     1      14.409  24.063  15.391  1.00  0.00     0.161 HD
BRANCH  33  35
HETATM   35  C14 UNL     1      16.098  23.215  14.426  1.00  0.00     0.127 C
BRANCH  35  36
HETATM   36  C15 UNL     1      17.425  22.923  15.029  1.00  0.00     0.064 C
BRANCH  36  37
HETATM   37  C16 UNL     1      18.054  23.993  15.830  1.00  0.00     0.064 C
BRANCH  37  38
HETATM   38  N4  UNL     1      19.320  23.811  16.380  1.00  0.00    -0.374 N
HETATM   39  C17 UNL     1      19.700  22.577  16.941  1.00  0.00     0.129 C
HETATM   40  C18 UNL     1      20.301  22.893  18.323  1.00  0.00     0.056 C
HETATM   41  C19 UNL     1      21.462  23.853  18.201  1.00  0.00     0.229 C
HETATM   42  C24 UNL     1      21.623  24.263  16.754  1.00  0.00     0.080 C
HETATM   43  C25 UNL     1      20.301  24.818  16.271  1.00  0.00     0.065 C
BRANCH  41  44
HETATM   44  N5  UNL     1      21.181  24.997  19.062  1.00  0.00     0.093 N
HETATM   45  C20 UNL     1      22.334  25.870  19.180  1.00  0.00     0.273 C
HETATM   46  C21 UNL     1      22.055  26.627  20.479  1.00  0.00     0.032 C
HETATM   47  C22 UNL     1      21.294  25.650  21.327  1.00  0.00     0.032 C
HETATM   48  C23 UNL     1      21.102  24.449  20.422  1.00  0.00     0.273 C
ENDBRANCH  41  44
ENDBRANCH  37  38
ENDBRANCH  36  37
ENDBRANCH  35  36
ENDBRANCH  33  35
ENDBRANCH  10  33
TORSDOF 14
ENDMDL