MODEL 2
REMARK VINA RESULT: -9.061879013      1.378      2.032
REMARK  16 active torsions:
REMARK  status: ('A' for Active; 'I' for Inactive)
REMARK    1  A    between atoms: C4_5  and  C5_6
REMARK       I    between atoms: C5_6  and  N1_8
REMARK    2  A    between atoms: N1_8  and  O3_10
REMARK    3  A    between atoms: C6_12  and  O4_13
REMARK    4  A    between atoms: C13_21  and  C14_22
REMARK    5  A    between atoms: C15_23  and  C16_24
REMARK    6  A    between atoms: C16_24  and  O5_27
REMARK    7  A    between atoms: O5_27  and  C19_28
REMARK    8  A    between atoms: C19_28  and  C20_29
REMARK    9  A    between atoms: C20_29  and  C21_30
REMARK   10  A    between atoms: C21_30  and  N2_31
REMARK   11  A    between atoms: C32_42  and  O6_43
REMARK   12  A    between atoms: O6_43  and  C33_44
REMARK   13  A    between atoms: C33_44  and  C34_46
REMARK   14  A    between atoms: C34_46  and  C35_47
REMARK   15  A    between atoms: C35_47  and  C36_48
REMARK   16  A    between atoms: C36_48  and  C37_49
ROOT
HETATM    1  C1  UNL     1      25.828  26.218  18.403  1.00  0.00     0.025 C
HETATM    2  C2  UNL     1      24.693  26.365  19.030  1.00  0.00     0.010 C
HETATM    3  C3  UNL     1      24.616  26.820  20.416  1.00  0.00     0.173 C
HETATM    4  O1  UNL     1      25.687  27.015  21.053  1.00  0.00    -0.292 OA
HETATM    5  C4  UNL     1      23.306  27.045  21.044  1.00  0.00     0.193 C
HETATM    6  C6  UNL     1      22.198  26.221  20.504  1.00  0.00     0.105 C
HETATM    7  C7  UNL     1      21.403  25.491  21.498  1.00  0.00     0.009 C
HETATM    8  C8  UNL     1      20.774  24.390  21.242  1.00  0.00    -0.022 C
HETATM    9  C9  UNL     1      20.797  23.755  19.914  1.00  0.00     0.018 C
HETATM   10  C10 UNL     1      19.497  23.086  19.556  1.00  0.00     0.002 C
HETATM   11  C11 UNL     1      19.616  21.593  19.476  1.00  0.00     0.007 C
HETATM   12  C12 UNL     1      18.900  21.153  18.227  1.00  0.00     0.010 C
HETATM   13  C13 UNL     1      17.994  22.337  17.950  1.00  0.00     0.016 C
HETATM   14  C25 UNL     1      18.914  23.498  18.250  1.00  0.00    -0.033 C
HETATM   15  C26 UNL     1      18.032  24.714  18.479  1.00  0.00     0.016 C
HETATM   16  C27 UNL     1      19.896  23.699  17.156  1.00  0.00     0.010 C
HETATM   17  C28 UNL     1      21.284  24.072  17.566  1.00  0.00     0.007 C
HETATM   18  C29 UNL     1      21.258  24.742  18.891  1.00  0.00     0.008 C
HETATM   19  C30 UNL     1      22.587  25.278  19.379  1.00  0.00     0.027 C
HETATM   20  C31 UNL     1      23.410  24.108  19.798  1.00  0.00     0.022 C
HETATM   21  C32 UNL     1      23.346  26.083  18.378  1.00  0.00     0.179 C
ENDROOT
BRANCH  13  22
HETATM   22  C14 UNL     1      17.408  22.314  16.618  1.00  0.00    -0.022 C
HETATM   23  C15 UNL     1      16.105  22.102  16.490  1.00  0.00     0.006 C
BRANCH  23  24
HETATM   24  C16 UNL     1      15.379  22.051  15.189  1.00  0.00     0.071 C
HETATM   25  C17 UNL     1      16.375  22.105  14.052  1.00  0.00     0.050 C
HETATM   26  C18 UNL     1      14.426  23.216  15.032  1.00  0.00     0.050 C
BRANCH  24  27
HETATM   27  O5  UNL     1      14.635  20.872  15.116  1.00  0.00    -0.377 OA
BRANCH  27  28
HETATM   28  C19 UNL     1      13.961  20.654  16.291  1.00  0.00     0.170 C
BRANCH  28  29
HETATM   29  C20 UNL     1      12.592  20.070  16.063  1.00  0.00     0.054 C
BRANCH  29  30
HETATM   30  C21 UNL     1      11.850  20.718  14.912  1.00  0.00     0.238 C
BRANCH  30  31
HETATM   31  N2  UNL     1      11.264  19.719  14.041  1.00  0.00    -0.079 N
HETATM   32  C22 UNL     1      10.205  20.350  13.254  1.00  0.00     0.271 C
HETATM   33  C23 UNL     1      12.271  19.134  13.165  1.00  0.00     0.271 C
HETATM   34  C24 UNL     1      10.745  18.653  14.867  1.00  0.00     0.271 C
ENDBRANCH  30  31
ENDBRANCH  29  30
ENDBRANCH  28  29
ENDBRANCH  27  28
ENDBRANCH  24  27
ENDBRANCH  23  24
ENDBRANCH  13  22
BRANCH   6  35
HETATM   35  O4  UNL     1      21.260  27.108  19.880  1.00  0.00    -0.384 OA
ATOM     36  H4  UNL     1      21.457  27.129  18.952  1.00  0.00     0.211 HD
ENDBRANCH   6  35
BRANCH  21  37
HETATM   37  O6  UNL     1      22.823  27.375  18.133  1.00  0.00    -0.310 OA
BRANCH  37  38
HETATM   38  C33 UNL     1      22.853  27.857  16.837  1.00  0.00     0.259 C
HETATM   39  O7  UNL     1      21.988  28.718  16.513  1.00  0.00    -0.265 OA
BRANCH  38  40
HETATM   40  C34 UNL     1      23.870  27.382  15.840  1.00  0.00     0.111 C
BRANCH  40  41
HETATM   41  C35 UNL     1      23.189  26.868  14.590  1.00  0.00     0.010 C
BRANCH  41  42
HETATM   42  C36 UNL     1      22.852  25.411  14.630  1.00  0.00     0.000 C
BRANCH  42  43
HETATM   43  C37 UNL     1      21.442  25.086  14.205  1.00  0.00    -0.005 C
HETATM   44  C38 UNL     1      20.579  26.330  14.358  1.00  0.00     0.005 C
ENDBRANCH  42  43
ENDBRANCH  41  42
ENDBRANCH  40  41
ENDBRANCH  38  40
ENDBRANCH  37  38
ENDBRANCH  21  37
BRANCH   5  45
HETATM   45  C5  UNL     1      23.338  26.941  22.524  1.00  0.00     0.256 C
HETATM   46  O2  UNL     1      22.498  27.578  23.257  1.00  0.00    -0.270 OA
HETATM   47  N1  UNL     1      24.275  26.151  23.231  1.00  0.00    -0.237 N
ATOM     48  H1  UNL     1      24.969  25.624  22.702  1.00  0.00     0.197 HD
BRANCH  47  49
HETATM   49  O3  UNL     1      24.288  26.067  24.570  1.00  0.00    -0.287 OA
ATOM     50  H3  UNL     1      23.637  25.579  25.060  1.00  0.00     0.244 HD
ENDBRANCH  47  49
ENDBRANCH   5  45
TORSDOF 16
ENDMDL