MODEL 5
REMARK VINA RESULT: -6.779792491      1.445      2.195
REMARK  15 active torsions:
REMARK  status: ('A' for Active; 'I' for Inactive)
REMARK    1  A    between atoms: C2_2  and  C3_3
REMARK    2  A    between atoms: C3_3  and  C4_4
REMARK    3  A    between atoms: C4_4  and  C5_5
REMARK    4  A    between atoms: C5_5  and  C6_6
REMARK    5  A    between atoms: C6_6  and  C7_7
REMARK    6  A    between atoms: C7_7  and  C8_8
REMARK    7  A    between atoms: C14_14  and  N1_15
REMARK    8  A    between atoms: C17_19  and  N2_20
REMARK    9  A    between atoms: C27_35  and  O2_36
REMARK   10  A    between atoms: C29_38  and  O3_39
REMARK   11  A    between atoms: C30_41  and  C31_42
REMARK   12  A    between atoms: C31_42  and  O4_43
REMARK   13  A    between atoms: C31_42  and  N5_45
REMARK   14  A    between atoms: C35_49  and  C36_50
REMARK   15  A    between atoms: C36_50  and  C37_51
ROOT
HETATM    1  C8  UNL     1      20.312  25.063  17.246  1.00  0.00     0.083 C
HETATM    2  C9  UNL     1      20.527  23.602  17.089  1.00  0.00    -0.018 C
HETATM    3  C10 UNL     1      20.648  22.693  18.199  1.00  0.00    -0.025 C
HETATM    4  C11 UNL     1      20.838  23.118  19.595  1.00  0.00     0.066 C
HETATM    5  C12 UNL     1      22.021  23.979  19.738  1.00  0.00    -0.038 A
HETATM    6  C13 UNL     1      22.869  23.665  20.774  1.00  0.00     0.040 A
HETATM    7  C14 UNL     1      23.988  24.449  20.942  1.00  0.00     0.069 A
HETATM    8  C22 UNL     1      24.323  25.527  20.134  1.00  0.00     0.109 A
HETATM    9  C23 UNL     1      23.439  25.794  19.083  1.00  0.00     0.026 A
HETATM   10  C24 UNL     1      22.321  25.071  18.891  1.00  0.00     0.031 A
HETATM   11  C25 UNL     1      21.334  25.745  18.046  1.00  0.00     0.168 C
HETATM   12  O1  UNL     1      21.413  26.981  18.063  1.00  0.00    -0.292 OA
HETATM   13  C26 UNL     1      24.091  26.711  18.121  1.00  0.00     0.027 C
HETATM   14  C27 UNL     1      23.982  27.056  16.875  1.00  0.00     0.108 C
HETATM   15  C29 UNL     1      24.858  28.158  16.331  1.00  0.00     0.089 C
HETATM   16  C30 UNL     1      25.511  28.922  17.406  1.00  0.00     0.122 C
HETATM   17  C34 UNL     1      26.131  28.063  18.456  1.00  0.00     0.063 C
HETATM   18  C35 UNL     1      25.476  26.798  18.709  1.00  0.00     0.103 C
HETATM   19  O5  UNL     1      25.298  26.473  20.071  1.00  0.00    -0.332 OA
ENDROOT
BRANCH   7  20
HETATM   20  N1  UNL     1      24.913  24.180  22.022  1.00  0.00    -0.340 N
HETATM   21  C15 UNL     1      24.844  24.868  23.110  1.00  0.00     0.110 A
HETATM   22  C16 UNL     1      25.725  24.620  24.153  1.00  0.00     0.097 A
HETATM   23  N4  UNL     1      23.941  25.837  23.296  1.00  0.00    -0.332 N
HETATM   24  C17 UNL     1      25.670  25.342  25.326  1.00  0.00     0.107 A
HETATM   25  N3  UNL     1      24.729  26.304  25.434  1.00  0.00    -0.332 N
HETATM   26  C20 UNL     1      23.865  26.557  24.433  1.00  0.00     0.080 A
ATOM     27  H3  UNL     1      24.671  26.851  26.294  1.00  0.00     0.168 HD
HETATM   28  C21 UNL     1      22.825  27.602  24.522  1.00  0.00     0.089 C
ATOM     29  H4  UNL     1      23.281  26.039  22.545  1.00  0.00     0.168 HD
ATOM     30  H1  UNL     1      25.617  23.449  21.922  1.00  0.00     0.167 HD
BRANCH  24  31
HETATM   31  N2  UNL     1      26.579  25.077  26.384  1.00  0.00    -0.376 N
HETATM   32  C18 UNL     1      27.361  26.158  26.926  1.00  0.00     0.150 C
HETATM   33  C19 UNL     1      26.724  23.721  26.923  1.00  0.00     0.150 C
ENDBRANCH  24  31
ENDBRANCH   7  20
BRANCH  18  34
HETATM   34  C36 UNL     1      26.255  25.535  18.294  1.00  0.00     0.070 C
BRANCH  34  35
HETATM   35  C37 UNL     1      27.576  25.655  17.775  1.00  0.00    -0.033 C
HETATM   36  C38 UNL     1      27.850  25.291  16.498  1.00  0.00     0.007 C
ENDBRANCH  34  35
ENDBRANCH  18  34
BRANCH  14  37
HETATM   37  O2  UNL     1      23.081  26.511  15.967  1.00  0.00    -0.353 OA
HETATM   38  C28 UNL     1      23.421  25.469  15.132  1.00  0.00     0.210 C
ENDBRANCH  14  37
BRANCH   1  39
HETATM   39  C7  UNL     1      18.908  25.443  17.668  1.00  0.00     0.016 C
BRANCH  39  40
HETATM   40  C6  UNL     1      17.892  24.817  16.775  1.00  0.00     0.001 C
BRANCH  40  41
HETATM   41  C5  UNL     1      16.966  23.873  17.527  1.00  0.00     0.000 C
BRANCH  41  42
HETATM   42  C4  UNL     1      16.420  22.887  16.514  1.00  0.00     0.004 C
BRANCH  42  43
HETATM   43  C3  UNL     1      17.258  22.874  15.253  1.00  0.00     0.026 C
BRANCH  43  44
HETATM   44  C2  UNL     1      16.432  22.940  14.031  1.00  0.00    -0.037 C
HETATM   45  C1  UNL     1      16.480  22.032  13.056  1.00  0.00     0.007 C
ENDBRANCH  43  44
ENDBRANCH  42  43
ENDBRANCH  41  42
ENDBRANCH  40  41
ENDBRANCH  39  40
ENDBRANCH   1  39
BRANCH  15  46
HETATM   46  O3  UNL     1      25.431  27.967  15.136  1.00  0.00    -0.361 OA
ATOM     47  H3  UNL     1      24.871  27.991  14.368  1.00  0.00     0.217 HD
ENDBRANCH  15  46
BRANCH  16  48
HETATM   48  C31 UNL     1      26.384  29.972  16.923  1.00  0.00     0.123 C
BRANCH  48  49
HETATM   49  O4  UNL     1      25.777  31.106  16.634  1.00  0.00    -0.349 OA
ATOM     50  H4  UNL     1      25.063  31.336  17.216  1.00  0.00     0.219 HD
ENDBRANCH  48  49
BRANCH  48  51
HETATM   51  N5  UNL     1      27.754  30.032  16.696  1.00  0.00    -0.374 N
HETATM   52  C32 UNL     1      28.649  31.040  17.147  1.00  0.00     0.150 C
HETATM   53  C33 UNL     1      28.380  28.949  15.904  1.00  0.00     0.150 C
ENDBRANCH  48  51
ENDBRANCH  16  48
TORSDOF 15
ENDMDL