MODEL 5
REMARK VINA RESULT: -5.044266084      2.622      6.478
REMARK  18 active torsions:
REMARK  status: ('A' for Active; 'I' for Inactive)
REMARK    1  A    between atoms: C2_2  and  C3_3
REMARK    2  A    between atoms: C3_3  and  C4_4
REMARK    3  A    between atoms: C5_5  and  C6_6
REMARK    4  A    between atoms: C6_6  and  C7_7
REMARK    5  A    between atoms: C9_11  and  C10_12
REMARK    6  A    between atoms: C10_12  and  C12_14
REMARK    7  A    between atoms: C14_17  and  O4_18
REMARK    8  A    between atoms: C15_20  and  C16_21
REMARK    9  A    between atoms: C16_21  and  C18_23
REMARK   10  A    between atoms: C23_31  and  C24_32
REMARK   11  A    between atoms: C24_32  and  O6_33
REMARK   12  A    between atoms: C24_32  and  N2_35
REMARK   13  A    between atoms: N2_35  and  C25_36
REMARK   14  A    between atoms: N2_35  and  C28_39
REMARK   15  A    between atoms: C28_39  and  N3_41
REMARK   16  A    between atoms: C28_39  and  C30_45
REMARK   17  A    between atoms: C32_47  and  O7_48
REMARK   18  A    between atoms: O7_48  and  C33_49
ROOT
HETATM    1  C7  UNL     1      27.026  25.665  19.082  1.00  0.00     0.165 C
HETATM    2  O1  UNL     1      25.698  25.859  18.886  1.00  0.00    -0.311 OA
HETATM    3  C8  UNL     1      24.477  25.606  19.276  1.00  0.00     0.289 C
HETATM    4  O2  UNL     1      23.903  24.517  19.538  1.00  0.00    -0.262 OA
HETATM    5  C9  UNL     1      23.501  26.761  19.472  1.00  0.00     0.228 C
HETATM    6  O3  UNL     1      23.019  27.127  18.289  1.00  0.00    -0.344 OA
HETATM    7  C14 UNL     1      22.849  27.632  17.130  1.00  0.00     0.280 C
HETATM    8  C15 UNL     1      23.027  26.921  15.844  1.00  0.00     0.143 C
HETATM    9  N1  UNL     1      24.254  27.173  15.145  1.00  0.00    -0.351 N
ATOM     10  H1  UNL     1      24.141  27.115  14.134  1.00  0.00     0.163 HD
HETATM   11  C20 UNL     1      25.552  27.475  15.509  1.00  0.00     0.222 C
HETATM   12  O5  UNL     1      25.956  28.651  15.216  1.00  0.00    -0.273 OA
HETATM   13  C21 UNL     1      26.599  26.662  16.191  1.00  0.00     0.088 C
HETATM   14  C22 UNL     1      27.542  26.245  15.111  1.00  0.00     0.021 C
HETATM   15  C23 UNL     1      27.201  27.458  17.336  1.00  0.00     0.104 C
HETATM   16  C32 UNL     1      27.997  26.550  18.283  1.00  0.00     0.165 C
ENDROOT
BRANCH  15  17
HETATM   17  C24 UNL     1      27.844  28.694  16.929  1.00  0.00     0.123 C
BRANCH  17  18
HETATM   18  O6  UNL     1      28.326  28.739  15.711  1.00  0.00    -0.349 OA
ATOM     19  H6  UNL     1      28.812  29.519  15.469  1.00  0.00     0.219 HD
ENDBRANCH  17  18
BRANCH  17  20
HETATM   20  N2  UNL     1      28.060  29.913  17.623  1.00  0.00    -0.329 N
BRANCH  20  21
HETATM   21  C25 UNL     1      29.037  30.210  18.622  1.00  0.00     0.080 C
HETATM   22  C26 UNL     1      28.829  29.543  19.964  1.00  0.00     0.032 C
HETATM   23  C27 UNL     1      30.476  30.024  18.181  1.00  0.00     0.032 C
ENDBRANCH  20  21
BRANCH  20  24
HETATM   24  C28 UNL     1      27.161  31.019  17.212  1.00  0.00     0.195 C
HETATM   25  C29 UNL     1      27.670  31.463  15.857  1.00  0.00     0.070 C
BRANCH  24  26
HETATM   26  N3  UNL     1      25.797  30.559  17.010  1.00  0.00    -0.053 N
ATOM     27  H33 UNL     1      25.231  31.266  16.542  1.00  0.00     0.277 HD
ATOM     28  H32 UNL     1      25.753  29.825  16.303  1.00  0.00     0.277 HD
ATOM     29  H31 UNL     1      25.366  30.258  17.885  1.00  0.00     0.277 HD
ENDBRANCH  24  26
BRANCH  24  30
HETATM   30  C30 UNL     1      27.187  32.191  18.134  1.00  0.00     0.056 C
HETATM   31  C31 UNL     1      26.131  33.200  17.646  1.00  0.00     0.009 C
ENDBRANCH  24  30
ENDBRANCH  20  24
ENDBRANCH  17  20
ENDBRANCH  15  17
BRANCH  16  32
HETATM   32  O7  UNL     1      28.903  25.824  17.623  1.00  0.00    -0.373 OA
BRANCH  32  33
HETATM   33  C33 UNL     1      30.105  25.420  17.886  1.00  0.00     0.051 C
HETATM   34  C34 UNL     1      31.193  25.567  16.805  1.00  0.00     0.045 C
HETATM   35  C35 UNL     1      30.375  24.094  18.559  1.00  0.00     0.045 C
HETATM   36  C36 UNL     1      30.659  26.428  18.972  1.00  0.00     0.045 C
ENDBRANCH  32  33
ENDBRANCH  16  32
BRANCH   1  37
HETATM   37  C6  UNL     1      27.347  25.415  20.516  1.00  0.00     0.062 C
BRANCH  37  38
HETATM   38  C5  UNL     1      27.504  24.038  20.944  1.00  0.00    -0.028 C
HETATM   39  C4  UNL     1      27.121  23.566  22.084  1.00  0.00    -0.031 C
BRANCH  39  40
HETATM   40  C3  UNL     1      26.459  24.286  23.182  1.00  0.00     0.026 C
BRANCH  40  41
HETATM   41  C2  UNL     1      24.953  24.397  22.956  1.00  0.00    -0.001 C
HETATM   42  C1  UNL     1      24.512  25.776  23.377  1.00  0.00     0.005 C
ENDBRANCH  40  41
ENDBRANCH  39  40
ENDBRANCH  37  38
ENDBRANCH   1  37
BRANCH   8  43
HETATM   43  C16 UNL     1      22.688  25.441  15.899  1.00  0.00     0.009 C
HETATM   44  C17 UNL     1      22.906  24.807  14.521  1.00  0.00     0.012 C
BRANCH  43  45
HETATM   45  C18 UNL     1      21.231  25.220  16.243  1.00  0.00     0.002 C
HETATM   46  C19 UNL     1      20.354  25.355  15.043  1.00  0.00     0.005 C
ENDBRANCH  43  45
ENDBRANCH   8  43
BRANCH   7  47
HETATM   47  O4  UNL     1      22.489  28.873  16.974  1.00  0.00    -0.369 OA
ATOM     48  H4  UNL     1      22.547  29.499  17.686  1.00  0.00     0.212 HD
ENDBRANCH   7  47
BRANCH   5  49
HETATM   49  C10 UNL     1      22.436  26.423  20.497  1.00  0.00     0.020 C
HETATM   50  C11 UNL     1      21.960  27.567  21.312  1.00  0.00     0.013 C
BRANCH  49  51
HETATM   51  C12 UNL     1      21.269  25.846  19.725  1.00  0.00     0.003 C
HETATM   52  C13 UNL     1      20.592  24.705  20.448  1.00  0.00     0.005 C
ENDBRANCH  49  51
ENDBRANCH   5  49
TORSDOF 18
ENDMDL