MODEL 2
REMARK VINA RESULT: -9.436411125      2.555     10.285
REMARK  14 active torsions:
REMARK  status: ('A' for Active; 'I' for Inactive)
REMARK    1  A    between atoms: O1_2  and  C2_3
REMARK    2  A    between atoms: C5_8  and  C6_9
REMARK    3  A    between atoms: N2_11  and  C8_12
REMARK    4  A    between atoms: C8_12  and  C9_13
REMARK    5  A    between atoms: C9_13  and  O2_14
REMARK    6  A    between atoms: O2_14  and  C10_15
REMARK    7  A    between atoms: C18_26  and  N4_27
REMARK    8  A    between atoms: N4_27  and  C19_29
REMARK    9  A    between atoms: C19_29  and  C20_30
REMARK   10  A    between atoms: C20_30  and  C21_31
REMARK   11  A    between atoms: C21_31  and  N5_32
REMARK   12  A    between atoms: C29_41  and  O3_42
REMARK   13  A    between atoms: O3_42  and  C30_43
REMARK   14  A    between atoms: C30_43  and  C31_44
ROOT
HETATM    1  C2  UNL     1      17.104  21.972  15.012  1.00  0.00     0.103 A
HETATM    2  C3  UNL     1      18.098  22.679  15.573  1.00  0.00     0.070 A
HETATM    3  C4  UNL     1      18.224  22.612  16.971  1.00  0.00     0.050 A
HETATM    4  N1  UNL     1      19.151  23.353  17.513  1.00  0.00    -0.340 N
ATOM      5  H1  UNL     1      19.792  23.867  16.909  1.00  0.00     0.167 HD
HETATM    6  C5  UNL     1      19.284  23.455  18.843  1.00  0.00     0.126 A
HETATM    7  N3  UNL     1      18.445  22.802  19.583  1.00  0.00    -0.326 N
ATOM      8  H3  UNL     1      18.542  22.895  20.594  1.00  0.00     0.169 HD
HETATM    9  C18 UNL     1      17.489  22.036  19.144  1.00  0.00     0.126 A
HETATM   10  C27 UNL     1      17.340  21.867  17.717  1.00  0.00     0.038 A
HETATM   11  C28 UNL     1      16.362  21.148  17.162  1.00  0.00     0.057 A
HETATM   12  C29 UNL     1      16.186  21.147  15.759  1.00  0.00     0.103 A
ENDROOT
BRANCH   6  13
HETATM   13  C6  UNL     1      20.531  24.086  19.369  1.00  0.00     0.065 A
HETATM   14  C7  UNL     1      20.833  25.411  19.235  1.00  0.00     0.113 A
HETATM   15  N2  UNL     1      21.943  25.890  19.806  1.00  0.00    -0.357 N
HETATM   16  C17 UNL     1      22.688  25.004  20.479  1.00  0.00     0.141 A
HETATM   17  S1  UNL     1      21.824  23.527  20.303  1.00  0.00    -0.080 SA
BRANCH  15  18
HETATM   18  C8  UNL     1      22.303  27.295  19.637  1.00  0.00     0.155 C
BRANCH  18  19
HETATM   19  C9  UNL     1      23.469  27.510  18.692  1.00  0.00     0.196 C
BRANCH  19  20
HETATM   20  O2  UNL     1      22.878  28.033  17.554  1.00  0.00    -0.350 OA
BRANCH  20  21
HETATM   21  C10 UNL     1      22.353  27.493  16.433  1.00  0.00     0.069 A
HETATM   22  C11 UNL     1      21.327  28.185  15.759  1.00  0.00     0.037 A
HETATM   23  C12 UNL     1      20.758  27.660  14.656  1.00  0.00     0.003 A
HETATM   24  C13 UNL     1      21.151  26.425  14.133  1.00  0.00     0.007 A
HETATM   25  C14 UNL     1      22.172  25.748  14.807  1.00  0.00    -0.059 A
HETATM   26  C15 UNL     1      22.629  24.414  14.285  1.00  0.00     0.048 C
HETATM   27  C16 UNL     1      22.740  26.287  15.923  1.00  0.00     0.043 A
ENDBRANCH  20  21
ENDBRANCH  19  20
ENDBRANCH  18  19
ENDBRANCH  15  18
ENDBRANCH   6  13
BRANCH   9  28
HETATM   28  N4  UNL     1      16.147  22.098  19.530  1.00  0.00    -0.311 N
ATOM     29  H4  UNL     1      15.547  22.851  19.194  1.00  0.00     0.177 HD
BRANCH  28  30
HETATM   30  C19 UNL     1      15.651  21.142  20.357  1.00  0.00    -0.068 C
BRANCH  30  31
HETATM   31  C20 UNL     1      15.348  19.875  20.918  1.00  0.00     0.134 C
BRANCH  31  32
HETATM   32  C21 UNL     1      14.758  18.947  19.824  1.00  0.00     0.285 C
BRANCH  32  33
HETATM   33  N5  UNL     1      13.370  18.979  19.642  1.00  0.00     0.092 N
HETATM   34  C22 UNL     1      13.074  18.224  18.404  1.00  0.00     0.302 C
HETATM   35  C23 UNL     1      11.650  17.894  18.189  1.00  0.00     0.302 C
HETATM   36  N6  UNL     1      11.047  17.217  19.320  1.00  0.00     0.087 N
HETATM   37  C24 UNL     1      10.606  15.873  18.916  1.00  0.00     0.310 C
HETATM   38  C25 UNL     1      12.038  17.012  20.367  1.00  0.00     0.302 C
HETATM   39  C26 UNL     1      12.647  18.323  20.743  1.00  0.00     0.302 C
ENDBRANCH  32  33
ENDBRANCH  31  32
ENDBRANCH  30  31
ENDBRANCH  28  30
ENDBRANCH   9  28
BRANCH   1  40
HETATM   40  O1  UNL     1      16.916  22.083  13.621  1.00  0.00    -0.353 OA
HETATM   41  C1  UNL     1      16.325  23.201  13.041  1.00  0.00     0.210 C
ENDBRANCH   1  40
BRANCH  12  42
HETATM   42  O3  UNL     1      15.355  20.470  15.073  1.00  0.00    -0.344 OA
BRANCH  42  43
HETATM   43  C30 UNL     1      14.482  19.902  14.258  1.00  0.00     0.217 C
BRANCH  43  44
HETATM   44  C31 UNL     1      13.128  20.469  14.679  1.00  0.00    -0.005 A
HETATM   45  C32 UNL     1      12.047  19.546  14.684  1.00  0.00    -0.036 A
HETATM   46  C33 UNL     1      12.134  18.135  14.293  1.00  0.00     0.050 C
HETATM   47  C34 UNL     1      10.962  20.237  15.142  1.00  0.00     0.095 A
HETATM   48  N7  UNL     1      11.337  21.499  15.397  1.00  0.00    -0.368 N
HETATM   49  C35 UNL     1      12.692  21.627  15.094  1.00  0.00     0.014 A
ATOM     50  H7  UNL     1      10.733  22.240  15.752  1.00  0.00     0.165 HD
HETATM   51  C36 UNL     1      13.336  22.979  15.180  1.00  0.00     0.068 C
ENDBRANCH  43  44
ENDBRANCH  42  43
ENDBRANCH  12  42
TORSDOF 14
ENDMDL