MODEL 2
REMARK VINA RESULT: -8.545560591      1.284      1.605
REMARK  14 active torsions:
REMARK  status: ('A' for Active; 'I' for Inactive)
REMARK    1  A    between atoms: O1_2  and  C2_3
REMARK    2  A    between atoms: C9_10  and  C10_11
REMARK       I    between atoms: C10_11  and  N1_13
REMARK    3  A    between atoms: N1_13  and  C11_14
REMARK    4  A    between atoms: C11_14  and  C12_15
REMARK    5  A    between atoms: C11_14  and  C20_25
REMARK    6  A    between atoms: C12_15  and  C13_16
REMARK    7  A    between atoms: C13_16  and  C14_17
REMARK    8  A    between atoms: C14_17  and  C15_18
REMARK    9  A    between atoms: C15_18  and  N2_19
REMARK   10  A    between atoms: C25_30  and  C26_31
REMARK       I    between atoms: C26_31  and  N3_33
REMARK   11  A    between atoms: N3_33  and  C27_35
REMARK   12  A    between atoms: C29_38  and  C30_39
REMARK   13  A    between atoms: C30_39  and  O6_41
REMARK   14  A    between atoms: O6_41  and  C31_42
ROOT
HETATM    1  C27 UNL     1      14.649  20.174  13.886  1.00  0.00     0.247 C
HETATM    2  C28 UNL     1      13.269  20.195  14.310  1.00  0.00     0.078 C
HETATM    3  N4  UNL     1      12.172  20.237  14.653  1.00  0.00    -0.196 NA
ENDROOT
BRANCH   1   4
HETATM    4  N3  UNL     1      15.513  20.485  14.994  1.00  0.00    -0.348 N
HETATM    5  C26 UNL     1      16.284  21.700  14.921  1.00  0.00     0.223 C
HETATM    6  O4  UNL     1      16.121  22.390  13.906  1.00  0.00    -0.273 OA
ATOM      7  H3  UNL     1      15.578  19.866  15.803  1.00  0.00     0.163 HD
BRANCH   5   8
HETATM    8  C25 UNL     1      17.191  21.999  16.068  1.00  0.00     0.097 C
HETATM    9  C24 UNL     1      17.768  23.346  15.832  1.00  0.00     0.031 C
HETATM   10  C9  UNL     1      18.854  23.710  16.872  1.00  0.00     0.105 C
HETATM   11  C8  UNL     1      18.525  23.326  18.252  1.00  0.00     0.004 C
HETATM   12  C2  UNL     1      18.870  24.257  19.372  1.00  0.00     0.131 C
HETATM   13  C7  UNL     1      19.403  22.089  18.650  1.00  0.00     0.014 C
HETATM   14  C37 UNL     1      17.124  22.829  18.454  1.00  0.00     0.017 C
HETATM   15  C3  UNL     1      20.306  24.730  19.387  1.00  0.00     0.037 C
HETATM   16  C4  UNL     1      21.321  23.652  19.238  1.00  0.00    -0.016 C
HETATM   17  C5  UNL     1      22.008  23.359  20.585  1.00  0.00     0.010 C
HETATM   18  C6  UNL     1      20.855  22.385  18.657  1.00  0.00     0.005 C
HETATM   19  C29 UNL     1      16.600  21.860  17.414  1.00  0.00     0.064 C
HETATM   20  C36 UNL     1      16.041  23.822  18.599  1.00  0.00     0.007 C
HETATM   21  C34 UNL     1      15.106  22.075  17.452  1.00  0.00     0.021 C
HETATM   22  C35 UNL     1      14.861  22.816  18.806  1.00  0.00     0.002 C
BRANCH  10  23
HETATM   23  C10 UNL     1      19.010  25.189  16.561  1.00  0.00     0.296 C
HETATM   24  O2  UNL     1      17.918  25.778  16.542  1.00  0.00    -0.257 OA
HETATM   25  N1  UNL     1      20.241  25.755  16.327  1.00  0.00    -0.379 NA
BRANCH  25  26
HETATM   26  C11 UNL     1      21.465  26.318  16.094  1.00  0.00     0.073 C
BRANCH  26  27
HETATM   27  C12 UNL     1      22.504  26.457  17.193  1.00  0.00     0.069 C
BRANCH  27  28
HETATM   28  C13 UNL     1      22.400  27.594  18.105  1.00  0.00     0.008 C
BRANCH  28  29
HETATM   29  C14 UNL     1      23.239  27.418  19.335  1.00  0.00     0.030 C
BRANCH  29  30
HETATM   30  C15 UNL     1      24.022  26.195  19.519  1.00  0.00     0.272 C
BRANCH  30  31
HETATM   31  N2  UNL     1      25.363  26.261  19.955  1.00  0.00     0.092 N
HETATM   32  C16 UNL     1      26.188  25.143  19.579  1.00  0.00     0.298 C
HETATM   33  C17 UNL     1      25.894  23.872  20.326  1.00  0.00     0.198 C
HETATM   34  O3  UNL     1      26.131  24.102  21.660  1.00  0.00    -0.388 OA
HETATM   35  C18 UNL     1      25.140  25.017  22.088  1.00  0.00     0.198 C
HETATM   36  C19 UNL     1      25.383  26.330  21.407  1.00  0.00     0.298 C
ENDBRANCH  30  31
ENDBRANCH  29  30
ENDBRANCH  28  29
ENDBRANCH  27  28
ENDBRANCH  26  27
BRANCH  26  37
HETATM   37  C20 UNL     1      22.093  26.089  14.723  1.00  0.00     0.001 C
HETATM   38  C21 UNL     1      20.931  26.193  13.722  1.00  0.00     0.022 C
HETATM   39  C22 UNL     1      22.676  24.730  14.528  1.00  0.00     0.022 C
HETATM   40  C23 UNL     1      23.038  27.204  14.419  1.00  0.00     0.022 C
ENDBRANCH  26  37
ENDBRANCH  25  26
ENDBRANCH  10  23
BRANCH  12  41
HETATM   41  O1  UNL     1      18.788  23.497  20.568  1.00  0.00    -0.390 OA
HETATM   42  C1  UNL     1      18.623  24.180  21.722  1.00  0.00     0.202 C
ENDBRANCH  12  41
BRANCH  19  43
HETATM   43  C30 UNL     1      16.827  20.431  17.859  1.00  0.00     0.269 C
HETATM   44  O5  UNL     1      17.986  20.001  17.915  1.00  0.00    -0.264 OA
BRANCH  43  45
HETATM   45  O6  UNL     1      15.762  19.627  18.193  1.00  0.00    -0.316 OA
BRANCH  45  46
HETATM   46  C31 UNL     1      15.627  18.837  19.335  1.00  0.00     0.123 C
HETATM   47  C32 UNL     1      15.297  19.615  20.568  1.00  0.00     0.040 C
HETATM   48  C33 UNL     1      14.491  17.853  19.064  1.00  0.00     0.040 C
ENDBRANCH  45  46
ENDBRANCH  43  45
ENDBRANCH  19  43
ENDBRANCH   5   8
ENDBRANCH   1   4
TORSDOF 14
ENDMDL