MODEL 1
REMARK VINA RESULT: -8.271878549      0.000      0.000
REMARK  15 active torsions:
REMARK  status: ('A' for Active; 'I' for Inactive)
REMARK    1  A    between atoms: O1_2  and  C2_3
REMARK       I    between atoms: C2_3  and  N1_5
REMARK    2  A    between atoms: N1_5  and  C3_7
REMARK    3  A    between atoms: C3_7  and  C4_8
REMARK    4  A    between atoms: C4_8  and  C5_9
REMARK    5  A    between atoms: C5_9  and  N2_10
REMARK    6  A    between atoms: C7_12  and  C8_13
REMARK    7  A    between atoms: C8_13  and  C9_14
REMARK    8  A    between atoms: C9_14  and  C10_15
REMARK    9  A    between atoms: C12_19  and  C13_20
REMARK   10  A    between atoms: C13_20  and  N3_22
REMARK   11  A    between atoms: C20_28  and  C21_29
REMARK   12  A    between atoms: C22_30  and  C23_31
REMARK   13  A    between atoms: C29_37  and  O5_38
REMARK   14  A    between atoms: C29_37  and  C32_42
REMARK   15  A    between atoms: O5_38  and  C30_39
ROOT
HETATM    1  C10 UNL     1      23.044  26.604  17.172  1.00  0.00     0.061 C
HETATM    2  C11 UNL     1      22.706  27.959  16.693  1.00  0.00     0.269 C
HETATM    3  O3  UNL     1      21.711  28.393  16.088  1.00  0.00    -0.264 OA
HETATM    4  O4  UNL     1      23.776  28.771  17.053  1.00  0.00    -0.313 OA
HETATM    5  C12 UNL     1      24.958  27.990  17.094  1.00  0.00     0.170 C
HETATM    6  C17 UNL     1      24.560  26.597  16.772  1.00  0.00     0.036 C
HETATM    7  C18 UNL     1      24.525  26.218  15.343  1.00  0.00     0.009 C
HETATM    8  C19 UNL     1      23.120  25.779  15.011  1.00  0.00     0.010 C
HETATM    9  C20 UNL     1      22.476  25.520  16.395  1.00  0.00     0.026 C
ENDROOT
BRANCH   9  10
HETATM   10  C21 UNL     1      21.050  25.409  16.171  1.00  0.00    -0.024 C
HETATM   11  C22 UNL     1      20.279  24.528  16.773  1.00  0.00    -0.025 C
BRANCH  11  12
HETATM   12  C23 UNL     1      18.800  24.364  16.585  1.00  0.00     0.019 C
HETATM   13  C24 UNL     1      18.615  23.761  15.239  1.00  0.00     0.010 C
HETATM   14  C25 UNL     1      17.529  22.808  15.017  1.00  0.00     0.013 C
HETATM   15  C26 UNL     1      16.632  22.469  16.172  1.00  0.00    -0.006 C
HETATM   16  C27 UNL     1      16.112  21.029  15.939  1.00  0.00     0.018 C
HETATM   17  C28 UNL     1      15.396  23.335  16.043  1.00  0.00     0.018 C
HETATM   18  C29 UNL     1      17.299  22.534  17.527  1.00  0.00     0.163 C
HETATM   19  C33 UNL     1      18.135  23.738  17.761  1.00  0.00     0.001 C
HETATM   20  C34 UNL     1      17.353  24.913  18.390  1.00  0.00     0.019 C
HETATM   21  C35 UNL     1      19.150  23.445  18.851  1.00  0.00     0.019 C
BRANCH  18  22
HETATM   22  O5  UNL     1      16.391  22.145  18.362  1.00  0.00    -0.299 OA
BRANCH  22  23
HETATM   23  C30 UNL     1      15.529  21.812  19.216  1.00  0.00     0.256 C
HETATM   24  C31 UNL     1      15.390  20.699  20.144  1.00  0.00     0.126 C
HETATM   25  O6  UNL     1      14.650  22.704  19.170  1.00  0.00    -0.266 OA
ENDBRANCH  22  23
ENDBRANCH  18  22
BRANCH  18  26
HETATM   26  C32 UNL     1      18.278  21.402  17.608  1.00  0.00     0.268 C
HETATM   27  N4  UNL     1      19.324  21.035  16.779  1.00  0.00    -0.059 NA
HETATM   28  O7  UNL     1      18.180  20.586  18.590  1.00  0.00    -0.273 OA
ENDBRANCH  18  26
ENDBRANCH  11  12
ENDBRANCH   9  10
BRANCH   1  29
HETATM   29  C9  UNL     1      22.959  26.564  18.667  1.00  0.00     0.026 C
BRANCH  29  30
HETATM   30  C8  UNL     1      21.889  27.369  19.300  1.00  0.00     0.046 C
BRANCH  30  31
HETATM   31  C7  UNL     1      22.244  27.617  20.761  1.00  0.00     0.062 C
HETATM   32  N2  UNL     1      22.102  26.558  21.607  1.00  0.00    -0.378 N
HETATM   33  C6  UNL     1      21.193  25.502  21.390  1.00  0.00     0.154 C
BRANCH  32  34
HETATM   34  C5  UNL     1      22.450  26.673  22.947  1.00  0.00     0.064 C
BRANCH  34  35
HETATM   35  C4  UNL     1      23.893  26.546  23.332  1.00  0.00     0.064 C
BRANCH  35  36
HETATM   36  C3  UNL     1      24.557  25.253  23.026  1.00  0.00     0.130 C
BRANCH  36  37
HETATM   37  N1  UNL     1      25.378  25.352  21.814  1.00  0.00    -0.337 N
HETATM   38  C2  UNL     1      25.117  24.543  20.681  1.00  0.00     0.360 C
HETATM   39  O2  UNL     1      24.185  23.710  20.690  1.00  0.00    -0.239 OA
ATOM     40  H1  UNL     1      26.151  26.017  21.787  1.00  0.00     0.164 HD
BRANCH  38  41
HETATM   41  O1  UNL     1      25.856  24.608  19.496  1.00  0.00    -0.309 OA
HETATM   42  C1  UNL     1      26.975  25.507  19.410  1.00  0.00     0.215 C
ENDBRANCH  38  41
ENDBRANCH  36  37
ENDBRANCH  35  36
ENDBRANCH  34  35
ENDBRANCH  32  34
ENDBRANCH  30  31
ENDBRANCH  29  30
ENDBRANCH   1  29
BRANCH   5  43
HETATM   43  C13 UNL     1      26.031  28.610  16.262  1.00  0.00     0.247 C
HETATM   44  C14 UNL     1      26.224  30.032  16.819  1.00  0.00     0.045 C
BRANCH  43  45
HETATM   45  N3  UNL     1      27.273  27.924  16.251  1.00  0.00     0.086 N
HETATM   46  C15 UNL     1      27.871  27.962  14.935  1.00  0.00     0.310 C
HETATM   47  C16 UNL     1      28.236  28.415  17.214  1.00  0.00     0.310 C
ENDBRANCH  43  45
ENDBRANCH   5  43
TORSDOF 15
ENDMDL