MODEL 1
REMARK VINA RESULT: -9.040469325      0.000      0.000
REMARK  14 active torsions:
REMARK  status: ('A' for Active; 'I' for Inactive)
REMARK    1  A    between atoms: C2_2  and  N1_3
REMARK    2  A    between atoms: N1_3  and  C3_4
REMARK    3  A    between atoms: N1_3  and  C5_6
REMARK    4  A    between atoms: C5_6  and  C6_7
REMARK    5  A    between atoms: C6_7  and  N2_8
REMARK       I    between atoms: N2_8  and  C7_10
REMARK    6  A    between atoms: C7_10  and  C8_12
REMARK    7  A    between atoms: C8_12  and  C9_13
REMARK    8  A    between atoms: C9_13  and  C10_14
REMARK       I    between atoms: C10_14  and  N3_16
REMARK    9  A    between atoms: N3_16  and  C11_18
REMARK   10  A    between atoms: C13_22  and  C14_23
REMARK   11  A    between atoms: C17_26  and  N5_27
REMARK   12  A    between atoms: C20_30  and  N6_31
REMARK   13  A    between atoms: C30_42  and  C31_43
REMARK       I    between atoms: C31_43  and  N7_45
REMARK   14  A    between atoms: N7_45  and  C33_48
ROOT
HETATM    1  C31 UNL     1      20.938  23.658  17.945  1.00  0.00     0.271 C
HETATM    2  O3  UNL     1      21.621  23.197  17.024  1.00  0.00    -0.266 OA
HETATM    3  N7  UNL     1      21.493  23.983  19.203  1.00  0.00    -0.251 N
HETATM    4  C32 UNL     1      20.771  24.502  20.263  1.00  0.00     0.187 C
HETATM    5  N8  UNL     1      20.165  24.924  21.161  1.00  0.00    -0.172 NA
ENDROOT
BRANCH   3   6
HETATM    6  C33 UNL     1      22.926  23.759  19.410  1.00  0.00     0.140 C
HETATM    7  C34 UNL     1      23.091  23.307  20.852  1.00  0.00     0.028 C
ENDBRANCH   3   6
BRANCH   1   8
HETATM    8  C30 UNL     1      19.516  23.874  17.729  1.00  0.00     0.084 A
HETATM    9  C11 UNL     1      19.104  25.038  17.067  1.00  0.00     0.124 A
HETATM   10  N4  UNL     1      17.780  25.189  16.901  1.00  0.00    -0.350 N
HETATM   11  C12 UNL     1      16.894  24.262  17.350  1.00  0.00     0.103 A
ATOM     12  H4  UNL     1      17.430  26.020  16.425  1.00  0.00     0.166 HD
HETATM   13  C13 UNL     1      17.284  23.113  18.001  1.00  0.00     0.004 A
HETATM   14  C28 UNL     1      18.621  22.917  18.193  1.00  0.00    -0.029 A
HETATM   15  C29 UNL     1      19.147  21.698  18.891  1.00  0.00     0.050 C
BRANCH   9  16
HETATM   16  N3  UNL     1      20.020  25.809  16.694  1.00  0.00    -0.312 N
HETATM   17  C10 UNL     1      20.384  26.344  15.471  1.00  0.00     0.223 C
HETATM   18  O2  UNL     1      20.223  27.617  15.355  1.00  0.00    -0.273 OA
ATOM     19  H3  UNL     1      20.627  26.106  17.458  1.00  0.00     0.170 HD
BRANCH  17  20
HETATM   20  C9  UNL     1      20.916  25.497  14.399  1.00  0.00     0.112 C
BRANCH  20  21
HETATM   21  C8  UNL     1      22.337  25.091  14.526  1.00  0.00     0.112 C
BRANCH  21  22
HETATM   22  C7  UNL     1      23.215  26.050  15.253  1.00  0.00     0.218 C
HETATM   23  N2  UNL     1      23.601  25.732  16.573  1.00  0.00    -0.359 N
ATOM     24  H2  UNL     1      23.286  24.857  16.993  1.00  0.00     0.162 HD
HETATM   25  O1  UNL     1      23.571  27.095  14.666  1.00  0.00    -0.274 OA
BRANCH  23  26
HETATM   26  C6  UNL     1      24.439  26.634  17.337  1.00  0.00     0.152 C
BRANCH  26  27
HETATM   27  C5  UNL     1      23.726  27.244  18.480  1.00  0.00     0.292 C
BRANCH  27  28
HETATM   28  N1  UNL     1      24.562  27.381  19.664  1.00  0.00     0.089 N
BRANCH  28  29
HETATM   29  C2  UNL     1      23.627  27.037  20.814  1.00  0.00     0.268 C
HETATM   30  C1  UNL     1      22.356  27.802  20.692  1.00  0.00     0.037 C
ENDBRANCH  28  29
BRANCH  28  31
HETATM   31  C3  UNL     1      25.586  26.391  19.756  1.00  0.00     0.268 C
HETATM   32  C4  UNL     1      25.786  25.909  21.145  1.00  0.00     0.037 C
ENDBRANCH  28  31
ENDBRANCH  27  28
ENDBRANCH  26  27
ENDBRANCH  23  26
ENDBRANCH  21  22
ENDBRANCH  20  21
ENDBRANCH  17  20
ENDBRANCH   9  16
BRANCH  13  33
HETATM   33  C14 UNL     1      16.294  22.129  18.463  1.00  0.00     0.019 A
HETATM   34  C15 UNL     1      16.209  21.582  19.723  1.00  0.00     0.023 A
HETATM   35  C16 UNL     1      15.224  20.707  19.942  1.00  0.00     0.038 A
HETATM   36  C17 UNL     1      14.378  20.423  18.907  1.00  0.00     0.072 A
HETATM   37  S1  UNL     1      14.994  21.397  17.647  1.00  0.00    -0.072 SA
BRANCH  36  38
HETATM   38  N5  UNL     1      13.246  19.526  18.908  1.00  0.00    -0.375 N
HETATM   39  C18 UNL     1      13.067  18.686  20.062  1.00  0.00     0.125 C
HETATM   40  C19 UNL     1      12.189  17.494  19.847  1.00  0.00     0.055 C
HETATM   41  C20 UNL     1      12.207  17.146  18.372  1.00  0.00     0.226 C
HETATM   42  C26 UNL     1      11.549  18.291  17.649  1.00  0.00     0.055 C
HETATM   43  C27 UNL     1      12.396  19.551  17.749  1.00  0.00     0.125 C
BRANCH  41  44
HETATM   44  N6  UNL     1      11.538  15.919  18.123  1.00  0.00     0.093 N
HETATM   45  C21 UNL     1      11.235  15.599  16.772  1.00  0.00     0.273 C
HETATM   46  C22 UNL     1      11.129  14.072  16.658  1.00  0.00     0.030 C
HETATM   47  C23 UNL     1      10.031  13.618  17.559  1.00  0.00     0.003 C
HETATM   48  C24 UNL     1       9.393  14.753  18.300  1.00  0.00     0.030 C
HETATM   49  C25 UNL     1      10.428  15.631  18.980  1.00  0.00     0.273 C
ENDBRANCH  41  44
ENDBRANCH  36  38
ENDBRANCH  13  33
ENDBRANCH   1   8
TORSDOF 14
ENDMDL