MODEL 1
REMARK VINA RESULT: -8.966605472      0.000      0.000
REMARK  15 active torsions:
REMARK  status: ('A' for Active; 'I' for Inactive)
REMARK    1  A    between atoms: C2_2  and  C3_3
REMARK    2  A    between atoms: C3_3  and  C4_4
REMARK    3  A    between atoms: C8_9  and  C9_10
REMARK    4  A    between atoms: C9_10  and  C10_11
REMARK    5  A    between atoms: C10_11  and  C11_12
REMARK    6  A    between atoms: N1_21  and  C17_22
REMARK    7  A    between atoms: C17_22  and  C18_23
REMARK       I    between atoms: C18_23  and  N2_25
REMARK    8  A    between atoms: N2_25  and  C19_27
REMARK    9  A    between atoms: C19_27  and  C20_28
REMARK   10  A    between atoms: C19_27  and  C23_33
REMARK   11  A    between atoms: C20_28  and  C21_29
REMARK   12  A    between atoms: C21_29  and  C22_30
REMARK   13  A    between atoms: C23_33  and  O6_34
REMARK   14  A    between atoms: C23_33  and  N3_36
REMARK   15  A    between atoms: N4_39  and  C26_40
ROOT
HETATM    1  C18 UNL     1      20.512  23.876  16.875  1.00  0.00     0.240 C
HETATM    2  O3  UNL     1      20.097  22.659  16.843  1.00  0.00    -0.271 OA
HETATM    3  N2  UNL     1      19.991  24.740  17.823  1.00  0.00    -0.325 N
ATOM      4  H2  UNL     1      20.363  25.690  17.835  1.00  0.00     0.168 HD
ENDROOT
BRANCH   1   5
HETATM    5  C17 UNL     1      21.515  24.205  15.871  1.00  0.00     0.232 C
BRANCH   5   6
HETATM    6  N1  UNL     1      21.813  25.601  15.683  1.00  0.00    -0.301 N
HETATM    7  C7  UNL     1      22.900  26.272  16.351  1.00  0.00     0.196 C
HETATM    8  C6  UNL     1      24.069  26.210  15.391  1.00  0.00     0.078 C
HETATM    9  O1  UNL     1      23.144  25.702  17.559  1.00  0.00    -0.314 OA
HETATM   10  S2  UNL     1      22.282  27.969  16.448  1.00  0.00    -0.099 SA
HETATM   11  C5  UNL     1      25.159  27.040  16.030  1.00  0.00     0.042 C
HETATM   12  C4  UNL     1      25.456  26.343  17.359  1.00  0.00    -0.050 C
HETATM   13  C8  UNL     1      24.273  26.136  18.231  1.00  0.00     0.053 C
HETATM   14  C15 UNL     1      20.827  27.791  15.375  1.00  0.00     0.181 C
HETATM   15  C16 UNL     1      21.094  26.457  14.795  1.00  0.00     0.232 C
HETATM   16  O2  UNL     1      20.701  26.149  13.617  1.00  0.00    -0.272 OA
BRANCH  12  17
HETATM   17  C3  UNL     1      26.701  26.822  17.982  1.00  0.00     0.036 C
BRANCH  17  18
HETATM   18  C2  UNL     1      27.703  25.831  18.427  1.00  0.00    -0.000 C
HETATM   19  C1  UNL     1      27.648  24.648  17.441  1.00  0.00     0.005 C
ENDBRANCH  17  18
ENDBRANCH  12  17
BRANCH  13  20
HETATM   20  C9  UNL     1      23.982  27.183  19.249  1.00  0.00     0.069 C
BRANCH  20  21
HETATM   21  C10 UNL     1      22.688  26.887  19.987  1.00  0.00     0.045 C
BRANCH  21  22
HETATM   22  C11 UNL     1      23.029  26.810  21.461  1.00  0.00    -0.051 A
HETATM   23  C12 UNL     1      22.211  27.210  22.442  1.00  0.00     0.014 A
HETATM   24  C13 UNL     1      22.653  27.080  23.730  1.00  0.00     0.050 A
HETATM   25  S1  UNL     1      24.205  26.400  23.535  1.00  0.00    -0.113 SA
HETATM   26  C14 UNL     1      24.247  26.301  21.832  1.00  0.00     0.056 A
ENDBRANCH  21  22
ENDBRANCH  20  21
ENDBRANCH  13  20
ENDBRANCH   5   6
ENDBRANCH   1   5
BRANCH   3  27
HETATM   27  C19 UNL     1      18.943  24.417  18.827  1.00  0.00     0.063 C
BRANCH  27  28
HETATM   28  C20 UNL     1      19.380  23.420  19.775  1.00  0.00     0.072 C
BRANCH  28  29
HETATM   29  C21 UNL     1      20.620  23.661  20.548  1.00  0.00     0.119 C
BRANCH  29  30
HETATM   30  C22 UNL     1      21.655  22.584  20.264  1.00  0.00     0.172 C
HETATM   31  O4  UNL     1      22.865  22.940  20.259  1.00  0.00    -0.648 OA
HETATM   32  O5  UNL     1      21.205  21.313  20.038  1.00  0.00    -0.648 OA
ENDBRANCH  29  30
ENDBRANCH  28  29
ENDBRANCH  27  28
BRANCH  27  33
HETATM   33  C23 UNL     1      17.646  24.494  18.170  1.00  0.00     0.161 C
BRANCH  33  34
HETATM   34  O6  UNL     1      17.251  25.800  18.058  1.00  0.00    -0.345 OA
ATOM     35  H6  UNL     1      16.643  26.018  18.754  1.00  0.00     0.219 HD
ENDBRANCH  33  34
BRANCH  33  36
HETATM   36  N3  UNL     1      16.701  23.669  17.619  1.00  0.00    -0.357 N
HETATM   37  C24 UNL     1      16.781  22.639  16.631  1.00  0.00     0.155 C
HETATM   38  C25 UNL     1      16.262  21.346  17.196  1.00  0.00     0.292 C
HETATM   39  N4  UNL     1      15.057  21.420  17.934  1.00  0.00     0.096 N
HETATM   40  C32 UNL     1      14.835  22.574  18.727  1.00  0.00     0.292 C
HETATM   41  C33 UNL     1      15.286  23.849  18.092  1.00  0.00     0.155 C
BRANCH  39  42
HETATM   42  C26 UNL     1      14.880  20.229  18.728  1.00  0.00     0.223 C
HETATM   43  C27 UNL     1      15.402  18.977  18.089  1.00  0.00     0.036 C
HETATM   44  C28 UNL     1      15.615  17.879  19.112  1.00  0.00     0.002 C
HETATM   45  C29 UNL     1      14.684  18.061  20.305  1.00  0.00     0.000 C
HETATM   46  C30 UNL     1      14.965  19.359  21.019  1.00  0.00     0.002 C
HETATM   47  C31 UNL     1      15.592  20.359  20.071  1.00  0.00     0.036 C
ENDBRANCH  39  42
ENDBRANCH  33  36
ENDBRANCH  27  33
ENDBRANCH   3  27
TORSDOF 15
ENDMDL