MODEL 2
REMARK VINA RESULT: -8.150675507      3.799      5.691
REMARK  16 active torsions:
REMARK  status: ('A' for Active; 'I' for Inactive)
REMARK    1  A    between atoms: O1_2  and  C2_3
REMARK    2  A    between atoms: C3_5  and  C4_6
REMARK    3  A    between atoms: C4_6  and  C5_11
REMARK    4  A    between atoms: N1_7  and  O3_9
REMARK    5  A    between atoms: C5_11  and  O4_12
REMARK    6  A    between atoms: C5_11  and  C6_14
REMARK    7  A    between atoms: C6_14  and  O5_16
REMARK    8  A    between atoms: C8_18  and  O6_19
REMARK    9  A    between atoms: O6_19  and  C9_20
REMARK   10  A    between atoms: C14_27  and  O9_28
REMARK   11  A    between atoms: C15_30  and  O10_31
REMARK   12  A    between atoms: O10_31  and  S1_32
REMARK   13  A    between atoms: C16_36  and  O14_37
REMARK   14  A    between atoms: O14_37  and  S2_38
REMARK   15  A    between atoms: C17_42  and  O18_43
REMARK   16  A    between atoms: O18_43  and  S3_44
ROOT
HETATM    1  C2  UNL     1      -3.792  -8.151 -23.879  1.00  0.00     0.293 C
HETATM    2  O2  UNL     1      -3.863  -6.849 -24.363  1.00  0.00    -0.345 OA
HETATM    3  C3  UNL     1      -5.152  -6.530 -24.860  1.00  0.00     0.206 C
HETATM    4  C8  UNL     1      -6.126  -6.946 -23.783  1.00  0.00     0.190 C
HETATM    5  C16 UNL     1      -5.364  -6.975 -22.487  1.00  0.00     0.212 C
HETATM    6  C17 UNL     1      -4.547  -8.281 -22.542  1.00  0.00     0.233 C
ENDROOT
BRANCH   4   7
HETATM    7  O6  UNL     1      -7.227  -6.173 -23.666  1.00  0.00    -0.372 OA
BRANCH   7   8
HETATM    8  C9  UNL     1      -8.407  -6.583 -24.242  1.00  0.00     0.157 C
HETATM    9  C10 UNL     1      -9.351  -5.366 -24.058  1.00  0.00     0.069 C
HETATM   10  C11 UNL     1      -9.704  -5.372 -22.620  1.00  0.00     0.158 C
HETATM   11  O7  UNL     1     -10.362  -4.298 -22.104  1.00  0.00    -0.359 OA
HETATM   12  C13 UNL     1     -10.831  -6.410 -22.514  1.00  0.00     0.184 C
HETATM   13  C12 UNL     1     -10.934  -4.844 -20.936  1.00  0.00     0.339 C
HETATM   14  O8  UNL     1     -11.121  -6.220 -21.174  1.00  0.00    -0.356 OA
HETATM   15  C14 UNL     1     -10.293  -7.702 -22.931  1.00  0.00     0.182 C
HETATM   16  C15 UNL     1      -8.911  -7.772 -23.493  1.00  0.00     0.205 C
BRANCH  15  17
HETATM   17  O9  UNL     1     -10.305  -8.546 -21.786  1.00  0.00    -0.390 OA
ATOM     18  H9  UNL     1     -10.932  -9.239 -21.959  1.00  0.00     0.210 HD
ENDBRANCH  15  17
BRANCH  16  19
HETATM   19  O10 UNL     1      -8.948  -8.850 -24.424  1.00  0.00    -0.246 OA
BRANCH  19  20
HETATM   20  S1  UNL     1      -8.252 -10.235 -23.856  1.00  0.00     0.252 S
HETATM   21  O11 UNL     1      -7.029 -10.597 -24.695  1.00  0.00    -0.572 OA
HETATM   22  O12 UNL     1      -7.714  -9.993 -22.473  1.00  0.00    -0.572 OA
HETATM   23  O13 UNL     1      -9.302 -11.538 -23.781  1.00  0.00    -0.572 OA
ENDBRANCH  19  20
ENDBRANCH  16  19
ENDBRANCH   7   8
ENDBRANCH   4   7
BRANCH   3  24
HETATM   24  C4  UNL     1      -5.267  -7.318 -26.111  1.00  0.00     0.072 C
HETATM   25  N1  UNL     1      -6.197  -8.248 -26.132  1.00  0.00    -0.272 N
ATOM     26  H1  UNL     1      -6.787  -8.391 -25.312  1.00  0.00     0.193 HD
BRANCH  25  27
HETATM   27  O3  UNL     1      -6.379  -9.020 -27.234  1.00  0.00    -0.290 OA
ATOM     28  H3  UNL     1      -7.229  -9.069 -27.656  1.00  0.00     0.244 HD
ENDBRANCH  25  27
BRANCH  24  29
HETATM   29  C5  UNL     1      -4.440  -7.147 -27.290  1.00  0.00     0.196 C
BRANCH  29  30
HETATM   30  O4  UNL     1      -3.081  -6.955 -26.952  1.00  0.00    -0.387 OA
ATOM     31  H4  UNL     1      -2.601  -6.530 -27.652  1.00  0.00     0.210 HD
ENDBRANCH  29  30
BRANCH  29  32
HETATM   32  C6  UNL     1      -4.853  -6.121 -28.291  1.00  0.00     0.148 C
HETATM   33  C7  UNL     1      -3.847  -6.035 -29.400  1.00  0.00     0.042 C
BRANCH  32  34
HETATM   34  O5  UNL     1      -6.062  -6.567 -28.897  1.00  0.00    -0.393 OA
ATOM     35  H5  UNL     1      -6.338  -5.901 -29.516  1.00  0.00     0.210 HD
ENDBRANCH  32  34
ENDBRANCH  29  32
ENDBRANCH  24  29
ENDBRANCH   3  24
BRANCH   5  36
HETATM   36  O14 UNL     1      -6.147  -6.879 -21.380  1.00  0.00    -0.246 OA
BRANCH  36  37
HETATM   37  S2  UNL     1      -5.776  -5.543 -20.425  1.00  0.00     0.252 S
HETATM   38  O15 UNL     1      -4.776  -4.722 -21.199  1.00  0.00    -0.572 OA
HETATM   39  O16 UNL     1      -5.111  -5.943 -19.141  1.00  0.00    -0.572 OA
HETATM   40  O17 UNL     1      -7.187  -4.675 -20.152  1.00  0.00    -0.572 OA
ENDBRANCH  36  37
ENDBRANCH   5  36
BRANCH   6  41
HETATM   41  O18 UNL     1      -3.675  -8.357 -21.471  1.00  0.00    -0.244 OA
BRANCH  41  42
HETATM   42  S3  UNL     1      -3.940  -9.649 -20.470  1.00  0.00     0.252 S
HETATM   43  O19 UNL     1      -4.415  -9.210 -19.097  1.00  0.00    -0.572 OA
HETATM   44  O20 UNL     1      -5.008 -10.586 -21.000  1.00  0.00    -0.572 OA
HETATM   45  O21 UNL     1      -2.534 -10.544 -20.220  1.00  0.00    -0.572 OA
ENDBRANCH  41  42
ENDBRANCH   6  41
BRANCH   1  46
HETATM   46  O1  UNL     1      -2.452  -8.391 -23.583  1.00  0.00    -0.363 OA
HETATM   47  C1  UNL     1      -1.616  -7.378 -23.980  1.00  0.00     0.204 C
ENDBRANCH   1  46
TORSDOF 16
ENDMDL