MODEL 5
REMARK VINA RESULT: -8.253991727      2.862      5.958
REMARK  17 active torsions:
REMARK  status: ('A' for Active; 'I' for Inactive)
REMARK    1  A    between atoms: C2_2  and  N1_3
REMARK    2  A    between atoms: N2_6  and  C5_7
REMARK    3  A    between atoms: C6_10  and  C7_11
REMARK    4  A    between atoms: C7_11  and  O1_12
REMARK    5  A    between atoms: C7_11  and  N4_14
REMARK    6  A    between atoms: N4_14  and  C8_15
REMARK    7  A    between atoms: C9_18  and  C10_19
REMARK    8  A    between atoms: C10_19  and  O2_20
REMARK    9  A    between atoms: C10_19  and  N6_22
REMARK   10  A    between atoms: N6_22  and  C11_24
REMARK   11  A    between atoms: C13_34  and  C14_35
REMARK   12  A    between atoms: C14_35  and  O4_37
REMARK   13  A    between atoms: C16_39  and  N11_40
REMARK   14  A    between atoms: C17_45  and  N13_46
REMARK   15  A    between atoms: N13_46  and  N14_48
REMARK   16  A    between atoms: N14_48  and  S1_50
REMARK   17  A    between atoms: S1_50  and  N15_51
ROOT
HETATM    1  C7  UNL     1      -2.952  -8.037 -24.044  1.00  0.00     0.261 C
ENDROOT
BRANCH   1   2
HETATM    2  C6  UNL     1      -3.595  -7.592 -22.810  1.00  0.00     0.175 A
HETATM    3  N3  UNL     1      -4.957  -7.473 -22.853  1.00  0.00    -0.323 N
HETATM    4  C5  UNL     1      -5.716  -7.185 -21.773  1.00  0.00     0.134 A
ATOM      5  H3  UNL     1      -5.425  -7.609 -23.749  1.00  0.00     0.169 HD
HETATM    6  C19 UNL     1      -5.064  -7.006 -20.582  1.00  0.00     0.135 A
HETATM    7  C17 UNL     1      -3.688  -7.116 -20.478  1.00  0.00     0.152 A
HETATM    8  N16 UNL     1      -5.809  -6.682 -19.422  1.00  0.00    -0.094 NA
HETATM    9  N12 UNL     1      -3.003  -7.407 -21.623  1.00  0.00    -0.321 N
ATOM     10  H12 UNL     1      -1.987  -7.489 -21.570  1.00  0.00     0.169 HD
BRANCH   4  11
HETATM   11  N2  UNL     1      -7.136  -7.075 -21.872  1.00  0.00    -0.356 N
HETATM   12  C4  UNL     1      -7.930  -8.243 -21.913  1.00  0.00     0.169 C
HETATM   13  C3  UNL     1      -9.399  -8.037 -22.042  1.00  0.00     0.083 C
HETATM   14  N1  UNL     1      -9.842  -6.714 -21.998  1.00  0.00    -0.371 N
HETATM   15  C21 UNL     1      -9.043  -5.702 -22.549  1.00  0.00     0.083 C
HETATM   16  C20 UNL     1      -7.649  -5.737 -21.939  1.00  0.00     0.169 C
BRANCH  14  17
HETATM   17  C2  UNL     1     -11.215  -6.453 -21.999  1.00  0.00     0.122 C
HETATM   18  C1  UNL     1     -12.012  -7.641 -22.554  1.00  0.00     0.027 C
ENDBRANCH  14  17
ENDBRANCH   4  11
BRANCH   7  19
HETATM   19  N13 UNL     1      -3.029  -7.022 -19.197  1.00  0.00    -0.269 N
HETATM   20  C18 UNL     1      -2.975  -8.187 -18.376  1.00  0.00     0.180 C
BRANCH  19  21
HETATM   21  N14 UNL     1      -2.522  -5.802 -18.833  1.00  0.00    -0.207 N
ATOM     22  H14 UNL     1      -3.085  -5.123 -18.319  1.00  0.00     0.202 HD
BRANCH  21  23
HETATM   23  S1  UNL     1      -0.906  -5.468 -19.279  1.00  0.00     0.330 S
HETATM   24  O7  UNL     1      -0.029  -6.574 -18.640  1.00  0.00    -0.181 OA
HETATM   25  O8  UNL     1      -0.631  -5.598 -20.742  1.00  0.00    -0.181 OA
BRANCH  23  26
HETATM   26  N15 UNL     1      -0.299  -4.000 -18.624  1.00  0.00    -0.310 N
ATOM     27 2H15 UNL     1      -0.787  -3.111 -18.736  1.00  0.00     0.170 HD
ATOM     28 1H15 UNL     1       0.582  -4.109 -18.121  1.00  0.00     0.170 HD
ENDBRANCH  23  26
ENDBRANCH  21  23
ENDBRANCH  19  21
ENDBRANCH   7  19
ENDBRANCH   1   2
BRANCH   1  29
HETATM   29  O1  UNL     1      -1.916  -8.816 -23.748  1.00  0.00    -0.333 OA
ATOM     30  H1  UNL     1      -2.030  -9.664 -24.160  1.00  0.00     0.220 HD
ENDBRANCH   1  29
BRANCH   1  31
HETATM   31  N4  UNL     1      -3.267  -7.757 -25.290  1.00  0.00    -0.356 NA
BRANCH  31  32
HETATM   32  C8  UNL     1      -3.595  -7.465 -26.585  1.00  0.00     0.216 A
HETATM   33  N5  UNL     1      -2.702  -7.110 -27.562  1.00  0.00    -0.329 N
HETATM   34  C9  UNL     1      -3.017  -6.827 -28.827  1.00  0.00     0.062 A
ATOM     35  H5  UNL     1      -1.718  -7.057 -27.301  1.00  0.00     0.168 HD
HETATM   36  C12 UNL     1      -4.325  -6.887 -29.219  1.00  0.00     0.050 A
HETATM   37  C13 UNL     1      -5.333  -7.240 -28.306  1.00  0.00     0.079 A
HETATM   38  C16 UNL     1      -4.930  -7.512 -27.037  1.00  0.00     0.177 A
BRANCH  34  39
HETATM   39  C10 UNL     1      -1.938  -6.452 -29.808  1.00  0.00     0.285 C
BRANCH  39  40
HETATM   40  O2  UNL     1      -1.537  -7.599 -30.525  1.00  0.00    -0.370 OA
ATOM     41  H2  UNL     1      -0.928  -8.103 -29.998  1.00  0.00     0.212 HD
ENDBRANCH  39  40
BRANCH  39  42
HETATM   42  N6  UNL     1      -2.508  -5.543 -30.756  1.00  0.00    -0.191 N
ATOM     43  H6  UNL     1      -3.526  -5.495 -30.789  1.00  0.00     0.180 HD
BRANCH  42  44
HETATM   44  C11 UNL     1      -1.870  -4.787 -31.562  1.00  0.00     0.712 A
HETATM   45  N7  UNL     1      -2.443  -4.108 -32.593  1.00  0.00    -0.115 N
HETATM   46  N8  UNL     1      -1.517  -3.431 -33.215  1.00  0.00    -0.213 N
ATOM     47  H7  UNL     1      -3.433  -4.125 -32.838  1.00  0.00     0.207 HD
HETATM   48  N9  UNL     1      -0.377  -3.655 -32.617  1.00  0.00    -0.213 N
ATOM     49  H8  UNL     1      -1.657  -2.831 -34.027  1.00  0.00     0.210 HD
HETATM   50  N10 UNL     1      -0.568  -4.478 -31.607  1.00  0.00    -0.115 N
ATOM     51  H9  UNL     1       0.520  -3.255 -32.889  1.00  0.00     0.210 HD
ATOM     52  H10 UNL     1       0.151  -4.819 -30.969  1.00  0.00     0.207 HD
ENDBRANCH  42  44
ENDBRANCH  39  42
ENDBRANCH  34  39
BRANCH  37  53
HETATM   53  C14 UNL     1      -6.707  -7.319 -28.748  1.00  0.00     0.295 C
HETATM   54  O3  UNL     1      -7.298  -8.343 -29.101  1.00  0.00    -0.259 OA
BRANCH  53  55
HETATM   55  O4  UNL     1      -7.466  -6.130 -28.791  1.00  0.00    -0.322 OA
HETATM   56  C15 UNL     1      -8.607  -5.921 -27.990  1.00  0.00     0.213 C
ENDBRANCH  53  55
ENDBRANCH  37  53
BRANCH  38  57
HETATM   57  N11 UNL     1      -5.890  -7.887 -26.082  1.00  0.00    -0.110 N
HETATM   58  O5  UNL     1      -6.444  -6.986 -25.380  1.00  0.00    -0.532 OA
HETATM   59  O6  UNL     1      -6.282  -9.155 -25.834  1.00  0.00    -0.532 OA
ENDBRANCH  38  57
ENDBRANCH  31  32
ENDBRANCH   1  31
TORSDOF 17
ENDMDL