MODEL 1
REMARK VINA RESULT: -9.030430423      0.000      0.000
REMARK  17 active torsions:
REMARK  status: ('A' for Active; 'I' for Inactive)
REMARK    1  A    between atoms: C2_2  and  O2_4
REMARK    2  A    between atoms: O2_4  and  C3_5
REMARK    3  A    between atoms: C3_5  and  N1_6
REMARK    4  A    between atoms: C3_5  and  C21_52
REMARK    5  A    between atoms: N1_6  and  N2_8
REMARK    6  A    between atoms: C5_11  and  N3_12
REMARK    7  A    between atoms: C6_17  and  C7_18
REMARK       I    between atoms: C7_18  and  N6_20
REMARK    8  A    between atoms: N6_20  and  C8_22
REMARK    9  A    between atoms: C8_22  and  C9_23
REMARK   10  A    between atoms: C8_22  and  C10_26
REMARK   11  A    between atoms: C10_26  and  O6_27
REMARK   12  A    between atoms: C10_26  and  O7_29
REMARK   13  A    between atoms: C11_31  and  O8_32
REMARK   14  A    between atoms: C14_38  and  C15_39
REMARK   15  A    between atoms: C19_43  and  O11_44
REMARK   16  A    between atoms: O11_44  and  S2_45
REMARK   17  A    between atoms: S2_45  and  N7_46
ROOT
HETATM    1  N2  UNL     1      -6.089  -6.803 -22.774  1.00  0.00    -0.224 N
HETATM    2  S1  UNL     1      -7.276  -6.864 -21.525  1.00  0.00     0.015 SA
HETATM    3  C4  UNL     1      -8.640  -6.347 -22.379  1.00  0.00     0.095 A
HETATM    4  C5  UNL     1     -10.009  -6.051 -22.445  1.00  0.00     0.196 A
HETATM    5  O9  UNL     1     -10.280  -5.701 -23.640  1.00  0.00    -0.254 OA
HETATM    6  C12 UNL     1      -9.212  -5.723 -24.429  1.00  0.00     0.303 A
HETATM    7  O10 UNL     1      -9.330  -5.410 -25.633  1.00  0.00    -0.259 OA
HETATM    8  C13 UNL     1      -8.083  -6.129 -23.700  1.00  0.00     0.093 A
HETATM    9  C14 UNL     1      -6.754  -6.386 -23.832  1.00  0.00     0.092 A
ENDROOT
BRANCH   4  10
HETATM   10  N3  UNL     1     -10.863  -6.153 -21.324  1.00  0.00    -0.193 N
HETATM   11  N4  UNL     1     -11.027  -5.280 -20.348  1.00  0.00    -0.231 N
HETATM   12  N5  UNL     1     -11.891  -5.688 -19.471  1.00  0.00    -0.277 N
ATOM     13  H4  UNL     1     -10.533  -4.389 -20.291  1.00  0.00     0.209 HD
HETATM   14  C6  UNL     1     -12.350  -6.898 -19.851  1.00  0.00     0.170 A
ATOM     15  H5  UNL     1     -12.175  -5.179 -18.635  1.00  0.00     0.189 HD
HETATM   16  C11 UNL     1     -11.700  -7.190 -21.021  1.00  0.00     0.199 A
BRANCH  14  17
HETATM   17  C7  UNL     1     -13.337  -7.672 -19.112  1.00  0.00     0.275 C
HETATM   18  O3  UNL     1     -14.069  -8.486 -19.769  1.00  0.00    -0.266 OA
HETATM   19  N6  UNL     1     -13.529  -7.575 -17.716  1.00  0.00    -0.337 N
ATOM     20  H6  UNL     1     -12.960  -6.933 -17.163  1.00  0.00     0.164 HD
BRANCH  19  21
HETATM   21  C8  UNL     1     -14.554  -8.403 -17.067  1.00  0.00     0.241 C
BRANCH  21  22
HETATM   22  C9  UNL     1     -14.097  -8.789 -15.727  1.00  0.00     0.201 C
HETATM   23  O4  UNL     1     -13.484  -9.871 -15.561  1.00  0.00    -0.646 OA
HETATM   24  O5  UNL     1     -14.315  -7.996 -14.613  1.00  0.00    -0.646 OA
ENDBRANCH  21  22
BRANCH  21  25
HETATM   25  C10 UNL     1     -15.833  -7.597 -17.042  1.00  0.00     0.287 C
BRANCH  25  26
HETATM   26  O6  UNL     1     -15.788  -6.740 -18.165  1.00  0.00    -0.369 OA
ATOM     27  H6  UNL     1     -14.942  -6.308 -18.139  1.00  0.00     0.212 HD
ENDBRANCH  25  26
BRANCH  25  28
HETATM   28  O7  UNL     1     -16.882  -8.510 -17.290  1.00  0.00    -0.369 OA
ATOM     29  H7  UNL     1     -16.661  -8.958 -18.098  1.00  0.00     0.212 HD
ENDBRANCH  25  28
ENDBRANCH  21  25
ENDBRANCH  19  21
ENDBRANCH  14  17
BRANCH  16  30
HETATM   30  O8  UNL     1     -11.834  -8.333 -21.806  1.00  0.00    -0.343 OA
ATOM     31  H8  UNL     1     -12.038  -9.193 -21.458  1.00  0.00     0.219 HD
ENDBRANCH  16  30
ENDBRANCH   4  10
BRANCH   1  32
HETATM   32  N1  UNL     1      -4.750  -7.125 -22.530  1.00  0.00    -0.287 N
ATOM     33  H1  UNL     1      -4.126  -6.433 -22.114  1.00  0.00     0.184 HD
BRANCH  32  34
HETATM   34  C3  UNL     1      -4.250  -8.440 -22.868  1.00  0.00     0.316 C
BRANCH  34  35
HETATM   35  O2  UNL     1      -2.926  -8.350 -23.386  1.00  0.00    -0.287 OA
BRANCH  35  36
HETATM   36  C2  UNL     1      -2.259  -7.158 -23.560  1.00  0.00     0.257 C
HETATM   37  C1  UNL     1      -2.160  -6.615 -24.960  1.00  0.00     0.126 C
HETATM   38  O1  UNL     1      -1.774  -6.591 -22.571  1.00  0.00    -0.266 OA
ENDBRANCH  35  36
ENDBRANCH  34  35
BRANCH  34  39
HETATM   39  C21 UNL     1      -4.249  -9.293 -21.639  1.00  0.00     0.173 C
HETATM   40  C22 UNL     1      -5.262 -10.337 -21.388  1.00  0.00     0.096 C
HETATM   41  O14 UNL     1      -3.379  -9.117 -20.815  1.00  0.00    -0.294 OA
ENDBRANCH  34  39
ENDBRANCH  32  34
ENDBRANCH   1  32
BRANCH   9  42
HETATM   42  C15 UNL     1      -6.041  -6.078 -25.111  1.00  0.00    -0.003 A
HETATM   43  C16 UNL     1      -5.552  -4.826 -25.364  1.00  0.00     0.014 A
HETATM   44  C17 UNL     1      -4.995  -4.498 -26.590  1.00  0.00     0.004 A
HETATM   45  C18 UNL     1      -4.927  -5.448 -27.581  1.00  0.00     0.038 A
HETATM   46  C19 UNL     1      -5.411  -6.714 -27.353  1.00  0.00     0.091 A
HETATM   47  C20 UNL     1      -5.963  -7.022 -26.129  1.00  0.00     0.052 A
BRANCH  46  48
HETATM   48  O11 UNL     1      -5.316  -7.629 -28.385  1.00  0.00    -0.217 OA
BRANCH  48  49
HETATM   49  S2  UNL     1      -6.678  -8.406 -29.056  1.00  0.00     0.360 S
HETATM   50  O12 UNL     1      -6.231  -9.148 -30.266  1.00  0.00    -0.176 OA
HETATM   51  O13 UNL     1      -7.229  -9.403 -28.060  1.00  0.00    -0.176 OA
BRANCH  49  52
HETATM   52  N7  UNL     1      -7.915  -7.291 -29.441  1.00  0.00    -0.305 N
ATOM     53  H72 UNL     1      -8.385  -6.713 -28.745  1.00  0.00     0.171 HD
ATOM     54  H71 UNL     1      -8.118  -7.283 -30.441  1.00  0.00     0.171 HD
ENDBRANCH  49  52
ENDBRANCH  48  49
ENDBRANCH  46  48
ENDBRANCH   9  42
TORSDOF 17
ENDMDL