MODEL 5
REMARK VINA RESULT: -8.234808965      2.970      8.949
REMARK  13 active torsions:
REMARK  status: ('A' for Active; 'I' for Inactive)
REMARK    1  A    between atoms: C2_2  and  C3_3
REMARK    2  A    between atoms: C2_2  and  N11_46
REMARK    3  A    between atoms: C3_3  and  N4_14
REMARK    4  A    between atoms: C4_4  and  C5_5
REMARK    5  A    between atoms: N7_19  and  C7_20
REMARK    6  A    between atoms: C7_20  and  C8_21
REMARK    7  A    between atoms: C7_20  and  C9_24
REMARK       I    between atoms: C9_24  and  N8_26
REMARK    8  A    between atoms: N8_26  and  C10_28
REMARK    9  A    between atoms: C10_28  and  C11_29
REMARK   10  A    between atoms: C11_29  and  N9_30
REMARK   11  A    between atoms: C11_29  and  C12_34
REMARK   12  A    between atoms: C14_38  and  S1_39
REMARK   13  A    between atoms: C20_53  and  O10_54
ROOT
HETATM    1  N4  UNL     1      -8.288  -6.313 -25.016  1.00  0.00    -0.190 N
HETATM    2  N5  UNL     1      -8.361  -5.304 -25.899  1.00  0.00    -0.217 N
ATOM      3  H5  UNL     1      -8.839  -4.418 -25.734  1.00  0.00     0.210 HD
HETATM    4  N6  UNL     1      -7.728  -5.622 -27.007  1.00  0.00    -0.220 N
ATOM      5  H6  UNL     1      -7.640  -5.024 -27.829  1.00  0.00     0.210 HD
HETATM    6  N7  UNL     1      -7.225  -6.833 -26.892  1.00  0.00    -0.201 N
HETATM    7  C15 UNL     1      -7.585  -7.252 -25.640  1.00  0.00     0.366 A
HETATM    8  O8  UNL     1      -7.247  -8.393 -25.221  1.00  0.00    -0.243 OA
ENDROOT
BRANCH   6   9
HETATM    9  C7  UNL     1      -6.445  -7.580 -27.885  1.00  0.00     0.306 C
BRANCH   9  10
HETATM   10  C8  UNL     1      -7.365  -7.885 -28.988  1.00  0.00     0.208 C
HETATM   11  O2  UNL     1      -7.344  -8.994 -29.548  1.00  0.00    -0.646 OA
HETATM   12  O3  UNL     1      -8.270  -6.932 -29.413  1.00  0.00    -0.646 OA
ENDBRANCH   9  10
BRANCH   9  13
HETATM   13  C9  UNL     1      -5.310  -6.747 -28.324  1.00  0.00     0.253 C
HETATM   14  O4  UNL     1      -4.912  -5.745 -27.646  1.00  0.00    -0.271 OA
HETATM   15  N8  UNL     1      -4.620  -7.043 -29.528  1.00  0.00    -0.356 N
ATOM     16  H8  UNL     1      -4.908  -7.836 -30.101  1.00  0.00     0.162 HD
BRANCH  15  17
HETATM   17  C10 UNL     1      -3.507  -6.217 -29.941  1.00  0.00     0.162 C
BRANCH  17  18
HETATM   18  C11 UNL     1      -2.196  -6.965 -29.850  1.00  0.00     0.257 C
BRANCH  18  19
HETATM   19  N9  UNL     1      -1.428  -6.815 -31.050  1.00  0.00    -0.068 N
ATOM     20  H93 UNL     1      -1.349  -7.697 -31.556  1.00  0.00     0.275 HD
ATOM     21  H92 UNL     1      -1.933  -6.277 -31.753  1.00  0.00     0.275 HD
ATOM     22  H91 UNL     1      -0.512  -6.412 -30.856  1.00  0.00     0.275 HD
ENDBRANCH  18  19
BRANCH  18  23
HETATM   23  C12 UNL     1      -1.469  -6.399 -28.655  1.00  0.00     0.084 A
HETATM   24  N10 UNL     1      -0.730  -5.302 -28.580  1.00  0.00    -0.360 N
HETATM   25  C13 UNL     1      -0.178  -4.974 -27.459  1.00  0.00     0.122 A
ATOM     26  H10 UNL     1      -0.597  -4.718 -29.406  1.00  0.00     0.165 HD
HETATM   27  C14 UNL     1      -0.386  -5.791 -26.379  1.00  0.00     0.138 A
HETATM   28  S2  UNL     1      -1.382  -7.005 -27.054  1.00  0.00    -0.059 SA
BRANCH  27  29
HETATM   29  S1  UNL     1       0.233  -5.603 -24.734  1.00  0.00     0.146 S
HETATM   30  O5  UNL     1       1.149  -6.736 -24.467  1.00  0.00    -0.591 OA
HETATM   31  O6  UNL     1      -0.930  -5.589 -23.773  1.00  0.00    -0.591 OA
HETATM   32  O7  UNL     1       1.117  -4.182 -24.614  1.00  0.00    -0.591 OA
ENDBRANCH  27  29
ENDBRANCH  18  23
ENDBRANCH  17  18
ENDBRANCH  15  17
ENDBRANCH   9  13
ENDBRANCH   6   9
BRANCH   1  33
HETATM   33  C3  UNL     1      -8.874  -6.277 -23.689  1.00  0.00     0.067 C
HETATM   34  C4  UNL     1     -10.130  -6.592 -23.530  1.00  0.00     0.079 C
BRANCH  33  35
HETATM   35  C2  UNL     1      -8.040  -5.887 -22.537  1.00  0.00     0.138 C
HETATM   36  C1  UNL     1      -7.541  -4.446 -22.699  1.00  0.00     0.039 C
BRANCH  35  37
HETATM   37  N11 UNL     1      -6.884  -6.701 -22.314  1.00  0.00    -0.312 N
HETATM   38  C16 UNL     1      -6.720  -8.014 -21.802  1.00  0.00     0.245 C
HETATM   39  O9  UNL     1      -7.449  -9.018 -21.697  1.00  0.00    -0.271 OA
HETATM   40  C17 UNL     1      -5.359  -7.711 -21.450  1.00  0.00     0.133 C
HETATM   41  C18 UNL     1      -5.044  -7.318 -20.048  1.00  0.00     0.045 C
HETATM   42  S3  UNL     1      -4.099  -8.933 -21.556  1.00  0.00    -0.145 SA
HETATM   43  C20 UNL     1      -5.431  -6.617 -22.466  1.00  0.00     0.251 C
HETATM   44  C19 UNL     1      -4.531  -8.738 -19.809  1.00  0.00     0.077 C
BRANCH  43  45
HETATM   45  O10 UNL     1      -4.920  -6.972 -23.685  1.00  0.00    -0.374 OA
ATOM     46  H10 UNL     1      -4.668  -7.881 -23.793  1.00  0.00     0.212 HD
ENDBRANCH  43  45
ENDBRANCH  35  37
ENDBRANCH  33  35
BRANCH  34  47
HETATM   47  C5  UNL     1     -10.830  -6.600 -22.273  1.00  0.00     0.125 A
HETATM   48  N1  UNL     1     -10.836  -5.824 -21.201  1.00  0.00    -0.281 N
HETATM   49  N2  UNL     1     -11.666  -6.228 -20.280  1.00  0.00    -0.250 N
ATOM     50  H1  UNL     1     -10.251  -4.995 -21.104  1.00  0.00     0.188 HD
HETATM   51  C6  UNL     1     -12.239  -7.335 -20.777  1.00  0.00     0.340 A
ATOM     52  H2  UNL     1     -11.842  -5.794 -19.375  1.00  0.00     0.192 HD
HETATM   53  O1  UNL     1     -13.118  -8.062 -20.211  1.00  0.00    -0.245 OA
HETATM   54  N3  UNL     1     -11.749  -7.583 -21.984  1.00  0.00    -0.292 N
ATOM     55  H3  UNL     1     -12.006  -8.362 -22.590  1.00  0.00     0.172 HD
ENDBRANCH  34  47
ENDBRANCH   1  33
TORSDOF 13
ENDMDL