MODEL 3
REMARK VINA RESULT: -8.064443236      3.356      4.891
REMARK  17 active torsions:
REMARK  status: ('A' for Active; 'I' for Inactive)
REMARK    1  A    between atoms: O1_2  and  C2_3
REMARK    2  A    between atoms: C2_3  and  O2_4
REMARK    3  A    between atoms: C2_3  and  C3_6
REMARK    4  A    between atoms: C3_6  and  C4_7
REMARK    5  A    between atoms: C3_6  and  N4_20
REMARK    6  A    between atoms: C4_7  and  S1_8
REMARK    7  A    between atoms: S1_8  and  C5_9
REMARK    8  A    between atoms: C5_9  and  C6_10
REMARK    9  A    between atoms: C7_16  and  N3_17
REMARK   10  A    between atoms: N4_20  and  N5_22
REMARK       I    between atoms: N9_30  and  C9_32
REMARK   11  A    between atoms: C9_32  and  C10_34
REMARK   12  A    between atoms: C11_37  and  O5_38
REMARK   13  A    between atoms: C12_41  and  C13_42
REMARK   14  A    between atoms: C13_42  and  N11_43
REMARK       I    between atoms: N11_43  and  C14_44
REMARK   15  A    between atoms: C14_44  and  O7_46
REMARK   16  A    between atoms: O7_46  and  C15_47
REMARK   17  A    between atoms: C21_54  and  O8_55
ROOT
HETATM    1  N5  UNL     1      -4.603  -7.859 -25.290  1.00  0.00    -0.142 N
HETATM    2  N6  UNL     1      -5.138  -8.981 -25.735  1.00  0.00    -0.204 N
ATOM      3  H6  UNL     1      -4.542  -9.780 -25.951  1.00  0.00     0.212 HD
HETATM    4  N7  UNL     1      -6.453  -9.070 -25.900  1.00  0.00    -0.225 N
ATOM      5  H7  UNL     1      -6.857  -9.942 -26.241  1.00  0.00     0.210 HD
HETATM    6  N8  UNL     1      -7.247  -8.048 -25.631  1.00  0.00    -0.265 N
ATOM      7  H8  UNL     1      -8.252  -8.161 -25.770  1.00  0.00     0.190 HD
HETATM    8  C8  UNL     1      -6.800  -6.895 -25.192  1.00  0.00     0.197 A
HETATM    9  N9  UNL     1      -7.442  -5.880 -24.800  1.00  0.00    -0.302 N
ATOM     10  H9  UNL     1      -6.868  -5.089 -24.508  1.00  0.00     0.171 HD
HETATM   11  C9  UNL     1      -8.810  -5.684 -24.708  1.00  0.00     0.275 C
HETATM   12  O4  UNL     1      -9.488  -5.239 -25.648  1.00  0.00    -0.266 OA
HETATM   13  C22 UNL     1      -5.371  -6.793 -25.011  1.00  0.00     0.328 A
HETATM   14  O9  UNL     1      -4.874  -5.718 -24.596  1.00  0.00    -0.260 OA
ENDROOT
BRANCH  11  15
HETATM   15  C10 UNL     1      -9.487  -6.018 -23.385  1.00  0.00     0.119 A
HETATM   16  N10 UNL     1      -9.777  -5.057 -22.547  1.00  0.00    -0.326 N
HETATM   17  C11 UNL     1     -10.456  -5.373 -21.430  1.00  0.00     0.185 A
ATOM     18  H10 UNL     1      -9.497  -4.094 -22.736  1.00  0.00     0.168 HD
HETATM   19  S2  UNL     1     -10.687  -7.030 -21.556  1.00  0.00    -0.046 SA
HETATM   20  C12 UNL     1      -9.863  -7.258 -23.101  1.00  0.00     0.049 A
BRANCH  17  21
HETATM   21  O5  UNL     1     -10.835  -4.550 -20.497  1.00  0.00    -0.341 OA
ATOM     22  H5  UNL     1     -10.304  -3.873 -20.093  1.00  0.00     0.220 HD
ENDBRANCH  17  21
BRANCH  20  23
HETATM   23  C13 UNL     1      -9.761  -8.626 -23.741  1.00  0.00     0.273 C
BRANCH  23  24
HETATM   24  N11 UNL     1      -8.566  -9.229 -23.208  1.00  0.00    -0.385 NA
HETATM   25  C14 UNL     1      -7.503  -9.781 -22.727  1.00  0.00     0.435 C
HETATM   26  O6  UNL     1      -7.262 -10.939 -22.237  1.00  0.00    -0.221 OA
BRANCH  25  27
HETATM   27  O7  UNL     1      -6.247  -9.022 -22.675  1.00  0.00    -0.284 OA
BRANCH  27  28
HETATM   28  C15 UNL     1      -5.697  -8.653 -21.439  1.00  0.00     0.170 C
HETATM   29  C16 UNL     1      -5.460  -7.146 -21.309  1.00  0.00     0.042 C
HETATM   30  C17 UNL     1      -6.696  -6.391 -20.974  1.00  0.00     0.014 C
HETATM   31  C18 UNL     1      -4.405  -6.913 -20.274  1.00  0.00     0.279 C
HETATM   32  N12 UNL     1      -4.280  -7.952 -19.311  1.00  0.00     0.087 N
HETATM   33  C19 UNL     1      -3.246  -7.548 -18.397  1.00  0.00     0.310 C
HETATM   34  C20 UNL     1      -3.914  -9.248 -19.871  1.00  0.00     0.306 C
HETATM   35  C21 UNL     1      -4.361  -9.376 -21.304  1.00  0.00     0.176 C
BRANCH  35  36
HETATM   36  O8  UNL     1      -3.422  -8.868 -22.192  1.00  0.00    -0.391 OA
ATOM     37  H8  UNL     1      -2.595  -8.695 -21.757  1.00  0.00     0.210 HD
ENDBRANCH  35  36
ENDBRANCH  27  28
ENDBRANCH  25  27
ENDBRANCH  23  24
ENDBRANCH  20  23
ENDBRANCH  11  15
BRANCH   1  38
HETATM   38  N4  UNL     1      -3.246  -7.751 -25.059  1.00  0.00    -0.301 N
ATOM     39  H4  UNL     1      -2.883  -7.425 -24.162  1.00  0.00     0.183 HD
BRANCH  38  40
HETATM   40  C3  UNL     1      -2.326  -8.136 -26.181  1.00  0.00     0.165 C
BRANCH  40  41
HETATM   41  C2  UNL     1      -1.064  -8.517 -25.611  1.00  0.00     0.280 C
BRANCH  41  42
HETATM   42  O1  UNL     1       0.091  -7.783 -25.691  1.00  0.00    -0.364 OA
HETATM   43  C1  UNL     1       0.390  -6.715 -24.776  1.00  0.00     0.204 C
ENDBRANCH  41  42
BRANCH  41  44
HETATM   44  O2  UNL     1      -0.935  -9.629 -24.951  1.00  0.00    -0.369 OA
ATOM     45  H2  UNL     1      -1.386 -10.366 -25.347  1.00  0.00     0.212 HD
ENDBRANCH  41  44
ENDBRANCH  40  41
BRANCH  40  46
HETATM   46  C4  UNL     1      -2.343  -7.016 -27.139  1.00  0.00     0.106 C
BRANCH  46  47
HETATM   47  S1  UNL     1      -3.451  -6.704 -28.366  1.00  0.00    -0.161 SA
BRANCH  47  48
HETATM   48  C5  UNL     1      -4.712  -5.517 -28.462  1.00  0.00     0.137 C
BRANCH  48  49
HETATM   49  C6  UNL     1      -6.082  -6.145 -28.636  1.00  0.00     0.088 A
HETATM   50  N1  UNL     1      -6.313  -7.473 -28.936  1.00  0.00    -0.241 N
HETATM   51  O3  UNL     1      -7.638  -7.655 -28.816  1.00  0.00    -0.155 OA
ATOM     52  H1  UNL     1      -5.618  -8.172 -29.197  1.00  0.00     0.196 HD
HETATM   53  N2  UNL     1      -8.227  -6.517 -28.457  1.00  0.00    -0.224 N
HETATM   54  C7  UNL     1      -7.285  -5.599 -28.351  1.00  0.00     0.146 A
ATOM     55  H2  UNL     1      -9.224  -6.380 -28.292  1.00  0.00     0.198 HD
BRANCH  54  56
HETATM   56  N3  UNL     1      -7.413  -4.321 -28.098  1.00  0.00    -0.382 N
ATOM     57  H32 UNL     1      -6.724  -3.676 -27.714  1.00  0.00     0.157 HD
ATOM     58  H31 UNL     1      -8.305  -3.842 -28.216  1.00  0.00     0.157 HD
ENDBRANCH  54  56
ENDBRANCH  48  49
ENDBRANCH  47  48
ENDBRANCH  46  47
ENDBRANCH  40  46
ENDBRANCH  38  40
ENDBRANCH   1  38
TORSDOF 17
ENDMDL