MODEL 5
REMARK VINA RESULT: -7.821395862      3.668      6.108
REMARK  17 active torsions:
REMARK  status: ('A' for Active; 'I' for Inactive)
REMARK    1  A    between atoms: O1_2  and  C2_3
REMARK    2  A    between atoms: C3_6  and  N2_7
REMARK    3  A    between atoms: N2_7  and  S1_9
REMARK    4  A    between atoms: S1_9  and  O4_12
REMARK    5  A    between atoms: O4_12  and  C4_13
REMARK    6  A    between atoms: C4_13  and  C5_14
REMARK    7  A    between atoms: C5_14  and  C6_15
REMARK    8  A    between atoms: C6_15  and  N3_16
REMARK    9  A    between atoms: N3_16  and  N4_18
REMARK   10  A    between atoms: N4_18  and  N5_19
REMARK   11  A    between atoms: C7_23  and  N6_24
REMARK   12  A    between atoms: C11_32  and  N9_33
REMARK   13  A    between atoms: C14_41  and  O8_42
REMARK   14  A    between atoms: C15_44  and  O9_45
REMARK   15  A    between atoms: C17_48  and  S2_49
REMARK   16  A    between atoms: S2_49  and  C18_50
REMARK   17  A    between atoms: C18_50  and  C19_51
ROOT
HETATM    1  C5  UNL     1      -8.322  -5.334 -25.559  1.00  0.00     0.133 C
HETATM    2  O5  UNL     1      -9.403  -5.091 -24.789  1.00  0.00    -0.346 OA
HETATM    3  C7  UNL     1      -9.755  -6.022 -23.966  1.00  0.00     0.265 C
HETATM    4  C14 UNL     1      -8.573  -6.989 -23.959  1.00  0.00     0.199 C
HETATM    5  C15 UNL     1      -7.486  -6.224 -24.689  1.00  0.00     0.189 C
ENDROOT
BRANCH   1   6
HETATM    6  C4  UNL     1      -8.588  -6.048 -26.865  1.00  0.00     0.234 C
BRANCH   6   7
HETATM    7  O4  UNL     1      -7.907  -7.260 -26.925  1.00  0.00    -0.256 OA
BRANCH   7   8
HETATM    8  S1  UNL     1      -6.905  -7.384 -28.231  1.00  0.00     0.363 S
HETATM    9  O2  UNL     1      -7.453  -8.309 -29.284  1.00  0.00    -0.175 OA
HETATM   10  O3  UNL     1      -6.616  -6.015 -28.828  1.00  0.00    -0.175 OA
BRANCH   8  11
HETATM   11  N2  UNL     1      -5.388  -8.016 -27.708  1.00  0.00    -0.247 N
ATOM     12  H2  UNL     1      -4.603  -8.098 -28.355  1.00  0.00     0.182 HD
BRANCH  11  13
HETATM   13  C3  UNL     1      -5.273  -8.382 -26.480  1.00  0.00     0.122 A
HETATM   14  N1  UNL     1      -6.065  -9.327 -25.951  1.00  0.00    -0.307 N
HETATM   15  C2  UNL     1      -5.976  -9.734 -24.677  1.00  0.00     0.225 A
ATOM     16  H1  UNL     1      -6.771  -9.757 -26.548  1.00  0.00     0.171 HD
HETATM   17  N15 UNL     1      -5.058  -9.173 -23.901  1.00  0.00    -0.316 N
HETATM   18  C17 UNL     1      -4.200  -8.212 -24.313  1.00  0.00     0.076 A
ATOM     19  H15 UNL     1      -4.996  -9.486 -22.932  1.00  0.00     0.170 HD
HETATM   20  C16 UNL     1      -4.329  -7.821 -25.641  1.00  0.00     0.086 A
BRANCH  15  21
HETATM   21  O1  UNL     1      -6.822 -10.706 -24.208  1.00  0.00    -0.327 OA
HETATM   22  C1  UNL     1      -7.188 -10.707 -22.843  1.00  0.00     0.213 C
ENDBRANCH  15  21
BRANCH  18  23
HETATM   23  S2  UNL     1      -2.980  -7.485 -23.231  1.00  0.00    -0.104 SA
BRANCH  23  24
HETATM   24  C18 UNL     1      -3.550  -7.662 -21.535  1.00  0.00     0.160 C
BRANCH  24  25
HETATM   25  C19 UNL     1      -4.799  -6.897 -21.285  1.00  0.00     0.122 A
HETATM   26  N11 UNL     1      -4.843  -5.558 -21.225  1.00  0.00    -0.272 N
HETATM   27  N12 UNL     1      -6.076  -5.175 -20.992  1.00  0.00    -0.227 N
ATOM     28  H11 UNL     1      -4.044  -4.935 -21.342  1.00  0.00     0.190 HD
HETATM   29  N13 UNL     1      -6.807  -6.271 -20.906  1.00  0.00    -0.227 N
ATOM     30  H12 UNL     1      -6.407  -4.215 -20.896  1.00  0.00     0.210 HD
HETATM   31  N14 UNL     1      -6.041  -7.333 -21.083  1.00  0.00    -0.272 N
ATOM     32  H13 UNL     1      -7.811  -6.294 -20.730  1.00  0.00     0.210 HD
ATOM     33  H14 UNL     1      -6.345  -8.305 -21.067  1.00  0.00     0.190 HD
ENDBRANCH  24  25
ENDBRANCH  23  24
ENDBRANCH  18  23
ENDBRANCH  11  13
ENDBRANCH   8  11
ENDBRANCH   7   8
ENDBRANCH   6   7
ENDBRANCH   1   6
BRANCH   1  34
HETATM   34  C6  UNL     1      -7.630  -4.044 -25.921  1.00  0.00     0.198 C
BRANCH  34  35
HETATM   35  N3  UNL     1      -7.851  -2.956 -25.035  1.00  0.00    -0.250 N
ATOM     36  H3  UNL     1      -8.757  -2.491 -25.076  1.00  0.00     0.197 HD
BRANCH  35  37
HETATM   37  N4  UNL     1      -7.028  -2.531 -24.219  1.00  0.00    -0.248 NA
BRANCH  37  38
HETATM   38  N5  UNL     1      -6.335  -2.459 -23.199  1.00  0.00    -0.261 N
ATOM     39  H52 UNL     1      -6.872  -1.721 -22.742  1.00  0.00     0.193 HD
ATOM     40  H51 UNL     1      -5.590  -2.653 -22.530  1.00  0.00     0.193 HD
ENDBRANCH  37  38
ENDBRANCH  35  37
ENDBRANCH  34  35
ENDBRANCH   1  34
BRANCH   5  41
HETATM   41  O9  UNL     1      -6.770  -5.515 -23.728  1.00  0.00    -0.390 OA
ATOM     42  H9  UNL     1      -6.179  -6.068 -23.231  1.00  0.00     0.210 HD
ENDBRANCH   5  41
BRANCH   3  43
HETATM   43  N6  UNL     1     -10.199  -5.875 -22.640  1.00  0.00    -0.261 N
HETATM   44  C8  UNL     1      -9.719  -4.900 -21.838  1.00  0.00     0.333 A
HETATM   45  O6  UNL     1      -8.848  -3.995 -22.074  1.00  0.00    -0.246 OA
HETATM   46  N7  UNL     1     -10.295  -4.966 -20.636  1.00  0.00    -0.287 N
HETATM   47  C9  UNL     1     -10.037  -4.078 -19.491  1.00  0.00     0.163 C
HETATM   48  C10 UNL     1     -11.158  -5.971 -20.608  1.00  0.00     0.159 A
HETATM   49  N8  UNL     1     -11.955  -6.435 -19.659  1.00  0.00    -0.174 N
HETATM   50  C13 UNL     1     -11.088  -6.537 -21.881  1.00  0.00     0.155 A
HETATM   51  C11 UNL     1     -12.726  -7.505 -19.958  1.00  0.00     0.680 A
ATOM     52  H8  UNL     1     -11.988  -6.002 -18.735  1.00  0.00     0.186 HD
HETATM   53  N10 UNL     1     -12.689  -8.082 -21.176  1.00  0.00    -0.154 N
HETATM   54  C12 UNL     1     -11.872  -7.602 -22.138  1.00  0.00     0.290 A
ATOM     55  H10 UNL     1     -13.282  -8.888 -21.372  1.00  0.00     0.187 HD
HETATM   56  O7  UNL     1     -11.874  -8.159 -23.219  1.00  0.00    -0.265 OA
BRANCH  51  57
HETATM   57  N9  UNL     1     -13.503  -7.949 -19.020  1.00  0.00    -0.234 N
ATOM     58  H92 UNL     1     -13.902  -7.326 -18.319  1.00  0.00     0.174 HD
ATOM     59  H91 UNL     1     -13.695  -8.952 -19.016  1.00  0.00     0.174 HD
ENDBRANCH  51  57
ENDBRANCH   3  43
BRANCH   4  60
HETATM   60  O8  UNL     1      -8.866  -8.189 -24.581  1.00  0.00    -0.388 OA
ATOM     61  H8  UNL     1      -8.426  -8.927 -24.176  1.00  0.00     0.210 HD
ENDBRANCH   4  60
TORSDOF 17
ENDMDL