MODEL 5
REMARK VINA RESULT: -7.768255696      8.778     13.687
REMARK  15 active torsions:
REMARK  status: ('A' for Active; 'I' for Inactive)
REMARK    1  A    between atoms: C2_2  and  C3_4
REMARK    2  A    between atoms: C3_4  and  N1_5
REMARK    3  A    between atoms: C6_10  and  N3_11
REMARK    4  A    between atoms: N4_16  and  C8_17
REMARK    5  A    between atoms: C8_17  and  C9_18
REMARK    6  A    between atoms: C9_18  and  O3_19
REMARK    7  A    between atoms: C9_18  and  O4_21
REMARK    8  A    between atoms: O4_21  and  C10_22
REMARK    9  A    between atoms: C10_22  and  C11_23
REMARK   10  A    between atoms: C11_23  and  N5_24
REMARK   11  A    between atoms: C11_23  and  O5_28
REMARK   12  A    between atoms: O5_28  and  C12_29
REMARK   13  A    between atoms: C20_42  and  S1_43
REMARK   14  A    between atoms: S1_43  and  C21_46
REMARK   15  A    between atoms: C21_46  and  C23_48
ROOT
HETATM    1  N1  UNL     1     -13.913  -7.401 -16.574  1.00  0.00    -0.269 N
HETATM    2  N2  UNL     1     -13.195  -6.308 -16.360  1.00  0.00    -0.294 N
ATOM      3  H2  UNL     1     -13.138  -5.788 -15.485  1.00  0.00     0.187 HD
HETATM    4  C4  UNL     1     -12.564  -6.014 -17.485  1.00  0.00     0.086 A
HETATM    5  C5  UNL     1     -12.886  -6.950 -18.472  1.00  0.00     0.106 A
HETATM    6  C6  UNL     1     -13.760  -7.828 -17.839  1.00  0.00     0.134 A
HETATM    7  C7  UNL     1     -12.360  -6.840 -19.715  1.00  0.00     0.264 A
HETATM    8  O2  UNL     1     -12.671  -7.699 -20.583  1.00  0.00    -0.267 OA
HETATM    9  N4  UNL     1     -11.498  -5.850 -20.115  1.00  0.00    -0.308 N
HETATM   10  C14 UNL     1     -11.205  -4.966 -19.154  1.00  0.00     0.056 A
HETATM   11  C15 UNL     1     -10.379  -3.993 -19.674  1.00  0.00     0.034 C
HETATM   12  C16 UNL     1     -10.246  -2.713 -19.190  1.00  0.00     0.051 C
HETATM   13  C17 UNL     1     -10.643  -2.208 -17.958  1.00  0.00     0.118 A
HETATM   14  N6  UNL     1     -10.472  -0.907 -17.915  1.00  0.00    -0.307 N
ATOM     15  H6  UNL     1     -10.104  -0.439 -18.743  1.00  0.00     0.170 HD
HETATM   16  C18 UNL     1     -10.753  -0.174 -16.853  1.00  0.00     0.274 A
HETATM   17  O7  UNL     1     -10.571   1.082 -16.865  1.00  0.00    -0.266 OA
HETATM   18  C19 UNL     1     -11.250  -0.841 -15.746  1.00  0.00     0.153 A
HETATM   19  N7  UNL     1     -11.587   0.048 -14.665  1.00  0.00    -0.093 NA
HETATM   20  C20 UNL     1     -11.454  -2.215 -15.718  1.00  0.00     0.170 A
HETATM   21  N8  UNL     1     -11.139  -2.851 -16.848  1.00  0.00    -0.251 N
HETATM   22  C24 UNL     1     -11.427  -4.173 -16.791  1.00  0.00     0.269 C
HETATM   23  O12 UNL     1     -11.432  -4.644 -15.692  1.00  0.00    -0.266 OA
HETATM   24  C25 UNL     1     -11.708  -5.014 -17.851  1.00  0.00     0.089 A
ENDROOT
BRANCH   9  25
HETATM   25  C8  UNL     1     -10.998  -5.838 -21.464  1.00  0.00     0.193 C
BRANCH  25  26
HETATM   26  C9  UNL     1      -9.760  -6.626 -21.721  1.00  0.00     0.275 C
BRANCH  26  27
HETATM   27  O3  UNL     1     -10.079  -8.008 -21.768  1.00  0.00    -0.370 OA
ATOM     28  H3  UNL     1     -10.228  -8.268 -22.669  1.00  0.00     0.212 HD
ENDBRANCH  26  27
BRANCH  26  29
HETATM   29  O4  UNL     1      -9.214  -6.384 -22.984  1.00  0.00    -0.355 OA
BRANCH  29  30
HETATM   30  C10 UNL     1      -7.874  -6.521 -23.103  1.00  0.00     0.232 C
BRANCH  30  31
HETATM   31  C11 UNL     1      -7.308  -7.814 -23.543  1.00  0.00     0.351 C
BRANCH  31  32
HETATM   32  N5  UNL     1      -6.942  -8.537 -22.287  1.00  0.00    -0.050 N
ATOM     33  H53 UNL     1      -5.948  -8.747 -22.210  1.00  0.00     0.277 HD
ATOM     34  H52 UNL     1      -7.008  -7.961 -21.448  1.00  0.00     0.277 HD
ATOM     35  H51 UNL     1      -7.539  -9.363 -22.266  1.00  0.00     0.277 HD
ENDBRANCH  31  32
BRANCH  31  36
HETATM   36  O5  UNL     1      -8.277  -8.675 -24.129  1.00  0.00    -0.286 OA
BRANCH  36  37
HETATM   37  C12 UNL     1      -8.068 -10.031 -24.081  1.00  0.00     0.256 C
HETATM   38  C13 UNL     1      -9.150 -10.976 -23.701  1.00  0.00     0.126 C
HETATM   39  O6  UNL     1      -6.941 -10.498 -24.365  1.00  0.00    -0.266 OA
ENDBRANCH  36  37
ENDBRANCH  31  36
ENDBRANCH  30  31
ENDBRANCH  29  30
ENDBRANCH  26  29
ENDBRANCH  25  26
ENDBRANCH   9  25
BRANCH   6  40
HETATM   40  N3  UNL     1     -14.313  -8.856 -18.380  1.00  0.00    -0.383 N
ATOM     41  H32 UNL     1     -14.965  -8.839 -19.163  1.00  0.00     0.157 HD
ATOM     42  H31 UNL     1     -14.186  -9.831 -18.110  1.00  0.00     0.157 HD
ENDBRANCH   6  40
BRANCH   1  43
HETATM   43  C3  UNL     1     -14.755  -8.037 -15.552  1.00  0.00     0.228 C
BRANCH  43  44
HETATM   44  C2  UNL     1     -13.961  -8.984 -14.755  1.00  0.00     0.142 C
HETATM   45  C1  UNL     1     -13.740  -8.833 -13.290  1.00  0.00     0.093 C
HETATM   46  O1  UNL     1     -13.455  -9.943 -15.311  1.00  0.00    -0.297 OA
ENDBRANCH  43  44
ENDBRANCH   1  43
BRANCH  20  47
HETATM   47  S1  UNL     1     -12.044  -3.094 -14.221  1.00  0.00     0.207 S
HETATM   48  O8  UNL     1     -13.328  -1.276 -13.399  1.00  0.00    -0.220 OA
HETATM   49  O9  UNL     1     -12.589  -4.190 -13.311  1.00  0.00    -0.220 OA
BRANCH  47  50
HETATM   50  C21 UNL     1     -10.817  -2.405 -13.061  1.00  0.00     0.211 C
HETATM   51  C22 UNL     1      -9.294  -2.712 -13.348  1.00  0.00     0.038 C
BRANCH  50  52
HETATM   52  C23 UNL     1     -10.888  -3.085 -11.725  1.00  0.00     0.192 C
HETATM   53  O10 UNL     1     -10.152  -4.039 -11.477  1.00  0.00    -0.647 OA
HETATM   54  O11 UNL     1     -11.762  -2.686 -10.724  1.00  0.00    -0.647 OA
ENDBRANCH  50  52
ENDBRANCH  47  50
ENDBRANCH  20  47
TORSDOF 15
ENDMDL