MODEL 1
REMARK VINA RESULT: -7.791138791      0.000      0.000
REMARK  16 active torsions:
REMARK  status: ('A' for Active; 'I' for Inactive)
REMARK    1  A    between atoms: C2_2  and  O2_4
REMARK    2  A    between atoms: O2_4  and  C3_5
REMARK    3  A    between atoms: C4_6  and  C5_7
REMARK    4  A    between atoms: C5_7  and  N1_8
REMARK    5  A    between atoms: N2_14  and  C7_15
REMARK    6  A    between atoms: C7_15  and  C8_16
REMARK    7  A    between atoms: C9_17  and  C10_18
REMARK    8  A    between atoms: C13_27  and  N5_28
REMARK    9  A    between atoms: N5_28  and  C14_30
REMARK   10  A    between atoms: C16_33  and  N6_34
REMARK   11  A    between atoms: C18_40  and  C19_41
REMARK   12  A    between atoms: C19_41  and  O5_42
REMARK   13  A    between atoms: C19_41  and  C22_46
REMARK   14  A    between atoms: O5_42  and  C20_43
REMARK   15  A    between atoms: N8_48  and  O7_50
REMARK   16  A    between atoms: C24_54  and  C25_55
ROOT
HETATM    1  C8  UNL     1      -2.157  -5.260 -28.141  1.00  0.00     0.004 C
HETATM    2  C9  UNL     1      -1.926  -5.723 -26.935  1.00  0.00     0.116 C
HETATM    3  N3  UNL     1      -2.576  -6.906 -26.356  1.00  0.00    -0.337 N
HETATM    4  C11 UNL     1      -1.756  -7.866 -25.628  1.00  0.00     0.285 C
HETATM    5  C12 UNL     1      -0.409  -8.150 -26.227  1.00  0.00     0.063 C
HETATM    6  N4  UNL     1      -2.513  -9.122 -25.813  1.00  0.00    -0.032 N
ATOM      7  H41 UNL     1      -2.263  -9.870 -25.166  1.00  0.00     0.282 HD
ATOM      8  H42 UNL     1      -2.282  -9.639 -26.661  1.00  0.00     0.282 HD
HETATM    9  C13 UNL     1      -3.907  -8.680 -25.726  1.00  0.00     0.313 C
HETATM   10  C17 UNL     1      -3.954  -7.333 -26.359  1.00  0.00     0.162 C
HETATM   11  C18 UNL     1      -4.634  -7.275 -27.710  1.00  0.00     0.139 C
HETATM   12  N9  UNL     1      -4.374  -6.017 -28.324  1.00  0.00    -0.396 N
ATOM     13  H9  UNL     1      -5.044  -5.257 -28.204  1.00  0.00     0.155 HD
HETATM   14  C24 UNL     1      -3.220  -5.799 -29.090  1.00  0.00     0.213 C
ENDROOT
BRANCH   1  15
HETATM   15  C7  UNL     1      -1.453  -4.137 -28.650  1.00  0.00     0.170 C
BRANCH  15  16
HETATM   16  N2  UNL     1      -2.272  -2.935 -28.999  1.00  0.00    -0.326 N
HETATM   17  C3  UNL     1      -2.117  -2.240 -30.108  1.00  0.00     0.169 A
HETATM   18  C4  UNL     1      -2.983  -1.184 -30.305  1.00  0.00     0.061 A
HETATM   19  S1  UNL     1      -3.956  -1.243 -28.910  1.00  0.00    -0.083 SA
HETATM   20  C6  UNL     1      -3.242  -2.574 -28.149  1.00  0.00     0.144 A
BRANCH  17  21
HETATM   21  O2  UNL     1      -1.142  -2.463 -31.113  1.00  0.00    -0.260 OA
BRANCH  21  22
HETATM   22  C2  UNL     1      -1.298  -3.078 -32.310  1.00  0.00     0.261 C
HETATM   23  C1  UNL     1      -2.240  -4.264 -32.377  1.00  0.00     0.126 C
HETATM   24  O1  UNL     1      -0.711  -2.720 -33.349  1.00  0.00    -0.265 OA
ENDBRANCH  21  22
ENDBRANCH  17  21
BRANCH  18  25
HETATM   25  C5  UNL     1      -3.074  -0.190 -31.414  1.00  0.00     0.280 C
BRANCH  25  26
HETATM   26  N1  UNL     1      -1.755   0.413 -31.579  1.00  0.00    -0.075 N
ATOM     27  H13 UNL     1      -1.005  -0.163 -31.197  1.00  0.00     0.274 HD
ATOM     28  H12 UNL     1      -1.440   0.419 -32.549  1.00  0.00     0.274 HD
ATOM     29  H11 UNL     1      -1.788   1.345 -31.166  1.00  0.00     0.274 HD
ENDBRANCH  25  26
ENDBRANCH  18  25
ENDBRANCH  15  16
ENDBRANCH   1  15
BRANCH   2  30
HETATM   30  C10 UNL     1      -0.964  -5.095 -26.105  1.00  0.00     0.227 C
HETATM   31  O3  UNL     1      -1.285  -4.420 -25.054  1.00  0.00    -0.643 OA
HETATM   32  O4  UNL     1       0.389  -5.104 -26.281  1.00  0.00    -0.643 OA
ENDBRANCH   2  30
BRANCH  14  33
HETATM   33  C25 UNL     1      -2.663  -6.869 -29.881  1.00  0.00     0.201 C
HETATM   34  O8  UNL     1      -3.319  -7.289 -30.901  1.00  0.00    -0.646 OA
HETATM   35  O9  UNL     1      -1.470  -7.518 -29.669  1.00  0.00    -0.646 OA
ENDBRANCH  14  33
BRANCH  11  36
HETATM   36  C19 UNL     1      -6.141  -7.311 -27.559  1.00  0.00     0.203 C
BRANCH  36  37
HETATM   37  O5  UNL     1      -6.666  -7.301 -26.286  1.00  0.00    -0.308 OA
BRANCH  37  38
HETATM   38  C20 UNL     1      -7.909  -6.800 -25.913  1.00  0.00     0.255 C
HETATM   39  C21 UNL     1      -8.515  -5.598 -26.538  1.00  0.00     0.126 C
HETATM   40  O6  UNL     1      -8.463  -7.456 -25.006  1.00  0.00    -0.266 OA
ENDBRANCH  37  38
ENDBRANCH  36  37
BRANCH  36  41
HETATM   41  C22 UNL     1      -6.733  -8.429 -28.388  1.00  0.00     0.037 C
HETATM   42  C23 UNL     1      -6.463  -9.861 -28.111  1.00  0.00     0.068 C
HETATM   43  N8  UNL     1      -7.511  -8.184 -29.388  1.00  0.00    -0.275 N
ATOM     44  H8  UNL     1      -7.889  -8.968 -29.921  1.00  0.00     0.193 HD
BRANCH  43  45
HETATM   45  O7  UNL     1      -7.844  -6.924 -29.753  1.00  0.00    -0.290 OA
ATOM     46  H7  UNL     1      -7.305  -6.173 -29.531  1.00  0.00     0.244 HD
ENDBRANCH  43  45
ENDBRANCH  36  41
ENDBRANCH  11  36
BRANCH   9  47
HETATM   47  N5  UNL     1      -4.175  -8.642 -24.302  1.00  0.00    -0.346 N
ATOM     48  H5  UNL     1      -3.525  -8.138 -23.700  1.00  0.00     0.163 HD
BRANCH  47  49
HETATM   49  C14 UNL     1      -5.312  -9.280 -23.696  1.00  0.00     0.111 A
HETATM   50  C15 UNL     1      -5.304  -9.496 -22.331  1.00  0.00     0.101 A
HETATM   51  S2  UNL     1      -6.813 -10.246 -22.073  1.00  0.00    -0.062 SA
HETATM   52  C16 UNL     1      -7.364 -10.247 -23.683  1.00  0.00     0.143 A
HETATM   53  N7  UNL     1      -6.370  -9.673 -24.349  1.00  0.00    -0.323 N
ATOM     54  H7  UNL     1      -6.432  -9.540 -25.358  1.00  0.00     0.169 HD
BRANCH  52  55
HETATM   55  N6  UNL     1      -8.497 -10.699 -24.183  1.00  0.00    -0.380 N
ATOM     56  H62 UNL     1      -9.045 -11.491 -23.846  1.00  0.00     0.158 HD
ATOM     57  H61 UNL     1      -9.036 -10.361 -24.980  1.00  0.00     0.158 HD
ENDBRANCH  52  55
ENDBRANCH  47  49
ENDBRANCH   9  47
TORSDOF 16
ENDMDL