MODEL 2
REMARK VINA RESULT: -7.921495080      1.204      1.895
REMARK  16 active torsions:
REMARK  status: ('A' for Active; 'I' for Inactive)
REMARK    1  A    between atoms: C2_2  and  O1_3
REMARK    2  A    between atoms: C2_2  and  N1_5
REMARK    3  A    between atoms: N1_5  and  S1_7
REMARK    4  A    between atoms: S1_7  and  N2_10
REMARK    5  A    between atoms: C4_14  and  C5_15
REMARK    6  A    between atoms: C6_18  and  C7_19
REMARK    7  A    between atoms: C7_19  and  O7_20
REMARK    8  A    between atoms: O7_20  and  C8_21
REMARK    9  A    between atoms: C8_21  and  C9_23
REMARK   10  A    between atoms: C10_27  and  C11_28
REMARK   11  A    between atoms: C12_31  and  N5_32
REMARK       I    between atoms: N5_32  and  C13_34
REMARK   12  A    between atoms: C13_34  and  C14_36
REMARK   13  A    between atoms: C14_36  and  N6_38
REMARK   14  A    between atoms: C17_40  and  C18_41
REMARK   15  A    between atoms: C19_48  and  N10_49
REMARK   16  A    between atoms: C20_53  and  O13_54
ROOT
HETATM    1  O7  UNL     1      -5.407  -8.087 -28.591  1.00  0.00    -0.312 OA
ENDROOT
BRANCH   1   2
HETATM    2  C7  UNL     1      -6.762  -7.742 -28.748  1.00  0.00     0.218 C
BRANCH   2   3
HETATM    3  C6  UNL     1      -7.306  -7.288 -27.463  1.00  0.00     0.015 C
HETATM    4  C4  UNL     1      -7.590  -6.066 -27.074  1.00  0.00     0.127 C
HETATM    5  N3  UNL     1      -8.106  -6.127 -25.723  1.00  0.00    -0.237 N
HETATM    6  C3  UNL     1      -8.746  -5.973 -24.473  1.00  0.00     0.348 C
HETATM    7  C20 UNL     1      -7.428  -7.329 -25.168  1.00  0.00     0.278 C
HETATM    8  N2  UNL     1      -8.426  -7.307 -24.134  1.00  0.00    -0.152 N
HETATM    9  O4  UNL     1      -9.347  -5.045 -23.901  1.00  0.00    -0.245 OA
HETATM   10  C19 UNL     1      -7.638  -8.249 -26.336  1.00  0.00     0.296 C
BRANCH   4  11
HETATM   11  C5  UNL     1      -7.449  -4.804 -27.786  1.00  0.00     0.227 C
HETATM   12  O5  UNL     1      -8.442  -4.150 -28.147  1.00  0.00    -0.643 OA
HETATM   13  O6  UNL     1      -6.209  -4.281 -28.090  1.00  0.00    -0.643 OA
ENDBRANCH   4  11
BRANCH   8  14
HETATM   14  S1  UNL     1      -8.967  -8.451 -22.991  1.00  0.00     0.331 S
HETATM   15  O2  UNL     1      -9.626  -9.566 -23.768  1.00  0.00    -0.182 OA
HETATM   16  O3  UNL     1      -7.788  -9.119 -22.289  1.00  0.00    -0.182 OA
BRANCH  14  17
HETATM   17  N1  UNL     1      -9.985  -7.822 -21.779  1.00  0.00    -0.276 N
ATOM     18  H1  UNL     1      -9.628  -7.476 -20.889  1.00  0.00     0.176 HD
BRANCH  17  19
HETATM   19  C2  UNL     1     -11.384  -7.816 -22.108  1.00  0.00     0.225 C
HETATM   20  C1  UNL     1     -12.254  -7.717 -20.883  1.00  0.00     0.063 C
BRANCH  19  21
HETATM   21  O1  UNL     1     -11.673  -6.655 -22.868  1.00  0.00    -0.377 OA
ATOM     22  H1  UNL     1     -11.122  -5.972 -22.503  1.00  0.00     0.212 HD
ENDBRANCH  19  21
ENDBRANCH  17  19
ENDBRANCH  14  17
ENDBRANCH   8  14
BRANCH   7  23
HETATM   23  O13 UNL     1      -6.132  -7.122 -24.769  1.00  0.00    -0.351 OA
ATOM     24  H13 UNL     1      -5.491  -6.998 -25.460  1.00  0.00     0.214 HD
ENDBRANCH   7  23
BRANCH  10  25
HETATM   25  N10 UNL     1      -6.714  -9.360 -26.339  1.00  0.00    -0.064 N
ATOM     26 3H10 UNL     1      -7.065 -10.149 -25.795  1.00  0.00     0.275 HD
ATOM     27 2H10 UNL     1      -6.668  -9.815 -27.250  1.00  0.00     0.275 HD
ATOM     28 1H10 UNL     1      -5.795  -9.055 -26.018  1.00  0.00     0.275 HD
ENDBRANCH  10  25
ENDBRANCH   2   3
ENDBRANCH   1   2
BRANCH   1  29
HETATM   29  C8  UNL     1      -4.415  -7.303 -28.090  1.00  0.00     0.313 C
HETATM   30  O8  UNL     1      -4.360  -7.093 -26.860  1.00  0.00    -0.257 OA
BRANCH  29  31
HETATM   31  C9  UNL     1      -3.420  -6.715 -29.033  1.00  0.00     0.143 A
HETATM   32  N4  UNL     1      -3.731  -6.655 -30.332  1.00  0.00    -0.319 N
HETATM   33  S2  UNL     1      -2.395  -5.965 -31.059  1.00  0.00    -0.005 SA
ATOM     34  H4  UNL     1      -4.594  -6.962 -30.781  1.00  0.00     0.174 HD
HETATM   35  C10 UNL     1      -1.423  -5.749 -29.686  1.00  0.00     0.127 A
HETATM   36  C12 UNL     1      -2.205  -6.240 -28.670  1.00  0.00     0.094 A
BRANCH  35  37
HETATM   37  C11 UNL     1      -0.059  -5.176 -29.559  1.00  0.00     0.220 C
HETATM   38  O9  UNL     1       0.723  -5.639 -28.703  1.00  0.00    -0.643 OA
HETATM   39  O10 UNL     1       0.336  -4.151 -30.375  1.00  0.00    -0.643 OA
ENDBRANCH  35  37
BRANCH  36  40
HETATM   40  N5  UNL     1      -1.738  -6.235 -27.283  1.00  0.00    -0.322 N
HETATM   41  C13 UNL     1      -1.172  -7.410 -26.727  1.00  0.00     0.246 C
HETATM   42  O11 UNL     1      -1.096  -8.430 -27.466  1.00  0.00    -0.271 OA
ATOM     43  H5  UNL     1      -1.819  -5.389 -26.719  1.00  0.00     0.169 HD
BRANCH  41  44
HETATM   44  C14 UNL     1      -0.676  -7.504 -25.348  1.00  0.00     0.197 C
HETATM   45  C15 UNL     1       0.035  -6.299 -24.839  1.00  0.00     0.044 C
BRANCH  44  46
HETATM   46  N6  UNL     1      -1.807  -7.777 -24.450  1.00  0.00    -0.273 N
HETATM   47  C16 UNL     1      -2.120  -7.179 -23.293  1.00  0.00     0.148 A
HETATM   48  C17 UNL     1      -3.269  -7.762 -22.793  1.00  0.00     0.131 A
HETATM   49  N8  UNL     1      -3.623  -8.707 -23.671  1.00  0.00    -0.280 N
HETATM   50  N9  UNL     1      -2.742  -8.702 -24.650  1.00  0.00    -0.239 N
ATOM     51  H8  UNL     1      -4.434  -9.322 -23.596  1.00  0.00     0.188 HD
ATOM     52  H9  UNL     1      -2.773  -9.327 -25.456  1.00  0.00     0.208 HD
BRANCH  48  53
HETATM   53  C18 UNL     1      -3.978  -7.442 -21.564  1.00  0.00     0.284 C
HETATM   54  N7  UNL     1      -5.277  -6.890 -21.622  1.00  0.00    -0.056 NA
HETATM   55  O12 UNL     1      -3.440  -7.657 -20.449  1.00  0.00    -0.269 OA
ENDBRANCH  48  53
ENDBRANCH  44  46
ENDBRANCH  41  44
ENDBRANCH  36  40
ENDBRANCH  29  31
ENDBRANCH   1  29
TORSDOF 16
ENDMDL