MODEL 4
REMARK VINA RESULT: -8.405347771      3.744      9.353
REMARK  16 active torsions:
REMARK  status: ('A' for Active; 'I' for Inactive)
REMARK    1  A    between atoms: C2_2  and  C5_5
REMARK    2  A    between atoms: C8_8  and  N1_9
REMARK       I    between atoms: N2_12  and  C11_13
REMARK    3  A    between atoms: C11_13  and  C12_15
REMARK    4  A    between atoms: C12_15  and  C13_16
REMARK    5  A    between atoms: C13_16  and  C14_17
REMARK    6  A    between atoms: C14_17  and  O3_19
REMARK    7  A    between atoms: O3_19  and  C15_20
REMARK    8  A    between atoms: C15_20  and  C16_21
REMARK    9  A    between atoms: C16_21  and  C17_23
REMARK   10  A    between atoms: C17_23  and  C18_24
REMARK   11  A    between atoms: C17_23  and  N3_29
REMARK   12  A    between atoms: C18_24  and  C19_25
REMARK   13  A    between atoms: C19_25  and  C20_26
REMARK   14  A    between atoms: N3_29  and  C21_31
REMARK   15  A    between atoms: C21_31  and  C22_36
REMARK   16  A    between atoms: N4_32  and  O7_34
ROOT
HETATM    1  C14 UNL     1      17.497  21.238  18.409  1.00  0.00     0.259 C
HETATM    2  O2  UNL     1      18.715  21.048  18.621  1.00  0.00    -0.265 OA
ENDROOT
BRANCH   1   3
HETATM    3  C13 UNL     1      16.477  21.246  19.454  1.00  0.00     0.120 C
BRANCH   3   4
HETATM    4  C12 UNL     1      15.103  21.643  19.009  1.00  0.00     0.112 C
BRANCH   4   5
HETATM    5  C11 UNL     1      14.146  20.546  18.928  1.00  0.00     0.220 C
HETATM    6  N2  UNL     1      13.607  20.222  17.660  1.00  0.00    -0.349 N
HETATM    7  C10 UNL     1      13.951  20.929  16.430  1.00  0.00     0.145 C
HETATM    8  C27 UNL     1      12.642  19.112  17.604  1.00  0.00     0.145 C
HETATM    9  C9  UNL     1      12.793  21.099  15.498  1.00  0.00     0.142 C
HETATM   10  N1  UNL     1      11.639  20.295  15.783  1.00  0.00    -0.381 N
HETATM   11  C28 UNL     1      11.379  19.747  17.058  1.00  0.00     0.142 C
HETATM   12  O1  UNL     1      13.795  19.898  19.922  1.00  0.00    -0.273 OA
BRANCH  10  13
HETATM   13  C8  UNL     1      10.704  20.045  14.726  1.00  0.00     0.003 C
HETATM   14  C7  UNL     1      10.358  20.971  13.848  1.00  0.00    -0.002 C
HETATM   15  C6  UNL     1       9.360  20.523  12.806  1.00  0.00     0.034 C
HETATM   16  C5  UNL     1      10.051  19.331  12.132  1.00  0.00    -0.003 C
HETATM   17  C30 UNL     1      10.285  18.247  13.139  1.00  0.00     0.011 C
HETATM   18  C29 UNL     1      10.066  18.702  14.566  1.00  0.00     0.057 C
BRANCH  16  19
HETATM   19  C2  UNL     1       9.314  18.874  10.904  1.00  0.00    -0.048 C
HETATM   20  C1  UNL     1       8.178  17.979  11.274  1.00  0.00     0.015 C
HETATM   21  C3  UNL     1       8.816  20.103  10.187  1.00  0.00     0.015 C
HETATM   22  C4  UNL     1      10.323  18.192  10.001  1.00  0.00     0.015 C
ENDBRANCH  16  19
ENDBRANCH  10  13
ENDBRANCH   4   5
ENDBRANCH   3   4
ENDBRANCH   1   3
BRANCH   1  23
HETATM   23  O3  UNL     1      17.142  21.452  17.064  1.00  0.00    -0.314 OA
BRANCH  23  24
HETATM   24  C15 UNL     1      17.953  22.278  16.254  1.00  0.00     0.259 C
BRANCH  24  25
HETATM   25  C16 UNL     1      17.411  23.675  16.168  1.00  0.00     0.173 C
HETATM   26  O4  UNL     1      16.209  23.875  16.097  1.00  0.00    -0.293 OA
BRANCH  25  27
HETATM   27  C17 UNL     1      18.361  24.780  16.184  1.00  0.00     0.155 C
BRANCH  27  28
HETATM   28  C18 UNL     1      18.424  25.738  15.054  1.00  0.00     0.043 C
BRANCH  28  29
HETATM   29  C19 UNL     1      19.669  26.363  14.632  1.00  0.00     0.116 C
BRANCH  29  30
HETATM   30  C20 UNL     1      20.206  27.502  15.342  1.00  0.00     0.172 C
HETATM   31  O5  UNL     1      20.328  27.675  16.566  1.00  0.00    -0.648 OA
HETATM   32  O6  UNL     1      20.670  28.601  14.529  1.00  0.00    -0.648 OA
ENDBRANCH  29  30
ENDBRANCH  28  29
ENDBRANCH  27  28
BRANCH  27  33
HETATM   33  N3  UNL     1      18.013  25.553  17.421  1.00  0.00    -0.366 N
ATOM     34  H3  UNL     1      17.821  26.552  17.352  1.00  0.00     0.161 HD
BRANCH  33  35
HETATM   35  C21 UNL     1      17.947  24.918  18.683  1.00  0.00     0.102 C
HETATM   36  N4  UNL     1      16.784  24.809  19.281  1.00  0.00    -0.257 N
ATOM     37  H4  UNL     1      16.720  24.353  20.192  1.00  0.00     0.195 HD
BRANCH  36  38
HETATM   38  O7  UNL     1      15.657  25.310  18.683  1.00  0.00    -0.288 OA
ATOM     39  H7  UNL     1      15.258  24.844  17.957  1.00  0.00     0.244 HD
ENDBRANCH  36  38
BRANCH  35  40
HETATM   40  C22 UNL     1      19.175  24.380  19.321  1.00  0.00     0.055 C
HETATM   41  C23 UNL     1      19.015  24.391  20.829  1.00  0.00     0.012 C
HETATM   42  C24 UNL     1      20.428  24.645  21.297  1.00  0.00     0.001 C
HETATM   43  C25 UNL     1      20.862  25.763  20.376  1.00  0.00     0.001 C
HETATM   44  C26 UNL     1      20.348  25.276  19.033  1.00  0.00     0.012 C
ENDBRANCH  35  40
ENDBRANCH  33  35
ENDBRANCH  27  33
ENDBRANCH  25  27
ENDBRANCH  24  25
ENDBRANCH  23  24
ENDBRANCH   1  23
TORSDOF 16
ENDMDL