MODEL 2
REMARK VINA RESULT: -8.968674912      1.965      3.590
REMARK  15 active torsions:
REMARK  status: ('A' for Active; 'I' for Inactive)
REMARK    1  A    between atoms: C2_2  and  O1_3
REMARK    2  A    between atoms: O1_3  and  C3_4
REMARK       I    between atoms: C3_4  and  N1_6
REMARK    3  A    between atoms: N2_9  and  C6_10
REMARK    4  A    between atoms: C6_10  and  O3_11
REMARK    5  A    between atoms: C6_10  and  C7_13
REMARK    6  A    between atoms: C7_13  and  C8_14
REMARK    7  A    between atoms: C7_13  and  C14_20
REMARK    8  A    between atoms: C8_14  and  C9_15
REMARK    9  A    between atoms: C9_15  and  C10_16
REMARK   10  A    between atoms: C9_15  and  C12_18
REMARK   11  A    between atoms: C14_20  and  N3_21
REMARK   12  A    between atoms: C14_20  and  C27_40
REMARK   13  A    between atoms: N3_21  and  C15_23
REMARK   14  A    between atoms: C19_28  and  C20_29
REMARK       I    between atoms: C20_29  and  N5_31
REMARK   15  A    between atoms: N5_31  and  C21_33
ROOT
HETATM    1  C21 UNL     1      11.400  19.705  14.316  1.00  0.00     0.122 C
HETATM    2  C22 UNL     1      10.613  20.912  14.139  1.00  0.00     0.091 C
HETATM    3  N6  UNL     1       9.976  21.854  14.000  1.00  0.00    -0.195 NA
HETATM    4  C23 UNL     1      10.561  18.520  13.914  1.00  0.00     0.046 C
HETATM    5  C24 UNL     1      10.568  18.622  12.403  1.00  0.00     0.004 C
HETATM    6  C25 UNL     1      11.966  19.105  12.059  1.00  0.00     0.004 C
HETATM    7  C26 UNL     1      12.561  19.620  13.349  1.00  0.00     0.046 C
ENDROOT
BRANCH   1   8
HETATM    8  N5  UNL     1      11.918  19.568  15.669  1.00  0.00    -0.335 N
HETATM    9  C20 UNL     1      12.825  20.508  16.230  1.00  0.00     0.256 C
HETATM   10  O4  UNL     1      13.144  21.453  15.477  1.00  0.00    -0.267 OA
ATOM     11  H5  UNL     1      11.620  18.772  16.234  1.00  0.00     0.164 HD
BRANCH   9  12
HETATM   12  C19 UNL     1      13.301  20.308  17.596  1.00  0.00     0.075 A
HETATM   13  C15 UNL     1      14.318  20.948  18.298  1.00  0.00     0.065 A
HETATM   14  C16 UNL     1      14.364  20.375  19.557  1.00  0.00     0.120 A
HETATM   15  N4  UNL     1      13.440  19.434  19.649  1.00  0.00    -0.367 N
HETATM   16  C17 UNL     1      13.174  18.609  20.806  1.00  0.00     0.154 C
HETATM   17  C18 UNL     1      12.789  19.371  18.492  1.00  0.00     0.109 A
BRANCH  13  18
HETATM   18  N3  UNL     1      15.108  22.028  17.776  1.00  0.00    -0.350 N
ATOM     19  H3  UNL     1      14.589  22.794  17.348  1.00  0.00     0.166 HD
BRANCH  18  20
HETATM   20  C14 UNL     1      16.512  22.160  17.782  1.00  0.00     0.109 C
BRANCH  20  21
HETATM   21  C7  UNL     1      17.199  23.326  18.341  1.00  0.00     0.025 C
BRANCH  21  22
HETATM   22  C6  UNL     1      17.160  24.641  17.711  1.00  0.00     0.146 C
BRANCH  22  23
HETATM   23  N2  UNL     1      18.170  25.302  16.973  1.00  0.00    -0.358 N
HETATM   24  C5  UNL     1      17.887  25.794  15.647  1.00  0.00     0.145 C
HETATM   25  C4  UNL     1      19.174  26.109  14.893  1.00  0.00     0.148 C
HETATM   26  N1  UNL     1      19.997  27.030  15.655  1.00  0.00    -0.325 N
HETATM   27  C3  UNL     1      20.690  28.043  14.975  1.00  0.00     0.362 C
HETATM   28  C29 UNL     1      20.054  26.849  17.093  1.00  0.00     0.148 C
HETATM   29  O2  UNL     1      20.603  28.154  13.730  1.00  0.00    -0.238 OA
HETATM   30  C28 UNL     1      19.520  25.515  17.495  1.00  0.00     0.145 C
BRANCH  27  31
HETATM   31  O1  UNL     1      21.498  28.965  15.627  1.00  0.00    -0.304 OA
BRANCH  31  32
HETATM   32  C2  UNL     1      22.712  28.539  16.254  1.00  0.00     0.176 C
HETATM   33  C1  UNL     1      23.816  28.571  15.204  1.00  0.00     0.034 C
ENDBRANCH  31  32
ENDBRANCH  27  31
ENDBRANCH  22  23
BRANCH  22  34
HETATM   34  O3  UNL     1      16.085  25.374  17.799  1.00  0.00    -0.346 OA
ATOM     35  H3  UNL     1      15.526  25.080  18.507  1.00  0.00     0.219 HD
ENDBRANCH  22  34
ENDBRANCH  21  22
BRANCH  21  36
HETATM   36  C8  UNL     1      17.452  23.369  19.819  1.00  0.00     0.050 C
BRANCH  36  37
HETATM   37  C9  UNL     1      18.814  23.442  20.333  1.00  0.00    -0.011 C
BRANCH  37  38
HETATM   38  C10 UNL     1      19.202  24.616  21.179  1.00  0.00     0.000 C
HETATM   39  C11 UNL     1      20.600  25.118  20.940  1.00  0.00     0.005 C
ENDBRANCH  37  38
BRANCH  37  40
HETATM   40  C12 UNL     1      19.018  22.196  21.222  1.00  0.00     0.000 C
HETATM   41  C13 UNL     1      18.648  20.949  20.497  1.00  0.00     0.005 C
ENDBRANCH  37  40
ENDBRANCH  36  37
ENDBRANCH  21  36
ENDBRANCH  20  21
BRANCH  20  42
HETATM   42  C27 UNL     1      17.116  21.547  16.569  1.00  0.00     0.282 C
HETATM   43  N7  UNL     1      16.597  21.892  15.302  1.00  0.00    -0.056 NA
HETATM   44  O5  UNL     1      18.055  20.754  16.649  1.00  0.00    -0.269 OA
ENDBRANCH  20  42
ENDBRANCH  18  20
ENDBRANCH  13  18
ENDBRANCH   9  12
ENDBRANCH   1   8
TORSDOF 15
ENDMDL