MODEL 5
REMARK VINA RESULT: -7.418477392      1.665      2.227
REMARK  15 active torsions:
REMARK  status: ('A' for Active; 'I' for Inactive)
REMARK    1  A    between atoms: C3_3  and  C4_4
REMARK    2  A    between atoms: C4_4  and  C5_5
REMARK    3  A    between atoms: C8_9  and  O2_11
REMARK    4  A    between atoms: C15_19  and  C16_20
REMARK    5  A    between atoms: C16_20  and  C17_21
REMARK    6  A    between atoms: C17_21  and  C18_22
REMARK       I    between atoms: N1_23  and  C19_25
REMARK    7  A    between atoms: C19_25  and  C20_27
REMARK    8  A    between atoms: C20_27  and  C21_28
REMARK    9  A    between atoms: C21_28  and  N2_29
REMARK   10  A    between atoms: C25_34  and  O6_35
REMARK   11  A    between atoms: C26_37  and  C27_38
REMARK   12  A    between atoms: C27_38  and  O7_39
REMARK   13  A    between atoms: C28_41  and  C29_42
REMARK   14  A    between atoms: C29_42  and  C30_43
REMARK   15  A    between atoms: C30_43  and  C31_44
ROOT
HETATM    1  C1  UNL     1      12.833  19.707  18.899  1.00  0.00     0.012 C
HETATM    2  C2  UNL     1      14.015  19.940  18.946  1.00  0.00    -0.117 C
HETATM    3  C3  UNL     1      15.480  20.210  18.985  1.00  0.00     0.096 C
ENDROOT
BRANCH   3   4
HETATM    4  C4  UNL     1      16.092  19.958  17.636  1.00  0.00     0.049 C
BRANCH   4   5
HETATM    5  C5  UNL     1      16.527  21.227  16.901  1.00  0.00     0.158 C
HETATM    6  O1  UNL     1      17.319  21.892  17.877  1.00  0.00    -0.344 OA
HETATM    7  C6  UNL     1      18.061  23.030  17.953  1.00  0.00     0.069 C
HETATM    8  C7  UNL     1      18.336  22.961  19.249  1.00  0.00     0.044 C
HETATM    9  C13 UNL     1      18.485  24.058  17.029  1.00  0.00     0.118 C
HETATM   10  C8  UNL     1      19.087  23.780  20.196  1.00  0.00     0.077 C
HETATM   11  C9  UNL     1      18.148  24.576  21.115  1.00  0.00     0.051 C
HETATM   12  C10 UNL     1      20.100  24.706  19.619  1.00  0.00     0.068 C
HETATM   13  C11 UNL     1      19.431  25.662  18.723  1.00  0.00    -0.026 C
HETATM   14  C12 UNL     1      18.755  25.380  17.637  1.00  0.00    -0.004 C
HETATM   15  C14 UNL     1      19.667  23.750  16.184  1.00  0.00     0.177 C
HETATM   16  C24 UNL     1      17.481  24.180  15.858  1.00  0.00     0.181 C
HETATM   17  O3  UNL     1      20.633  23.071  16.345  1.00  0.00    -0.293 OA
HETATM   18  C15 UNL     1      19.394  24.560  14.913  1.00  0.00     0.193 C
HETATM   19  O5  UNL     1      18.171  25.169  15.158  1.00  0.00    -0.368 OA
HETATM   20  C25 UNL     1      16.127  24.495  16.314  1.00  0.00     0.180 C
HETATM   21  C26 UNL     1      15.142  23.379  16.483  1.00  0.00    -0.021 C
HETATM   22  C28 UNL     1      15.553  21.994  16.170  1.00  0.00    -0.044 C
BRANCH  10  23
HETATM   23  O2  UNL     1      19.771  22.899  21.060  1.00  0.00    -0.386 OA
ATOM     24  H2  UNL     1      20.203  22.250  20.517  1.00  0.00     0.211 HD
ENDBRANCH  10  23
BRANCH  18  25
HETATM   25  C16 UNL     1      20.538  25.471  14.724  1.00  0.00     0.045 C
BRANCH  25  26
HETATM   26  C17 UNL     1      20.145  26.912  14.693  1.00  0.00     0.047 C
BRANCH  26  27
HETATM   27  C18 UNL     1      20.549  27.636  15.896  1.00  0.00     0.064 C
HETATM   28  N1  UNL     1      21.610  28.331  15.940  1.00  0.00    -0.341 N
HETATM   29  C19 UNL     1      22.516  28.509  14.902  1.00  0.00     0.222 C
ATOM     30  H1  UNL     1      21.816  28.804  16.820  1.00  0.00     0.167 HD
HETATM   31  O4  UNL     1      22.187  28.251  13.713  1.00  0.00    -0.273 OA
BRANCH  29  32
HETATM   32  C20 UNL     1      23.913  29.014  15.185  1.00  0.00     0.133 C
BRANCH  32  33
HETATM   33  C21 UNL     1      24.428  28.247  16.366  1.00  0.00     0.280 C
BRANCH  33  34
HETATM   34  N2  UNL     1      24.972  26.959  16.049  1.00  0.00     0.080 N
HETATM   35  C22 UNL     1      26.353  27.047  15.593  1.00  0.00     0.309 C
HETATM   36  C23 UNL     1      24.958  26.093  17.226  1.00  0.00     0.309 C
ENDBRANCH  33  34
ENDBRANCH  32  33
ENDBRANCH  29  32
ENDBRANCH  26  27
ENDBRANCH  25  26
ENDBRANCH  18  25
BRANCH  20  37
HETATM   37  O6  UNL     1      16.228  25.096  17.598  1.00  0.00    -0.388 OA
ATOM     38  H6  UNL     1      15.831  24.506  18.228  1.00  0.00     0.210 HD
ENDBRANCH  20  37
BRANCH  21  39
HETATM   39  C27 UNL     1      14.170  23.588  17.594  1.00  0.00     0.201 C
BRANCH  39  40
HETATM   40  O7  UNL     1      14.566  23.382  18.867  1.00  0.00    -0.397 OA
ATOM     41  H7  UNL     1      15.205  23.966  19.257  1.00  0.00     0.209 HD
ENDBRANCH  39  40
ENDBRANCH  21  39
BRANCH  22  42
HETATM   42  C29 UNL     1      14.309  21.260  15.665  1.00  0.00     0.037 C
BRANCH  42  43
HETATM   43  C30 UNL     1      14.385  20.870  14.212  1.00  0.00     0.004 C
BRANCH  43  44
HETATM   44  C31 UNL     1      13.078  20.175  13.868  1.00  0.00    -0.004 C
HETATM   45  C32 UNL     1      12.100  20.249  15.017  1.00  0.00     0.005 C
ENDBRANCH  43  44
ENDBRANCH  42  43
ENDBRANCH  22  42
ENDBRANCH   4   5
ENDBRANCH   3   4
TORSDOF 15
ENDMDL