MODEL 2
REMARK VINA RESULT: -8.491099844      2.810      7.835
REMARK  12 active torsions:
REMARK  status: ('A' for Active; 'I' for Inactive)
REMARK    1  A    between atoms: C3_3  and  N1_4
REMARK    2  A    between atoms: C4_5  and  C5_6
REMARK    3  A    between atoms: C5_6  and  C6_7
REMARK    4  A    between atoms: C6_7  and  S1_8
REMARK    5  A    between atoms: S1_8  and  C7_9
REMARK    6  A    between atoms: C7_9  and  C8_10
REMARK    7  A    between atoms: C8_10  and  C9_11
REMARK       I    between atoms: N4_17  and  C11_19
REMARK    8  A    between atoms: C11_19  and  C12_21
REMARK    9  A    between atoms: C20_31  and  C21_32
REMARK       I    between atoms: C21_32  and  N5_34
REMARK   10  A    between atoms: N5_34  and  C22_36
REMARK   11  A    between atoms: C22_36  and  C23_37
REMARK   12  A    between atoms: C23_37  and  N6_38
ROOT
HETATM    1  C1  UNL     1      15.277  21.481  13.213  1.00  0.00     0.014 C
HETATM    2  C2  UNL     1      15.072  21.822  14.344  1.00  0.00    -0.096 C
HETATM    3  C3  UNL     1      14.820  22.264  15.722  1.00  0.00     0.242 C
ENDROOT
BRANCH   3   4
HETATM    4  N1  UNL     1      16.043  22.055  16.560  1.00  0.00    -0.271 N
HETATM    5  C4  UNL     1      15.972  21.172  17.550  1.00  0.00     0.073 A
HETATM    6  S3  UNL     1      17.534  21.258  18.229  1.00  0.00    -0.055 SA
HETATM    7  C18 UNL     1      18.179  22.433  17.184  1.00  0.00     0.099 A
HETATM    8  C19 UNL     1      19.310  23.195  16.861  1.00  0.00     0.057 A
HETATM    9  N7  UNL     1      17.160  22.697  16.372  1.00  0.00    -0.256 N
HETATM   10  C20 UNL     1      18.951  23.961  15.790  1.00  0.00     0.052 A
HETATM   11  C26 UNL     1      17.639  23.654  15.496  1.00  0.00     0.134 A
BRANCH   5  12
HETATM   12  C5  UNL     1      14.805  20.299  17.947  1.00  0.00     0.077 C
BRANCH  12  13
HETATM   13  C6  UNL     1      15.393  18.906  18.078  1.00  0.00     0.080 C
BRANCH  13  14
HETATM   14  S1  UNL     1      14.364  17.946  19.190  1.00  0.00    -0.168 SA
BRANCH  14  15
HETATM   15  C7  UNL     1      13.276  19.092  20.097  1.00  0.00     0.080 C
BRANCH  15  16
HETATM   16  C8  UNL     1      11.947  18.349  20.270  1.00  0.00     0.076 C
BRANCH  16  17
HETATM   17  C9  UNL     1      11.354  18.277  18.881  1.00  0.00     0.070 A
HETATM   18  N2  UNL     1      10.841  17.213  18.277  1.00  0.00    -0.296 N
HETATM   19  N3  UNL     1      10.379  17.304  17.103  1.00  0.00    -0.279 N
ATOM     20  H2  UNL     1      10.819  16.317  18.762  1.00  0.00     0.187 HD
HETATM   21  C10 UNL     1      10.420  18.492  16.487  1.00  0.00     0.167 A
ATOM     22  H3  UNL     1       9.983  16.489  16.635  1.00  0.00     0.189 HD
HETATM   23  N4  UNL     1       9.989  18.765  15.276  1.00  0.00    -0.306 N
HETATM   24  S2  UNL     1      11.156  19.473  17.680  1.00  0.00    -0.038 SA
HETATM   25  C11 UNL     1      10.093  20.057  14.747  1.00  0.00     0.227 C
ATOM     26  H4  UNL     1       9.571  18.024  14.713  1.00  0.00     0.171 HD
HETATM   27  O1  UNL     1       9.801  21.042  15.470  1.00  0.00    -0.273 OA
BRANCH  25  28
HETATM   28  C12 UNL     1      10.534  20.306  13.361  1.00  0.00     0.078 C
HETATM   29  C13 UNL     1      11.877  19.725  13.058  1.00  0.00     0.014 C
HETATM   30  C14 UNL     1      11.782  18.364  12.392  1.00  0.00     0.001 C
HETATM   31  C15 UNL     1      11.111  18.491  11.044  1.00  0.00     0.000 C
HETATM   32  C16 UNL     1      10.043  19.535  11.036  1.00  0.00     0.001 C
HETATM   33  C17 UNL     1       9.506  19.699  12.431  1.00  0.00     0.014 C
ENDBRANCH  25  28
ENDBRANCH  16  17
ENDBRANCH  15  16
ENDBRANCH  14  15
ENDBRANCH  13  14
ENDBRANCH  12  13
ENDBRANCH   5  12
BRANCH  10  34
HETATM   34  C21 UNL     1      19.817  24.903  15.109  1.00  0.00     0.253 C
HETATM   35  O2  UNL     1      20.954  24.544  14.742  1.00  0.00    -0.268 OA
HETATM   36  N5  UNL     1      19.421  26.251  14.830  1.00  0.00    -0.355 N
ATOM     37  H5  UNL     1      18.496  26.567  15.123  1.00  0.00     0.162 HD
BRANCH  36  38
HETATM   38  C22 UNL     1      20.293  27.175  14.148  1.00  0.00     0.153 C
BRANCH  38  39
HETATM   39  C23 UNL     1      20.707  28.252  15.124  1.00  0.00     0.291 C
BRANCH  39  40
HETATM   40  N6  UNL     1      21.977  27.813  15.705  1.00  0.00     0.081 N
HETATM   41  C24 UNL     1      23.053  28.710  15.317  1.00  0.00     0.309 C
HETATM   42  C25 UNL     1      21.892  27.723  17.154  1.00  0.00     0.309 C
ENDBRANCH  39  40
ENDBRANCH  38  39
ENDBRANCH  36  38
ENDBRANCH  10  34
ENDBRANCH   3   4
TORSDOF 12
ENDMDL