MODEL 3
REMARK VINA RESULT: -8.531215570      1.660      2.227
REMARK  13 active torsions:
REMARK  status: ('A' for Active; 'I' for Inactive)
REMARK    1  A    between atoms: C2_2  and  C3_3
REMARK    2  A    between atoms: C3_3  and  C4_4
REMARK    3  A    between atoms: C4_4  and  C5_5
REMARK    4  A    between atoms: C5_5  and  C6_6
REMARK    5  A    between atoms: C6_6  and  C7_7
REMARK    6  A    between atoms: C10_12  and  C11_13
REMARK       I    between atoms: C11_13  and  N2_15
REMARK    7  A    between atoms: N2_15  and  C12_17
REMARK    8  A    between atoms: C12_17  and  C13_18
REMARK    9  A    between atoms: C13_18  and  C14_19
REMARK   10  A    between atoms: C14_19  and  N3_20
REMARK   11  A    between atoms: C26_36  and  C28_38
REMARK   12  A    between atoms: C28_38  and  O4_39
REMARK   13  A    between atoms: O4_39  and  C29_40
ROOT
HETATM    1  C7  UNL     1      20.276  24.752  16.762  1.00  0.00    -0.048 A
HETATM    2  C8  UNL     1      19.272  23.771  16.714  1.00  0.00     0.038 A
HETATM    3  C9  UNL     1      18.709  23.192  17.816  1.00  0.00     0.051 A
HETATM    4  N1  UNL     1      17.755  22.258  17.706  1.00  0.00    -0.337 N
ATOM      5  H1  UNL     1      17.441  21.974  16.777  1.00  0.00     0.167 HD
HETATM    6  C10 UNL     1      17.204  21.687  18.784  1.00  0.00     0.177 A
HETATM    7  N4  UNL     1      17.612  22.056  20.002  1.00  0.00    -0.304 N
ATOM      8  H4  UNL     1      17.186  21.617  20.818  1.00  0.00     0.171 HD
HETATM    9  C19 UNL     1      18.586  23.009  20.191  1.00  0.00     0.260 A
HETATM   10  O3  UNL     1      18.848  23.237  21.346  1.00  0.00    -0.267 OA
HETATM   11  C20 UNL     1      19.137  23.580  19.092  1.00  0.00     0.075 A
HETATM   12  C21 UNL     1      20.131  24.548  19.185  1.00  0.00     0.057 A
HETATM   13  C22 UNL     1      20.715  25.148  18.013  1.00  0.00    -0.025 A
HETATM   14  C23 UNL     1      21.756  26.170  18.139  1.00  0.00     0.008 C
HETATM   15  C24 UNL     1      22.857  26.224  17.150  1.00  0.00     0.023 C
HETATM   16  C25 UNL     1      21.154  27.548  18.425  1.00  0.00     0.023 C
HETATM   17  C26 UNL     1      22.536  25.905  19.452  1.00  0.00     0.062 C
HETATM   18  C27 UNL     1      23.464  27.132  19.664  1.00  0.00     0.042 C
HETATM   19  N5  UNL     1      21.641  25.926  20.551  1.00  0.00    -0.345 N
ATOM     20  H5  UNL     1      21.731  26.588  21.322  1.00  0.00     0.163 HD
HETATM   21  C31 UNL     1      20.592  24.936  20.491  1.00  0.00     0.254 C
HETATM   22  O6  UNL     1      20.202  24.529  21.576  1.00  0.00    -0.268 OA
ENDROOT
BRANCH   6  23
HETATM   23  C11 UNL     1      16.154  20.651  18.691  1.00  0.00     0.285 C
HETATM   24  O1  UNL     1      16.538  19.545  18.221  1.00  0.00    -0.264 OA
HETATM   25  N2  UNL     1      14.834  20.892  19.099  1.00  0.00    -0.354 N
ATOM     26  H2  UNL     1      14.618  21.819  19.466  1.00  0.00     0.162 HD
BRANCH  25  27
HETATM   27  C12 UNL     1      13.762  19.934  19.041  1.00  0.00     0.128 C
BRANCH  27  28
HETATM   28  C13 UNL     1      13.157  19.830  17.661  1.00  0.00     0.065 C
BRANCH  28  29
HETATM   29  C14 UNL     1      13.411  21.152  16.966  1.00  0.00     0.069 C
BRANCH  29  30
HETATM   30  N3  UNL     1      13.963  21.035  15.688  1.00  0.00    -0.350 N
HETATM   31  C15 UNL     1      13.184  20.626  14.598  1.00  0.00     0.094 C
HETATM   32  C16 UNL     1      14.001  20.066  13.441  1.00  0.00     0.213 C
HETATM   33  O2  UNL     1      15.098  20.822  13.120  1.00  0.00    -0.381 OA
HETATM   34  C17 UNL     1      15.294  21.931  13.928  1.00  0.00     0.213 C
HETATM   35  C18 UNL     1      15.233  21.566  15.403  1.00  0.00     0.094 C
ENDBRANCH  29  30
ENDBRANCH  28  29
ENDBRANCH  27  28
ENDBRANCH  25  27
ENDBRANCH   6  23
BRANCH   1  36
HETATM   36  C6  UNL     1      20.649  25.254  15.467  1.00  0.00     0.039 C
BRANCH  36  37
HETATM   37  C5  UNL     1      19.493  25.454  14.473  1.00  0.00     0.005 C
BRANCH  37  38
HETATM   38  C4  UNL     1      19.114  26.930  14.425  1.00  0.00     0.000 C
BRANCH  38  39
HETATM   39  C3  UNL     1      20.227  27.778  14.963  1.00  0.00    -0.000 C
BRANCH  39  40
HETATM   40  C2  UNL     1      21.153  28.237  13.864  1.00  0.00    -0.005 C
HETATM   41  C1  UNL     1      22.528  28.444  14.430  1.00  0.00     0.005 C
ENDBRANCH  39  40
ENDBRANCH  38  39
ENDBRANCH  37  38
ENDBRANCH  36  37
ENDBRANCH   1  36
BRANCH  17  42
HETATM   42  C28 UNL     1      23.441  24.747  19.314  1.00  0.00     0.210 C
BRANCH  42  43
HETATM   43  O4  UNL     1      24.802  24.951  19.595  1.00  0.00    -0.319 OA
BRANCH  43  44
HETATM   44  C29 UNL     1      25.767  24.279  18.879  1.00  0.00     0.254 C
HETATM   45  C30 UNL     1      26.342  24.832  17.609  1.00  0.00     0.126 C
HETATM   46  O5  UNL     1      26.176  23.178  19.303  1.00  0.00    -0.266 OA
ENDBRANCH  43  44
ENDBRANCH  42  43
ENDBRANCH  17  42
TORSDOF 13
ENDMDL