MODEL 5
REMARK VINA RESULT: -8.826816650      2.204      9.866
REMARK  15 active torsions:
REMARK  status: ('A' for Active; 'I' for Inactive)
REMARK    1  A    between atoms: O1_1  and  C1_3
REMARK    2  A    between atoms: C1_3  and  C2_4
REMARK    3  A    between atoms: C1_3  and  N1_15
REMARK    4  A    between atoms: N2_18  and  C13_19
REMARK    5  A    between atoms: C13_19  and  C14_20
REMARK    6  A    between atoms: C14_20  and  C15_21
REMARK    7  A    between atoms: C15_21  and  C16_22
REMARK    8  A    between atoms: C16_22  and  C17_23
REMARK    9  A    between atoms: C17_23  and  N3_24
REMARK       I    between atoms: N3_24  and  C18_26
REMARK       I    between atoms: C18_26  and  N5_34
REMARK   10  A    between atoms: N4_27  and  C19_29
REMARK   11  A    between atoms: C19_29  and  C20_30
REMARK   12  A    between atoms: C20_30  and  C21_31
REMARK   13  A    between atoms: C21_31  and  O4_32
REMARK   14  A    between atoms: N5_34  and  C22_36
REMARK   15  A    between atoms: C22_36  and  C23_37
ROOT
HETATM    1  C16 UNL     1      12.675  17.704  20.314  1.00  0.00     0.020 C
ENDROOT
BRANCH   1   2
HETATM    2  C15 UNL     1      13.865  17.770  19.388  1.00  0.00     0.003 C
BRANCH   2   3
HETATM    3  C14 UNL     1      14.544  19.116  19.621  1.00  0.00     0.019 C
BRANCH   3   4
HETATM    4  C13 UNL     1      15.034  19.626  18.261  1.00  0.00     0.117 C
BRANCH   4   5
HETATM    5  N2  UNL     1      15.773  20.804  18.488  1.00  0.00    -0.409 N
HETATM    6  C12 UNL     1      17.168  20.758  18.529  1.00  0.00     0.136 C
HETATM    7  C11 UNL     1      17.722  22.024  17.854  1.00  0.00     0.144 C
HETATM    8  N1  UNL     1      16.996  23.192  18.451  1.00  0.00    -0.358 N
HETATM    9  C31 UNL     1      15.572  23.132  18.386  1.00  0.00     0.144 C
HETATM   10  C30 UNL     1      15.100  21.881  19.155  1.00  0.00     0.136 C
BRANCH   8  11
HETATM   11  C1  UNL     1      17.769  24.219  18.929  1.00  0.00     0.148 C
BRANCH  11  12
HETATM   12  O1  UNL     1      17.478  24.632  20.139  1.00  0.00    -0.346 OA
ATOM     13  H1  UNL     1      17.740  24.037  20.833  1.00  0.00     0.219 HD
ENDBRANCH  11  12
BRANCH  11  14
HETATM   14  C2  UNL     1      18.858  24.916  18.307  1.00  0.00     0.017 A
HETATM   15  C3  UNL     1      20.111  24.958  18.967  1.00  0.00     0.018 A
HETATM   16  C4  UNL     1      21.138  25.687  18.439  1.00  0.00     0.040 A
HETATM   17  C5  UNL     1      20.997  26.399  17.263  1.00  0.00     0.102 A
HETATM   18  C6  UNL     1      19.775  26.351  16.631  1.00  0.00     0.102 A
HETATM   19  O3  UNL     1      22.174  27.074  16.903  1.00  0.00    -0.348 OA
HETATM   20  C7  UNL     1      18.707  25.617  17.145  1.00  0.00     0.055 A
HETATM   21  O2  UNL     1      19.476  27.011  15.443  1.00  0.00    -0.348 OA
HETATM   22  C8  UNL     1      20.246  27.643  14.451  1.00  0.00     0.178 C
HETATM   23  C9  UNL     1      21.725  27.412  14.614  1.00  0.00     0.053 C
HETATM   24  C10 UNL     1      22.268  28.039  15.873  1.00  0.00     0.178 C
ENDBRANCH  11  14
ENDBRANCH   8  11
ENDBRANCH   4   5
ENDBRANCH   3   4
ENDBRANCH   2   3
ENDBRANCH   1   2
BRANCH   1  25
HETATM   25  C17 UNL     1      11.455  18.125  19.526  1.00  0.00     0.138 C
BRANCH  25  26
HETATM   26  N3  UNL     1      11.696  18.066  18.104  1.00  0.00    -0.227 N
HETATM   27  C18 UNL     1      10.751  17.335  17.317  1.00  0.00     0.669 C
HETATM   28  N4  UNL     1      10.167  16.305  17.845  1.00  0.00    -0.227 N
HETATM   29  N5  UNL     1      10.504  17.780  15.997  1.00  0.00    -0.222 N
ATOM     30  H4  UNL     1      10.408  16.058  18.804  1.00  0.00     0.177 HD
ATOM     31  H5  UNL     1      10.389  17.101  15.245  1.00  0.00     0.178 HD
ATOM     32  H3  UNL     1      12.502  18.524  17.679  1.00  0.00     0.177 HD
BRANCH  28  33
HETATM   33  C19 UNL     1       9.204  15.491  17.164  1.00  0.00     0.140 C
BRANCH  33  34
HETATM   34  C20 UNL     1       8.812  14.268  17.963  1.00  0.00     0.046 C
BRANCH  34  35
HETATM   35  C21 UNL     1       7.413  14.432  18.517  1.00  0.00     0.165 C
BRANCH  35  36
HETATM   36  O4  UNL     1       7.395  15.543  19.370  1.00  0.00    -0.401 OA
ATOM     37  H4  UNL     1       6.492  15.793  19.526  1.00  0.00     0.209 HD
ENDBRANCH  35  36
ENDBRANCH  34  35
ENDBRANCH  33  34
ENDBRANCH  28  33
BRANCH  29  38
HETATM   38  C22 UNL     1      10.414  19.174  15.713  1.00  0.00     0.176 C
BRANCH  38  39
HETATM   39  C23 UNL     1      11.643  19.664  15.049  1.00  0.00    -0.037 A
HETATM   40  C24 UNL     1      12.061  19.210  13.828  1.00  0.00     0.012 A
HETATM   41  C25 UNL     1      13.204  19.692  13.249  1.00  0.00     0.040 A
HETATM   42  C26 UNL     1      13.995  20.660  13.862  1.00  0.00     0.105 A
HETATM   43  C27 UNL     1      13.577  21.121  15.095  1.00  0.00     0.105 A
HETATM   44  O6  UNL     1      15.179  21.317  13.516  1.00  0.00    -0.323 OA
HETATM   45  C28 UNL     1      12.422  20.628  15.670  1.00  0.00     0.048 A
HETATM   46  O5  UNL     1      14.537  22.064  15.470  1.00  0.00    -0.323 OA
HETATM   47  C29 UNL     1      15.722  21.739  14.773  1.00  0.00     0.352 C
ENDBRANCH  38  39
ENDBRANCH  29  38
ENDBRANCH  25  26
ENDBRANCH   1  25
TORSDOF 15
ENDMDL