MODEL 4
REMARK VINA RESULT: -8.512883068      4.927     10.615
REMARK  14 active torsions:
REMARK  status: ('A' for Active; 'I' for Inactive)
REMARK    1  A    between atoms: C2_2  and  C3_3
REMARK    2  A    between atoms: C3_3  and  C4_4
REMARK    3  A    between atoms: C4_4  and  C5_5
REMARK    4  A    between atoms: C5_5  and  O2_7
REMARK    5  A    between atoms: O2_7  and  C6_8
REMARK    6  A    between atoms: C6_8  and  C7_9
REMARK    7  A    between atoms: C6_8  and  C9_14
REMARK    8  A    between atoms: C7_9  and  N1_10
REMARK    9  A    between atoms: N2_17  and  C11_18
REMARK   10  A    between atoms: C11_18  and  C12_19
REMARK   11  A    between atoms: C12_19  and  C13_20
REMARK   12  A    between atoms: C13_20  and  N3_21
REMARK       I    between atoms: C14_23  and  N5_25
REMARK   13  A    between atoms: N5_25  and  C15_27
REMARK   14  A    between atoms: C18_32  and  C19_33
ROOT
HETATM    1  C9  UNL     1      17.176  23.733  17.003  1.00  0.00     0.133 C
HETATM    2  C10 UNL     1      17.612  24.850  16.156  1.00  0.00     0.240 C
HETATM    3  O3  UNL     1      16.784  25.609  15.564  1.00  0.00    -0.272 OA
HETATM    4  N2  UNL     1      19.012  25.147  15.952  1.00  0.00    -0.248 N
HETATM    5  C21 UNL     1      19.800  24.946  17.125  1.00  0.00     0.331 C
HETATM    6  O5  UNL     1      21.033  25.139  17.189  1.00  0.00    -0.246 OA
HETATM    7  N7  UNL     1      19.095  24.498  18.273  1.00  0.00    -0.328 N
HETATM    8  C22 UNL     1      19.584  25.184  19.494  1.00  0.00     0.128 C
HETATM    9  C23 UNL     1      20.194  24.190  20.445  1.00  0.00     0.020 C
HETATM   10  C24 UNL     1      19.077  23.632  21.301  1.00  0.00     0.002 C
HETATM   11  C25 UNL     1      18.323  22.642  20.403  1.00  0.00     0.002 C
HETATM   12  C26 UNL     1      17.383  23.384  19.475  1.00  0.00     0.026 C
HETATM   13  C27 UNL     1      18.082  23.495  18.131  1.00  0.00     0.104 C
ENDROOT
BRANCH   4  14
HETATM   14  C11 UNL     1      19.585  25.594  14.746  1.00  0.00     0.083 C
BRANCH  14  15
HETATM   15  C12 UNL     1      19.735  27.106  14.639  1.00  0.00     0.089 C
BRANCH  15  16
HETATM   16  C13 UNL     1      21.167  27.348  14.222  1.00  0.00     0.068 C
BRANCH  16  17
HETATM   17  N3  UNL     1      22.160  26.755  15.029  1.00  0.00    -0.344 N
HETATM   18  C14 UNL     1      23.017  27.223  15.830  1.00  0.00     0.193 C
HETATM   19  N4  UNL     1      23.151  28.602  16.095  1.00  0.00    -0.063 NA
HETATM   20  N5  UNL     1      23.930  26.361  16.522  1.00  0.00    -0.311 N
ATOM     21  H5  UNL     1      24.563  25.732  16.027  1.00  0.00     0.170 HD
ATOM     22  H3  UNL     1      22.192  25.739  14.950  1.00  0.00     0.167 HD
BRANCH  20  23
HETATM   23  C15 UNL     1      23.901  26.432  17.836  1.00  0.00     0.152 A
HETATM   24  N6  UNL     1      22.940  26.982  18.576  1.00  0.00    -0.339 N
HETATM   25  C16 UNL     1      23.054  26.973  19.878  1.00  0.00     0.028 A
ATOM     26  H6  UNL     1      22.124  27.405  18.131  1.00  0.00     0.168 HD
HETATM   27  C17 UNL     1      21.981  27.589  20.768  1.00  0.00     0.070 C
HETATM   28  C18 UNL     1      24.155  26.401  20.427  1.00  0.00     0.076 A
HETATM   29  S1  UNL     1      25.009  25.881  18.996  1.00  0.00    -0.048 SA
BRANCH  28  30
HETATM   30  C19 UNL     1      24.623  26.205  21.806  1.00  0.00     0.164 C
HETATM   31  C20 UNL     1      23.979  25.356  22.782  1.00  0.00     0.097 C
HETATM   32  O4  UNL     1      25.683  26.828  22.187  1.00  0.00    -0.292 OA
ENDBRANCH  28  30
ENDBRANCH  20  23
ENDBRANCH  16  17
ENDBRANCH  15  16
ENDBRANCH  14  15
ENDBRANCH   4  14
BRANCH   1  33
HETATM   33  C6  UNL     1      16.956  22.524  16.117  1.00  0.00     0.172 C
BRANCH  33  34
HETATM   34  O2  UNL     1      16.216  21.518  16.782  1.00  0.00    -0.313 OA
BRANCH  34  35
HETATM   35  C5  UNL     1      16.835  20.468  17.476  1.00  0.00     0.259 C
HETATM   36  O1  UNL     1      17.991  20.201  17.089  1.00  0.00    -0.265 OA
BRANCH  35  37
HETATM   37  C4  UNL     1      16.175  19.753  18.558  1.00  0.00     0.111 C
BRANCH  37  38
HETATM   38  C3  UNL     1      14.912  19.105  18.129  1.00  0.00     0.009 C
BRANCH  38  39
HETATM   39  C2  UNL     1      14.665  17.799  18.820  1.00  0.00    -0.004 C
HETATM   40  C1  UNL     1      13.967  18.060  20.148  1.00  0.00     0.005 C
ENDBRANCH  38  39
ENDBRANCH  37  38
ENDBRANCH  35  37
ENDBRANCH  34  35
ENDBRANCH  33  34
BRANCH  33  41
HETATM   41  C7  UNL     1      16.177  22.868  14.868  1.00  0.00     0.265 C
BRANCH  41  42
HETATM   42  N1  UNL     1      14.825  22.374  14.868  1.00  0.00    -0.077 N
HETATM   43  C8  UNL     1      13.823  23.364  15.163  1.00  0.00     0.267 C
ATOM     44  H12 UNL     1      14.617  21.912  13.982  1.00  0.00     0.276 HD
ATOM     45  H11 UNL     1      14.738  21.581  15.504  1.00  0.00     0.276 HD
ENDBRANCH  41  42
ENDBRANCH  33  41
ENDBRANCH   1  33
TORSDOF 14
ENDMDL