MODEL 5
REMARK VINA RESULT: -8.194294379      4.415     11.465
REMARK  13 active torsions:
REMARK  status: ('A' for Active; 'I' for Inactive)
REMARK    1  A    between atoms: N2_9  and  C6_10
REMARK    2  A    between atoms: C6_10  and  C7_11
REMARK    3  A    between atoms: C7_11  and  O1_12
REMARK    4  A    between atoms: O1_12  and  N3_13
REMARK    5  A    between atoms: N5_18  and  S1_19
REMARK    6  A    between atoms: S1_19  and  C9_21
REMARK    7  A    between atoms: C9_21  and  C10_22
REMARK    8  A    between atoms: C20_32  and  C21_33
REMARK    9  A    between atoms: C22_34  and  C23_35
REMARK   10  A    between atoms: C22_34  and  C26_40
REMARK   11  A    between atoms: C23_35  and  C24_36
REMARK   12  A    between atoms: C24_36  and  C25_37
REMARK   13  A    between atoms: C25_37  and  O3_38
ROOT
HETATM    1  N3  UNL     1      15.263  21.407  15.329  1.00  0.00    -0.077 N
HETATM    2  C8  UNL     1      14.332  20.857  14.412  1.00  0.00     0.708 C
HETATM    3  N4  UNL     1      14.567  20.718  13.170  1.00  0.00    -0.232 N
ATOM      4  H41 UNL     1      13.897  20.322  12.511  1.00  0.00     0.174 HD
ATOM      5  H42 UNL     1      15.422  20.974  12.676  1.00  0.00     0.174 HD
HETATM    6  N5  UNL     1      13.141  20.500  15.101  1.00  0.00    -0.126 N
HETATM    7  C19 UNL     1      13.590  20.330  16.484  1.00  0.00     0.190 C
HETATM    8  C20 UNL     1      14.501  21.520  16.613  1.00  0.00     0.176 C
ENDROOT
BRANCH   8   9
HETATM    9  C21 UNL     1      15.418  21.445  17.740  1.00  0.00     0.011 C
HETATM   10  C22 UNL     1      15.563  20.681  18.763  1.00  0.00    -0.048 C
BRANCH  10  11
HETATM   11  C23 UNL     1      16.720  21.048  19.680  1.00  0.00     0.041 C
BRANCH  11  12
HETATM   12  C24 UNL     1      18.005  21.212  18.950  1.00  0.00     0.030 C
BRANCH  12  13
HETATM   13  C25 UNL     1      19.089  21.596  19.969  1.00  0.00     0.164 C
BRANCH  13  14
HETATM   14  O3  UNL     1      18.724  21.042  21.202  1.00  0.00    -0.401 OA
ATOM     15  H3  UNL     1      19.413  21.247  21.823  1.00  0.00     0.209 HD
ENDBRANCH  13  14
ENDBRANCH  12  13
ENDBRANCH  11  12
ENDBRANCH  10  11
BRANCH  10  16
HETATM   16  C26 UNL     1      14.815  19.504  19.096  1.00  0.00    -0.015 A
HETATM   17  C27 UNL     1      14.955  18.251  18.576  1.00  0.00     0.014 A
HETATM   18  C28 UNL     1      14.108  17.230  18.950  1.00  0.00     0.018 A
HETATM   19  C29 UNL     1      13.085  17.406  19.855  1.00  0.00     0.087 A
HETATM   20  N6  UNL     1      12.948  18.631  20.365  1.00  0.00    -0.374 N
HETATM   21  C30 UNL     1      13.748  19.632  20.024  1.00  0.00     0.099 A
ATOM     22  H6  UNL     1      12.203  18.804  21.039  1.00  0.00     0.164 HD
ENDBRANCH  10  16
ENDBRANCH   8   9
BRANCH   1  23
HETATM   23  O1  UNL     1      16.521  21.791  15.265  1.00  0.00    -0.262 OA
BRANCH  23  24
HETATM   24  C7  UNL     1      16.796  23.039  14.788  1.00  0.00     0.232 C
BRANCH  24  25
HETATM   25  C6  UNL     1      17.154  24.008  15.908  1.00  0.00     0.301 C
BRANCH  25  26
HETATM   26  N2  UNL     1      18.469  24.523  15.637  1.00  0.00     0.098 N
HETATM   27  C2  UNL     1      18.545  25.949  15.584  1.00  0.00     0.244 C
HETATM   28  C1  UNL     1      18.845  26.327  14.133  1.00  0.00     0.045 C
HETATM   29  C3  UNL     1      19.714  26.418  16.397  1.00  0.00     0.267 C
HETATM   30  N1  UNL     1      19.613  26.007  17.786  1.00  0.00    -0.071 N
HETATM   31  C4  UNL     1      19.402  24.575  17.897  1.00  0.00     0.262 C
ATOM     32  H12 UNL     1      20.424  26.309  18.326  1.00  0.00     0.277 HD
ATOM     33  H11 UNL     1      18.892  26.532  18.280  1.00  0.00     0.277 HD
HETATM   34  C5  UNL     1      19.453  23.932  16.531  1.00  0.00     0.300 C
ENDBRANCH  25  26
ENDBRANCH  24  25
ENDBRANCH  23  24
ENDBRANCH   1  23
BRANCH   6  35
HETATM   35  S1  UNL     1      11.495  20.306  14.477  1.00  0.00     0.131 S
HETATM   36  O2  UNL     1      11.017  21.753  14.235  1.00  0.00    -0.235 OA
BRANCH  35  37
HETATM   37  C9  UNL     1      11.504  19.433  12.952  1.00  0.00     0.143 C
BRANCH  37  38
HETATM   38  C10 UNL     1      10.840  18.154  12.819  1.00  0.00    -0.021 C
HETATM   39  C11 UNL     1       9.356  18.206  12.515  1.00  0.00     0.011 C
HETATM   40  C12 UNL     1       9.011  16.743  12.196  1.00  0.00     0.006 C
HETATM   41  C13 UNL     1      10.310  15.999  12.352  1.00  0.00    -0.006 C
HETATM   42  C14 UNL     1      10.658  15.940  13.791  1.00  0.00     0.006 C
HETATM   43  C16 UNL     1      11.297  17.109  11.885  1.00  0.00    -0.036 C
HETATM   44  C15 UNL     1      10.899  17.377  14.172  1.00  0.00     0.011 C
HETATM   45  C17 UNL     1      10.982  17.303  10.429  1.00  0.00     0.016 C
HETATM   46  C18 UNL     1      12.718  16.657  12.061  1.00  0.00     0.016 C
ENDBRANCH  37  38
ENDBRANCH  35  37
ENDBRANCH   6  35
TORSDOF 13
ENDMDL