MODEL 3
REMARK VINA RESULT: -8.365401504      4.493     10.791
REMARK  14 active torsions:
REMARK  status: ('A' for Active; 'I' for Inactive)
REMARK    1  A    between atoms: C2_2  and  O1_3
REMARK    2  A    between atoms: O1_3  and  C3_4
REMARK       I    between atoms: C3_4  and  N1_6
REMARK    3  A    between atoms: C6_9  and  C7_10
REMARK       I    between atoms: C7_10  and  N2_12
REMARK    4  A    between atoms: N3_15  and  C10_16
REMARK    5  A    between atoms: C11_19  and  C12_20
REMARK    6  A    between atoms: C12_20  and  N5_22
REMARK    7  A    between atoms: N5_22  and  C13_24
REMARK    8  A    between atoms: C13_24  and  C14_25
REMARK    9  A    between atoms: C13_24  and  C20_34
REMARK   10  A    between atoms: C14_25  and  C15_26
REMARK   11  A    between atoms: C15_26  and  C16_27
REMARK   12  A    between atoms: C16_27  and  C17_28
REMARK   13  A    between atoms: C17_28  and  C18_29
REMARK   14  A    between atoms: C18_29  and  N6_30
ROOT
HETATM    1  C10 UNL     1      20.951  26.151  16.607  1.00  0.00     0.117 A
HETATM    2  N4  UNL     1      21.719  25.785  17.588  1.00  0.00    -0.334 N
ATOM      3  H4  UNL     1      21.543  24.896  18.057  1.00  0.00     0.168 HD
HETATM    4  C11 UNL     1      22.734  26.551  17.993  1.00  0.00     0.114 A
HETATM    5  S2  UNL     1      22.580  27.852  16.920  1.00  0.00    -0.070 SA
HETATM    6  C21 UNL     1      21.222  27.344  16.009  1.00  0.00     0.025 A
HETATM    7  C22 UNL     1      20.618  28.101  14.880  1.00  0.00     0.060 C
ENDROOT
BRANCH   1   8
HETATM    8  N3  UNL     1      19.829  25.317  16.224  1.00  0.00    -0.363 N
HETATM    9  C9  UNL     1      18.467  25.804  16.487  1.00  0.00     0.144 C
HETATM   10  C8  UNL     1      17.413  24.854  15.967  1.00  0.00     0.145 C
HETATM   11  N2  UNL     1      17.707  23.470  16.191  1.00  0.00    -0.349 N
HETATM   12  C7  UNL     1      16.703  22.490  16.197  1.00  0.00     0.224 C
HETATM   13  C24 UNL     1      19.083  23.072  16.409  1.00  0.00     0.145 C
HETATM   14  O3  UNL     1      17.056  21.272  16.377  1.00  0.00    -0.273 OA
HETATM   15  C23 UNL     1      19.912  24.059  15.562  1.00  0.00     0.144 C
BRANCH  12  16
HETATM   16  C6  UNL     1      15.254  22.697  16.015  1.00  0.00     0.081 C
HETATM   17  C5  UNL     1      14.530  23.193  17.223  1.00  0.00     0.034 C
HETATM   18  C4  UNL     1      14.153  22.101  18.205  1.00  0.00     0.129 C
HETATM   19  N1  UNL     1      14.082  20.811  17.538  1.00  0.00    -0.328 N
HETATM   20  C3  UNL     1      14.429  19.650  18.242  1.00  0.00     0.362 C
HETATM   21  C26 UNL     1      13.655  20.789  16.177  1.00  0.00     0.129 C
HETATM   22  O2  UNL     1      14.385  18.514  17.701  1.00  0.00    -0.238 OA
HETATM   23  C25 UNL     1      14.654  21.525  15.327  1.00  0.00     0.034 C
BRANCH  20  24
HETATM   24  O1  UNL     1      14.831  19.719  19.557  1.00  0.00    -0.304 OA
BRANCH  24  25
HETATM   25  C2  UNL     1      14.402  18.911  20.609  1.00  0.00     0.176 C
HETATM   26  C1  UNL     1      12.918  18.761  20.718  1.00  0.00     0.034 C
ENDBRANCH  24  25
ENDBRANCH  20  24
ENDBRANCH  12  16
ENDBRANCH   1   8
BRANCH   4  27
HETATM   27  C12 UNL     1      23.650  26.206  19.098  1.00  0.00     0.135 C
HETATM   28  S1  UNL     1      25.228  26.746  18.903  1.00  0.00    -0.057 SA
BRANCH  27  29
HETATM   29  N5  UNL     1      23.297  25.496  20.223  1.00  0.00    -0.343 N
ATOM     30  H5  UNL     1      23.717  24.567  20.226  1.00  0.00     0.167 HD
BRANCH  29  31
HETATM   31  C13 UNL     1      22.506  25.712  21.379  1.00  0.00     0.087 C
BRANCH  31  32
HETATM   32  C14 UNL     1      21.028  25.918  21.155  1.00  0.00     0.064 C
BRANCH  32  33
HETATM   33  C15 UNL     1      20.325  24.644  20.794  1.00  0.00     0.006 C
BRANCH  33  34
HETATM   34  C16 UNL     1      18.874  24.521  20.920  1.00  0.00     0.002 C
BRANCH  34  35
HETATM   35  C17 UNL     1      18.084  23.895  19.848  1.00  0.00     0.027 C
BRANCH  35  36
HETATM   36  C18 UNL     1      17.203  22.749  20.078  1.00  0.00     0.231 C
BRANCH  36  37
HETATM   37  N6  UNL     1      17.559  21.509  19.442  1.00  0.00    -0.079 N
HETATM   38  C19 UNL     1      18.939  21.210  19.658  1.00  0.00     0.266 C
ATOM     39  H62 UNL     1      16.955  20.744  19.741  1.00  0.00     0.276 HD
ATOM     40  H61 UNL     1      17.322  21.511  18.450  1.00  0.00     0.276 HD
ENDBRANCH  36  37
ENDBRANCH  35  36
ENDBRANCH  34  35
ENDBRANCH  33  34
ENDBRANCH  32  33
ENDBRANCH  31  32
BRANCH  31  41
HETATM   41  C20 UNL     1      23.127  26.557  22.404  1.00  0.00     0.222 C
HETATM   42  O4  UNL     1      24.383  26.597  22.541  1.00  0.00    -0.643 OA
HETATM   43  O5  UNL     1      22.412  27.357  23.282  1.00  0.00    -0.643 OA
ENDBRANCH  31  41
ENDBRANCH  29  31
ENDBRANCH  27  29
ENDBRANCH   4  27
TORSDOF 14
ENDMDL