MODEL 1
REMARK VINA RESULT: -9.538938884      0.000      0.000
REMARK  13 active torsions:
REMARK  status: ('A' for Active; 'I' for Inactive)
REMARK    1  A    between atoms: C3_3  and  C4_4
REMARK    2  A    between atoms: N4_11  and  C5_12
REMARK    3  A    between atoms: C5_12  and  C6_13
REMARK    4  A    between atoms: C6_13  and  C7_14
REMARK    5  A    between atoms: C7_14  and  C8_15
REMARK    6  A    between atoms: C8_15  and  C9_16
REMARK    7  A    between atoms: C9_16  and  C10_17
REMARK    8  A    between atoms: C10_17  and  C11_18
REMARK    9  A    between atoms: C11_18  and  C12_19
REMARK   10  A    between atoms: C12_19  and  C13_20
REMARK       I    between atoms: N7_26  and  C15_28
REMARK   11  A    between atoms: C15_28  and  C16_30
REMARK   12  A    between atoms: C24_38  and  C25_39
REMARK       I    between atoms: C25_39  and  N8_41
REMARK   13  A    between atoms: N8_41  and  C26_43
ROOT
HETATM    1  C13 UNL     1      15.220  19.955  18.369  1.00  0.00     0.069 A
HETATM    2  N5  UNL     1      15.004  20.997  17.557  1.00  0.00    -0.296 N
ATOM      3  H5  UNL     1      14.394  20.892  16.746  1.00  0.00     0.187 HD
HETATM    4  N6  UNL     1      15.553  22.104  17.791  1.00  0.00    -0.279 N
ATOM      5  H6  UNL     1      15.389  22.898  17.172  1.00  0.00     0.189 HD
HETATM    6  C14 UNL     1      16.350  22.236  18.854  1.00  0.00     0.168 A
HETATM    7  N7  UNL     1      17.001  23.310  19.244  1.00  0.00    -0.302 N
ATOM      8  H7  UNL     1      17.581  23.280  20.083  1.00  0.00     0.171 HD
HETATM    9  C15 UNL     1      16.895  24.503  18.498  1.00  0.00     0.257 C
HETATM   10  O2  UNL     1      15.811  25.172  18.500  1.00  0.00    -0.267 OA
HETATM   11  S1  UNL     1      16.275  20.667  19.514  1.00  0.00    -0.038 SA
ENDROOT
BRANCH   9  12
HETATM   12  C16 UNL     1      18.042  24.960  17.726  1.00  0.00     0.033 A
HETATM   13  C17 UNL     1      19.320  24.970  18.245  1.00  0.00     0.017 A
HETATM   14  C18 UNL     1      20.394  25.409  17.488  1.00  0.00     0.009 A
HETATM   15  C19 UNL     1      20.164  25.839  16.199  1.00  0.00    -0.039 A
HETATM   16  C20 UNL     1      18.891  25.829  15.685  1.00  0.00    -0.050 A
HETATM   17  C24 UNL     1      21.059  26.360  15.133  1.00  0.00     0.111 C
HETATM   18  C21 UNL     1      17.834  25.391  16.441  1.00  0.00     0.024 A
HETATM   19  C22 UNL     1      18.907  26.351  14.265  1.00  0.00     0.040 C
HETATM   20  C23 UNL     1      20.114  27.298  14.381  1.00  0.00     0.023 C
BRANCH  17  21
HETATM   21  C25 UNL     1      22.260  27.034  15.594  1.00  0.00     0.226 C
HETATM   22  O3  UNL     1      22.203  28.284  15.776  1.00  0.00    -0.273 OA
HETATM   23  N8  UNL     1      23.490  26.403  15.852  1.00  0.00    -0.352 N
ATOM     24  H8  UNL     1      23.561  25.396  15.708  1.00  0.00     0.163 HD
BRANCH  23  25
HETATM   25  C26 UNL     1      24.666  27.123  16.315  1.00  0.00     0.022 C
HETATM   26  C27 UNL     1      25.827  26.159  16.219  1.00  0.00     0.037 C
HETATM   27  C28 UNL     1      24.978  28.319  15.444  1.00  0.00     0.037 C
HETATM   28  C29 UNL     1      24.534  27.518  17.769  1.00  0.00     0.037 C
ENDBRANCH  23  25
ENDBRANCH  17  21
ENDBRANCH   9  12
BRANCH   1  29
HETATM   29  C12 UNL     1      14.698  18.590  18.149  1.00  0.00     0.066 C
BRANCH  29  30
HETATM   30  C11 UNL     1      14.346  17.776  19.309  1.00  0.00     0.006 C
BRANCH  30  31
HETATM   31  C10 UNL     1      12.953  17.414  19.609  1.00  0.00     0.000 C
BRANCH  31  32
HETATM   32  C9  UNL     1      11.945  18.476  19.631  1.00  0.00     0.000 C
BRANCH  32  33
HETATM   33  C8  UNL     1      11.041  18.442  18.380  1.00  0.00     0.000 C
BRANCH  33  34
HETATM   34  C7  UNL     1      11.217  19.617  17.495  1.00  0.00     0.002 C
BRANCH  34  35
HETATM   35  C6  UNL     1      10.561  19.356  16.165  1.00  0.00     0.022 C
BRANCH  35  36
HETATM   36  C5  UNL     1      10.765  20.536  15.252  1.00  0.00     0.150 C
BRANCH  36  37
HETATM   37  N4  UNL     1      12.098  20.442  14.675  1.00  0.00    -0.280 N
HETATM   38  C2  UNL     1      13.032  21.406  14.669  1.00  0.00     0.059 A
HETATM   39  C1  UNL     1      12.876  22.760  15.256  1.00  0.00     0.072 C
HETATM   40  C3  UNL     1      14.118  20.891  14.028  1.00  0.00     0.138 A
HETATM   41  N2  UNL     1      13.805  19.634  13.668  1.00  0.00    -0.280 N
HETATM   42  N3  UNL     1      12.571  19.372  14.069  1.00  0.00    -0.240 N
ATOM     43  H2  UNL     1      14.418  18.989  13.169  1.00  0.00     0.189 HD
ATOM     44  H3  UNL     1      12.072  18.492  13.932  1.00  0.00     0.208 HD
BRANCH  40  45
HETATM   45  C4  UNL     1      15.371  21.553  13.775  1.00  0.00     0.284 C
HETATM   46  N1  UNL     1      16.259  21.865  14.839  1.00  0.00    -0.056 NA
HETATM   47  O1  UNL     1      15.717  21.877  12.599  1.00  0.00    -0.269 OA
ENDBRANCH  40  45
ENDBRANCH  36  37
ENDBRANCH  35  36
ENDBRANCH  34  35
ENDBRANCH  33  34
ENDBRANCH  32  33
ENDBRANCH  31  32
ENDBRANCH  30  31
ENDBRANCH  29  30
ENDBRANCH   1  29
TORSDOF 13
ENDMDL