MODEL 5
REMARK VINA RESULT: -6.652256106      3.200      5.506
REMARK  8 active torsions:
REMARK  status: ('A' for Active; 'I' for Inactive)
REMARK    1  A    between atoms: O1_1  and  C1_3
REMARK    2  A    between atoms: C1_3  and  C2_4
REMARK    3  A    between atoms: C2_4  and  C3_5
REMARK    4  A    between atoms: C5_7  and  O2_8
REMARK    5  A    between atoms: O2_8  and  C6_9
REMARK    6  A    between atoms: C14_21  and  O4_22
REMARK    7  A    between atoms: C15_24  and  O5_25
REMARK    8  A    between atoms: C16_27  and  O6_28
ROOT
HETATM    1  C3  UNL     1      -4.292  -0.453  11.470  1.00  0.00     0.021 C
HETATM    2  C4  UNL     1      -4.027   0.038  12.892  1.00  0.00     0.042 C
HETATM    3  C5  UNL     1      -4.009   1.544  12.908  1.00  0.00     0.161 C
HETATM    4  C14 UNL     1      -3.062   2.099  11.903  1.00  0.00     0.178 C
HETATM    5  C15 UNL     1      -3.360   1.580  10.501  1.00  0.00     0.178 C
HETATM    6  C16 UNL     1      -3.169   0.081  10.574  1.00  0.00     0.153 C
ENDROOT
BRANCH   3   7
HETATM    7  O2  UNL     1      -3.913   2.180  14.120  1.00  0.00    -0.340 OA
BRANCH   7   8
HETATM    8  C6  UNL     1      -4.937   2.683  14.878  1.00  0.00     0.107 A
HETATM    9  C7  UNL     1      -5.396   3.962  14.648  1.00  0.00     0.090 A
HETATM   10 CL1  UNL     1      -4.752   5.032  13.413  1.00  0.00    -0.080 Cl
HETATM   11  C8  UNL     1      -6.441   4.508  15.402  1.00  0.00     0.061 A
HETATM   12 CL2  UNL     1      -7.035   6.129  15.122  1.00  0.00    -0.082 Cl
HETATM   13  C9  UNL     1      -7.025   3.763  16.391  1.00  0.00     0.064 A
HETATM   14  C10 UNL     1      -6.571   2.484  16.631  1.00  0.00     0.091 A
HETATM   15  O3  UNL     1      -6.970   1.600  17.529  1.00  0.00    -0.320 OA
HETATM   16  C13 UNL     1      -5.523   1.941  15.872  1.00  0.00     0.057 A
HETATM   17  C11 UNL     1      -6.277   0.516  17.444  1.00  0.00     0.167 A
HETATM   18  C12 UNL     1      -5.362   0.692  16.424  1.00  0.00     0.072 A
HETATM   19 CL3  UNL     1      -4.147  -0.491  16.020  1.00  0.00    -0.081 Cl
ENDBRANCH   7   8
ENDBRANCH   3   7
BRANCH   4  20
HETATM   20  O4  UNL     1      -2.983   3.470  11.947  1.00  0.00    -0.390 OA
ATOM     21  H4  UNL     1      -2.174   3.780  12.339  1.00  0.00     0.210 HD
ENDBRANCH   4  20
BRANCH   1  22
HETATM   22  C2  UNL     1      -4.350  -1.932  11.395  1.00  0.00     0.033 C
BRANCH  22  23
HETATM   23  C1  UNL     1      -3.003  -2.551  11.617  1.00  0.00     0.164 C
BRANCH  23  24
HETATM   24  O1  UNL     1      -3.140  -3.936  11.414  1.00  0.00    -0.401 OA
ATOM     25  H1  UNL     1      -4.020  -4.175  11.678  1.00  0.00     0.209 HD
ENDBRANCH  23  24
ENDBRANCH  22  23
ENDBRANCH   1  22
BRANCH   5  26
HETATM   26  O5  UNL     1      -2.427   2.176   9.657  1.00  0.00    -0.390 OA
ATOM     27  H5  UNL     1      -1.746   1.531   9.514  1.00  0.00     0.210 HD
ENDBRANCH   5  26
BRANCH   6  28
HETATM   28  O6  UNL     1      -3.190  -0.528   9.336  1.00  0.00    -0.393 OA
ATOM     29  H6  UNL     1      -3.872  -0.160   8.786  1.00  0.00     0.210 HD
ENDBRANCH   6  28
TORSDOF 8
ENDMDL