MODEL 2
REMARK VINA RESULT: -7.429615218      2.145      3.806
REMARK  6 active torsions:
REMARK  status: ('A' for Active; 'I' for Inactive)
REMARK    1  A    between atoms: C2_2  and  C3_3
REMARK    2  A    between atoms: C5_6  and  O1_7
REMARK    3  A    between atoms: C8_11  and  N1_12
REMARK    4  A    between atoms: C11_19  and  N4_20
REMARK    5  A    between atoms: C14_28  and  O3_29
REMARK    6  A    between atoms: C14_28  and  C15_31
ROOT
HETATM    1  N1  UNL     1      -3.323   3.845  11.016  1.00  0.00    -0.284 N
HETATM    2  C9  UNL     1      -1.912   4.002  10.773  1.00  0.00     0.143 A
HETATM    3  N2  UNL     1      -0.970   3.542  11.612  1.00  0.00    -0.336 N
ATOM      4  H2  UNL     1      -1.267   3.067  12.465  1.00  0.00     0.168 HD
HETATM    5  C10 UNL     1       0.347   3.677  11.379  1.00  0.00     0.183 A
HETATM    6  N3  UNL     1       0.776   4.285  10.288  1.00  0.00    -0.337 N
ATOM      7  H3  UNL     1       1.777   4.385  10.117  1.00  0.00     0.168 HD
HETATM    8  C11 UNL     1      -0.110   4.771   9.404  1.00  0.00     0.131 A
HETATM    9  C12 UNL     1      -1.458   4.642   9.625  1.00  0.00     0.124 A
HETATM   10  N5  UNL     1      -2.468   5.141   8.736  1.00  0.00    -0.317 N
ATOM     11  H5  UNL     1      -2.169   5.616   7.884  1.00  0.00     0.169 HD
HETATM   12  C13 UNL     1      -3.863   5.010   8.981  1.00  0.00     0.279 C
HETATM   13  O2  UNL     1      -4.665   5.171   8.033  1.00  0.00    -0.268 OA
HETATM   14  C14 UNL     1      -4.295   4.684  10.370  1.00  0.00     0.227 C
ENDROOT
BRANCH   1  15
HETATM   15  C8  UNL     1      -3.686   2.806  11.897  1.00  0.00     0.120 A
HETATM   16  C7  UNL     1      -3.956   3.045  13.216  1.00  0.00     0.182 A
HETATM   17  C5  UNL     1      -4.327   1.985  14.056  1.00  0.00     0.148 A
HETATM   18  F2  UNL     1      -3.888   4.246  13.825  1.00  0.00    -0.200 F
HETATM   19  C4  UNL     1      -4.426   0.695  13.579  1.00  0.00     0.162 A
HETATM   20  C3  UNL     1      -4.150   0.440  12.225  1.00  0.00     0.024 A
HETATM   21  F1  UNL     1      -4.789  -0.318  14.417  1.00  0.00    -0.202 F
HETATM   22  C19 UNL     1      -3.788   1.492  11.416  1.00  0.00     0.155 A
HETATM   23  F3  UNL     1      -3.531   1.205  10.121  1.00  0.00    -0.203 F
BRANCH  17  24
HETATM   24  O1  UNL     1      -4.609   2.198  15.409  1.00  0.00    -0.350 OA
HETATM   25  C6  UNL     1      -5.910   2.493  15.874  1.00  0.00     0.210 C
ENDBRANCH  17  24
BRANCH  20  26
HETATM   26  C2  UNL     1      -4.281  -0.945  11.816  1.00  0.00     0.040 C
HETATM   27  C1  UNL     1      -3.069  -1.711  11.480  1.00  0.00     0.010 C
ENDBRANCH  20  26
ENDBRANCH   1  15
BRANCH  14  28
HETATM   28  O3  UNL     1      -5.461   3.891  10.197  1.00  0.00    -0.362 OA
ATOM     29  H3  UNL     1      -6.170   4.493  10.005  1.00  0.00     0.213 HD
ENDBRANCH  14  28
BRANCH  14  30
HETATM   30  C15 UNL     1      -4.706   5.861  11.152  1.00  0.00     0.052 C
HETATM   31  C16 UNL     1      -3.746   6.928  11.520  1.00  0.00     0.010 C
HETATM   32  C17 UNL     1      -4.835   7.985  11.275  1.00  0.00     0.001 C
HETATM   33  C18 UNL     1      -5.536   6.900  10.434  1.00  0.00     0.010 C
ENDBRANCH  14  30
BRANCH   8  34
HETATM   34  N4  UNL     1       0.326   5.350   8.365  1.00  0.00    -0.383 N
ATOM     35  H42 UNL     1       0.690   4.811   7.579  1.00  0.00     0.157 HD
ATOM     36  H41 UNL     1       0.305   6.370   8.329  1.00  0.00     0.157 HD
ENDBRANCH   8  34
TORSDOF 6
ENDMDL