MODEL 1
REMARK VINA RESULT: -6.228517126      0.000      0.000
REMARK  8 active torsions:
REMARK  status: ('A' for Active; 'I' for Inactive)
REMARK    1  A    between atoms: N1_1  and  C1_5
REMARK    2  A    between atoms: N2_8  and  C4_9
REMARK    3  A    between atoms: C6_12  and  O1_13
REMARK    4  A    between atoms: C7_15  and  C8_16
REMARK    5  A    between atoms: C11_19  and  C12_20
REMARK    6  A    between atoms: C12_20  and  N3_21
REMARK    7  A    between atoms: C12_20  and  C13_25
REMARK    8  A    between atoms: C16_31  and  O2_32
ROOT
HETATM    1  C4  UNL     1      -2.807   2.840  11.500  1.00  0.00     0.077 A
HETATM    2  C5  UNL     1      -3.311   1.553  11.553  1.00  0.00     0.096 A
HETATM    3 CL1  UNL     1      -3.095   0.431  10.218  1.00  0.00    -0.079 Cl
HETATM    4  C6  UNL     1      -4.018   1.175  12.664  1.00  0.00     0.097 A
HETATM    5  C7  UNL     1      -4.236   2.064  13.738  1.00  0.00    -0.009 A
HETATM    6  C11 UNL     1      -3.755   3.357  13.698  1.00  0.00     0.008 A
HETATM    7  C14 UNL     1      -3.047   3.715  12.571  1.00  0.00     0.071 A
HETATM    8 CL4  UNL     1      -2.422   5.333  12.451  1.00  0.00    -0.081 Cl
ENDROOT
BRANCH   1   9
HETATM    9  N2  UNL     1      -1.808   3.144  10.543  1.00  0.00    -0.376 N
HETATM   10  C3  UNL     1      -0.449   2.761  10.638  1.00  0.00     0.125 C
HETATM   11  C2  UNL     1       0.495   3.882  10.185  1.00  0.00     0.055 C
HETATM   12  C1  UNL     1      -0.018   4.665   9.003  1.00  0.00     0.215 C
HETATM   13  C16 UNL     1      -1.127   3.801   8.366  1.00  0.00     0.166 C
HETATM   14  C15 UNL     1      -2.266   3.887   9.341  1.00  0.00     0.157 C
BRANCH  12  15
HETATM   15  N1  UNL     1      -0.668   5.889   9.376  1.00  0.00    -0.072 N
ATOM     16  H13 UNL     1      -1.274   5.746  10.183  1.00  0.00     0.274 HD
ATOM     17  H12 UNL     1      -0.001   6.545   9.781  1.00  0.00     0.274 HD
ATOM     18  H11 UNL     1      -1.183   6.321   8.608  1.00  0.00     0.274 HD
ENDBRANCH  12  15
BRANCH  13  19
HETATM   19  O2  UNL     1      -1.545   4.370   7.178  1.00  0.00    -0.392 OA
ATOM     20  H2  UNL     1      -2.469   4.195   7.042  1.00  0.00     0.210 HD
ENDBRANCH  13  19
ENDBRANCH   1   9
BRANCH   4  21
HETATM   21  O1  UNL     1      -4.527  -0.127  12.718  1.00  0.00    -0.358 OA
ATOM     22  H1  UNL     1      -4.141  -0.737  13.335  1.00  0.00     0.217 HD
ENDBRANCH   4  21
BRANCH   6  23
HETATM   23  C12 UNL     1      -3.906   4.266  14.826  1.00  0.00     0.251 C
BRANCH  23  24
HETATM   24  N3  UNL     1      -2.514   4.823  15.091  1.00  0.00    -0.068 N
ATOM     25  H33 UNL     1      -2.365   5.110  16.058  1.00  0.00     0.275 HD
ATOM     26  H32 UNL     1      -1.778   4.117  15.059  1.00  0.00     0.275 HD
ATOM     27  H31 UNL     1      -2.387   5.576  14.415  1.00  0.00     0.275 HD
ENDBRANCH  23  24
BRANCH  23  28
HETATM   28  C13 UNL     1      -4.652   5.564  14.489  1.00  0.00     0.213 C
HETATM   29 CL2  UNL     1      -3.831   6.938  15.207  1.00  0.00    -0.106 Cl
HETATM   30 CL3  UNL     1      -6.302   5.448  15.259  1.00  0.00    -0.106 Cl
ENDBRANCH  23  28
ENDBRANCH   6  23
BRANCH   5  31
HETATM   31  C8  UNL     1      -5.045   1.486  14.817  1.00  0.00     0.022 A
HETATM   32  C9  UNL     1      -4.738   1.908  16.204  1.00  0.00     0.010 A
HETATM   33  C10 UNL     1      -4.486   0.459  15.786  1.00  0.00     0.010 A
ENDBRANCH   5  31
TORSDOF 8
ENDMDL