MODEL 5
REMARK VINA RESULT: -7.817781929      4.803      8.222
REMARK  5 active torsions:
REMARK  status: ('A' for Active; 'I' for Inactive)
REMARK    1  A    between atoms: C4_4  and  C6_6
REMARK    2  A    between atoms: C8_8  and  C9_9
REMARK    3  A    between atoms: C10_12  and  O1_13
REMARK    4  A    between atoms: O1_13  and  C11_14
REMARK    5  A    between atoms: C15_20  and  N2_21
ROOT
HETATM    1  C6  UNL     1      -3.004   3.243  12.919  1.00  0.00     0.012 A
HETATM    2  C7  UNL     1      -1.881   3.335  12.090  1.00  0.00     0.046 A
HETATM    3  C8  UNL     1      -0.961   4.336  12.224  1.00  0.00     0.077 A
HETATM    4  N4  UNL     1      -1.105   5.280  13.168  1.00  0.00    -0.360 N
ATOM      5  H4  UNL     1      -0.416   6.026  13.264  1.00  0.00     0.165 HD
HETATM    6  C16 UNL     1      -2.170   5.225  13.982  1.00  0.00     0.131 A
HETATM    7  C17 UNL     1      -3.127   4.215  13.871  1.00  0.00     0.140 A
HETATM    8  F2  UNL     1      -4.165   4.215  14.727  1.00  0.00    -0.204 F
ENDROOT
BRANCH   3   9
HETATM    9  C9  UNL     1       0.232   4.431  11.341  1.00  0.00     0.136 A
HETATM   10  N1  UNL     1       0.128   4.157  10.050  1.00  0.00    -0.320 N
HETATM   11  C10 UNL     1       1.140   4.205   9.132  1.00  0.00     0.170 A
ATOM     12  H1  UNL     1      -0.793   3.886   9.708  1.00  0.00     0.169 HD
HETATM   13  C14 UNL     1       2.370   4.577   9.635  1.00  0.00     0.128 A
HETATM   14 CL1  UNL     1       3.796   4.706   8.660  1.00  0.00    -0.076 Cl
HETATM   15  C15 UNL     1       2.479   4.863  10.985  1.00  0.00     0.127 A
HETATM   16  N3  UNL     1       1.426   4.793  11.833  1.00  0.00    -0.326 N
ATOM     17  H3  UNL     1       1.538   5.010  12.823  1.00  0.00     0.169 HD
BRANCH  11  18
HETATM   18  O1  UNL     1       0.883   3.901   7.862  1.00  0.00    -0.326 OA
BRANCH  18  19
HETATM   19  C11 UNL     1      -0.107   3.933   6.939  1.00  0.00     0.167 A
HETATM   20  C12 UNL     1      -0.821   5.216   6.595  1.00  0.00     0.075 A
HETATM   21  C13 UNL     1       0.159   4.699   5.615  1.00  0.00     0.202 A
HETATM   22  F1  UNL     1      -0.303   4.176   4.449  1.00  0.00    -0.247 F
ENDBRANCH  18  19
ENDBRANCH  11  18
BRANCH  15  23
HETATM   23  N2  UNL     1       3.634   5.209  11.436  1.00  0.00    -0.384 N
ATOM     24  H22 UNL     1       4.086   4.637  12.150  1.00  0.00     0.157 HD
ATOM     25  H21 UNL     1       4.060   6.054  11.056  1.00  0.00     0.157 HD
ENDBRANCH  15  23
ENDBRANCH   3   9
BRANCH   1  26
HETATM   26  C4  UNL     1      -4.019   2.189  12.794  1.00  0.00     0.062 C
HETATM   27  C3  UNL     1      -3.457   0.951  12.163  1.00  0.00     0.068 C
HETATM   28  C2  UNL     1      -4.405  -0.225  12.292  1.00  0.00     0.130 C
HETATM   29  C1  UNL     1      -3.785  -1.438  11.634  1.00  0.00     0.040 C
HETATM   30  O2  UNL     1      -4.656  -0.516  13.663  1.00  0.00    -0.317 OA
HETATM   31  C18 UNL     1      -4.468   0.510  14.591  1.00  0.00     0.213 C
HETATM   32  N5  UNL     1      -4.494   1.837  14.119  1.00  0.00    -0.343 N
HETATM   33  N6  UNL     1      -4.283   0.166  15.814  1.00  0.00    -0.365 N
ATOM     34  H5  UNL     1      -4.859   2.572  14.726  1.00  0.00     0.164 HD
ATOM     35  H62 UNL     1      -4.145   0.916  16.492  1.00  0.00     0.159 HD
ATOM     36  H61 UNL     1      -4.263  -0.795  16.156  1.00  0.00     0.159 HD
HETATM   37  C5  UNL     1      -5.238   2.707  12.047  1.00  0.00     0.044 C
ENDBRANCH   1  26
TORSDOF 5
ENDMDL