MODEL 3
REMARK VINA RESULT: -6.531081646      3.909      6.027
REMARK  5 active torsions:
REMARK  status: ('A' for Active; 'I' for Inactive)
REMARK    1  A    between atoms: N1_2  and  C2_4
REMARK    2  A    between atoms: N2_6  and  C4_7
REMARK    3  A    between atoms: C5_10  and  N4_11
REMARK    4  A    between atoms: C7_18  and  C8_19
REMARK    5  A    between atoms: C8_19  and  C9_20
ROOT
HETATM    1  C4  UNL     1      -5.099   2.121  14.309  1.00  0.00     0.149 A
HETATM    2  N3  UNL     1      -5.726   1.633  15.386  1.00  0.00    -0.175 N
ATOM      3  H3  UNL     1      -5.702   0.621  15.517  1.00  0.00     0.186 HD
HETATM    4  C5  UNL     1      -6.382   2.350  16.307  1.00  0.00     0.678 A
HETATM    5  N5  UNL     1      -6.405   3.682  16.118  1.00  0.00    -0.183 N
ATOM      6  H5  UNL     1      -6.890   4.275  16.790  1.00  0.00     0.185 HD
HETATM    7  C6  UNL     1      -5.788   4.251  15.040  1.00  0.00     0.122 A
HETATM    8  S1  UNL     1      -5.582   5.839  14.434  1.00  0.00    -0.056 SA
HETATM    9  C7  UNL     1      -4.662   5.469  13.032  1.00  0.00     0.058 A
HETATM   10  N6  UNL     1      -4.566   4.158  13.111  1.00  0.00    -0.348 N
ATOM     11  H6  UNL     1      -4.057   3.644  12.393  1.00  0.00     0.166 HD
HETATM   12  C15 UNL     1      -5.119   3.511  14.104  1.00  0.00     0.112 A
ENDROOT
BRANCH   9  13
HETATM   13  C8  UNL     1      -4.121   6.409  11.982  1.00  0.00     0.105 C
BRANCH  13  14
HETATM   14  C9  UNL     1      -5.267   6.735  11.101  1.00  0.00    -0.027 A
HETATM   15  C10 UNL     1      -6.178   7.716  11.515  1.00  0.00     0.011 A
HETATM   16  C11 UNL     1      -7.262   8.076  10.748  1.00  0.00     0.028 A
HETATM   17  C12 UNL     1      -7.451   7.450   9.541  1.00  0.00     0.074 A
HETATM   18 CL1  UNL     1      -8.840   7.923   8.577  1.00  0.00    -0.081 Cl
HETATM   19  C13 UNL     1      -6.569   6.477   9.105  1.00  0.00     0.160 A
HETATM   20  F1  UNL     1      -6.787   5.888   7.922  1.00  0.00    -0.203 F
HETATM   21  C14 UNL     1      -5.476   6.122   9.889  1.00  0.00     0.081 A
HETATM   22 CL2  UNL     1      -4.376   4.887   9.313  1.00  0.00    -0.080 Cl
ENDBRANCH  13  14
ENDBRANCH   9  13
BRANCH   1  23
HETATM   23  N2  UNL     1      -4.437   1.255  13.396  1.00  0.00    -0.361 N
HETATM   24  C3  UNL     1      -4.300  -0.191  13.278  1.00  0.00     0.151 C
HETATM   25  C2  UNL     1      -3.968   0.004  11.828  1.00  0.00     0.112 C
HETATM   26  C16 UNL     1      -3.630   1.433  12.231  1.00  0.00     0.151 C
BRANCH  25  27
HETATM   27  N1  UNL     1      -2.848  -0.763  11.388  1.00  0.00    -0.418 N
HETATM   28  C1  UNL     1      -3.044  -2.174  11.363  1.00  0.00     0.140 C
ATOM     29  H1  UNL     1      -1.966  -0.331  11.112  1.00  0.00     0.153 HD
ENDBRANCH  25  27
ENDBRANCH   1  23
BRANCH   4  30
HETATM   30  N4  UNL     1      -6.937   1.749  17.291  1.00  0.00    -0.234 N
ATOM     31  H42 UNL     1      -6.709   0.801  17.592  1.00  0.00     0.174 HD
ATOM     32  H41 UNL     1      -7.661   2.230  17.827  1.00  0.00     0.174 HD
ENDBRANCH   4  30
TORSDOF 5
ENDMDL