MODEL 1
REMARK VINA RESULT: -7.495463354      0.000      0.000
REMARK  6 active torsions:
REMARK  status: ('A' for Active; 'I' for Inactive)
REMARK    1  A    between atoms: O1_2  and  C2_3
REMARK    2  A    between atoms: C4_6  and  C5_7
REMARK    3  A    between atoms: C5_7  and  O2_9
REMARK    4  A    between atoms: C8_13  and  C9_14
REMARK    5  A    between atoms: C9_14  and  N1_16
REMARK    6  A    between atoms: C12_21  and  N3_22
ROOT
HETATM    1  N1  UNL     1      -4.370   4.590  10.733  1.00  0.00    -0.366 N
ATOM      2  H1  UNL     1      -4.557   3.732  10.214  1.00  0.00     0.161 HD
HETATM    3  C11 UNL     1      -4.910   5.514  10.141  1.00  0.00     0.141 A
HETATM    4  N2  UNL     1      -5.593   5.189   8.954  1.00  0.00    -0.175 N
ATOM      5  H2  UNL     1      -5.636   4.217   8.648  1.00  0.00     0.186 HD
HETATM    6  C12 UNL     1      -6.179   6.123   8.234  1.00  0.00     0.678 A
HETATM    7  N4  UNL     1      -6.165   7.430   8.589  1.00  0.00    -0.177 N
ATOM      8  H4  UNL     1      -6.634   8.125   8.007  1.00  0.00     0.185 HD
HETATM    9  C13 UNL     1      -5.536   7.800   9.704  1.00  0.00     0.156 A
HETATM   10  N5  UNL     1      -5.506   9.161  10.139  1.00  0.00    -0.080 NA
HETATM   11  C14 UNL     1      -4.900   6.828  10.490  1.00  0.00     0.130 A
HETATM   12  C15 UNL     1      -4.209   7.320  11.684  1.00  0.00     0.107 C
HETATM   13  N6  UNL     1      -3.692   7.727  12.643  1.00  0.00    -0.191 NA
ENDROOT
BRANCH   1  14
HETATM   14  C9  UNL     1      -3.602   4.262  11.838  1.00  0.00     0.116 C
HETATM   15  C10 UNL     1      -2.122   4.138  11.254  1.00  0.00     0.037 C
BRANCH  14  16
HETATM   16  C8  UNL     1      -3.877   2.932  12.472  1.00  0.00     0.011 A
HETATM   17  C7  UNL     1      -4.094   2.835  13.849  1.00  0.00     0.059 A
HETATM   18  C4  UNL     1      -4.376   1.687  14.527  1.00  0.00     0.056 A
HETATM   19 CL1  UNL     1      -3.995   4.295  14.852  1.00  0.00    -0.083 Cl
HETATM   20  C3  UNL     1      -4.466   0.497  13.764  1.00  0.00     0.165 A
HETATM   21  C2  UNL     1      -4.269   0.554  12.410  1.00  0.00     0.130 A
HETATM   22  F1  UNL     1      -4.761  -0.642  14.452  1.00  0.00    -0.202 F
HETATM   23  C16 UNL     1      -3.981   1.742  11.795  1.00  0.00     0.080 A
HETATM   24 CL2  UNL     1      -3.776   1.747  10.056  1.00  0.00    -0.081 Cl
BRANCH  18  25
HETATM   25  C5  UNL     1      -4.444   1.594  15.968  1.00  0.00     0.054 C
HETATM   26  C6  UNL     1      -5.594   1.714  16.856  1.00  0.00     0.077 C
BRANCH  25  27
HETATM   27  O2  UNL     1      -3.329   1.366  16.605  1.00  0.00    -0.364 OA
ATOM     28  H2  UNL     1      -3.085   1.979  17.288  1.00  0.00     0.217 HD
ENDBRANCH  25  27
ENDBRANCH  18  25
BRANCH  21  29
HETATM   29  O1  UNL     1      -4.378  -0.667  11.715  1.00  0.00    -0.351 OA
HETATM   30  C1  UNL     1      -3.247  -1.461  11.429  1.00  0.00     0.210 C
ENDBRANCH  21  29
ENDBRANCH  14  16
ENDBRANCH   1  14
BRANCH   6  31
HETATM   31  N3  UNL     1      -6.752   5.836   7.101  1.00  0.00    -0.234 N
ATOM     32  H32 UNL     1      -7.575   5.236   7.147  1.00  0.00     0.174 HD
ATOM     33  H31 UNL     1      -6.414   6.235   6.225  1.00  0.00     0.174 HD
ENDBRANCH   6  31
TORSDOF 6
ENDMDL