MODEL 2
REMARK VINA RESULT: -7.703494615      3.068      5.804
REMARK  6 active torsions:
REMARK  status: ('A' for Active; 'I' for Inactive)
REMARK    1  A    between atoms: N4_14  and  C7_15
REMARK    2  A    between atoms: C7_15  and  C8_16
REMARK    3  A    between atoms: C8_16  and  N5_17
REMARK    4  A    between atoms: C9_22  and  N6_23
REMARK    5  A    between atoms: N6_23  and  C10_25
REMARK    6  A    between atoms: C11_28  and  N8_29
ROOT
HETATM    1  C1  UNL     1      -4.817   4.487  14.462  1.00  0.00     0.070 C
HETATM    2  C2  UNL     1      -4.654   3.151  13.852  1.00  0.00     0.036 A
HETATM    3  N1  UNL     1      -4.531   2.015  14.565  1.00  0.00    -0.343 N
ATOM      4  H1  UNL     1      -4.549   2.059  15.583  1.00  0.00     0.167 HD
HETATM    5  C3  UNL     1      -4.385   0.817  13.956  1.00  0.00     0.129 A
HETATM    6  N2  UNL     1      -4.277  -0.214  14.687  1.00  0.00    -0.384 N
ATOM      7  H21 UNL     1      -4.166  -1.118  14.227  1.00  0.00     0.157 HD
ATOM      8  H22 UNL     1      -4.302  -0.120  15.702  1.00  0.00     0.157 HD
HETATM    9  C4  UNL     1      -4.352   0.690  12.601  1.00  0.00     0.109 A
HETATM   10  C5  UNL     1      -4.476   1.842  11.846  1.00  0.00     0.093 A
HETATM   11  N3  UNL     1      -4.417   1.471  10.576  1.00  0.00    -0.348 N
ATOM     12  H3  UNL     1      -4.479   2.089   9.767  1.00  0.00     0.167 HD
HETATM   13  C6  UNL     1      -4.263   0.144  10.541  1.00  0.00     0.184 A
HETATM   14  N4  UNL     1      -4.220  -0.363  11.787  1.00  0.00    -0.334 N
HETATM   15  C9  UNL     1      -4.625   3.060  12.466  1.00  0.00     0.100 A
ENDROOT
BRANCH  15  16
HETATM   16  N6  UNL     1      -4.749   4.211  11.643  1.00  0.00    -0.187 N
ATOM     17  H6  UNL     1      -5.522   4.857  11.804  1.00  0.00     0.184 HD
BRANCH  16  18
HETATM   18  C10 UNL     1      -3.903   4.461  10.690  1.00  0.00     0.684 A
HETATM   19  N7  UNL     1      -2.604   4.637  10.990  1.00  0.00    -0.173 N
HETATM   20  C11 UNL     1      -1.662   4.897  10.085  1.00  0.00     0.159 A
ATOM     21  H7  UNL     1      -2.325   4.566  11.969  1.00  0.00     0.186 HD
HETATM   22  C18 UNL     1      -2.036   4.993   8.767  1.00  0.00     0.176 A
HETATM   23  F2  UNL     1      -1.136   5.256   7.812  1.00  0.00    -0.201 F
HETATM   24  C19 UNL     1      -3.392   4.810   8.460  1.00  0.00     0.152 A
HETATM   25  N9  UNL     1      -4.287   4.552   9.407  1.00  0.00    -0.199 N
ATOM     26  H9  UNL     1      -5.268   4.421   9.158  1.00  0.00     0.183 HD
BRANCH  20  27
HETATM   27  N8  UNL     1      -0.318   5.066  10.482  1.00  0.00    -0.364 N
HETATM   28  C12 UNL     1       0.025   6.399  10.934  1.00  0.00     0.124 C
HETATM   29  C13 UNL     1       0.800   6.274  12.232  1.00  0.00     0.020 C
HETATM   30  C14 UNL     1       2.259   6.135  11.866  1.00  0.00     0.002 C
HETATM   31  C15 UNL     1       2.615   4.736  11.449  1.00  0.00     0.002 C
HETATM   32  C16 UNL     1       1.982   4.307  10.163  1.00  0.00     0.020 C
HETATM   33  C17 UNL     1       0.537   3.887  10.382  1.00  0.00     0.124 C
ENDBRANCH  20  27
ENDBRANCH  16  18
ENDBRANCH  15  16
BRANCH  14  34
HETATM   34  C7  UNL     1      -4.058  -1.742  12.086  1.00  0.00     0.196 C
BRANCH  34  35
HETATM   35  C8  UNL     1      -2.900  -2.363  11.291  1.00  0.00     0.383 C
HETATM   36  F1  UNL     1      -1.716  -1.774  11.609  1.00  0.00    -0.218 F
BRANCH  35  37
HETATM   37  N5  UNL     1      -2.907  -3.804  11.485  1.00  0.00    -0.047 N
ATOM     38  H53 UNL     1      -3.677  -4.110  12.080  1.00  0.00     0.277 HD
ATOM     39  H52 UNL     1      -3.170  -4.307  10.638  1.00  0.00     0.277 HD
ATOM     40  H51 UNL     1      -1.999  -4.097  11.846  1.00  0.00     0.277 HD
ENDBRANCH  35  37
ENDBRANCH  34  35
ENDBRANCH  14  34
TORSDOF 6
ENDMDL