MODEL 3
REMARK VINA RESULT: -6.523388552      2.698      6.368
REMARK  6 active torsions:
REMARK  status: ('A' for Active; 'I' for Inactive)
REMARK    1  A    between atoms: O1_2  and  C2_3
REMARK    2  A    between atoms: C3_4  and  N1_5
REMARK    3  A    between atoms: N2_11  and  C8_13
REMARK    4  A    between atoms: C11_16  and  O2_17
REMARK    5  A    between atoms: C11_16  and  C12_19
REMARK    6  A    between atoms: C19_32  and  N5_33
ROOT
HETATM    1  N1  UNL     1      -3.104   6.979   9.666  1.00  0.00    -0.318 N
HETATM    2  C4  UNL     1      -1.916   7.518   9.017  1.00  0.00     0.135 C
HETATM    3  C5  UNL     1      -0.769   6.620   9.431  1.00  0.00     0.065 C
HETATM    4  C6  UNL     1      -1.483   5.491  10.229  1.00  0.00     0.239 C
HETATM    5  F1  UNL     1      -1.928   4.659   9.213  1.00  0.00    -0.241 F
HETATM    6  C7  UNL     1      -2.577   6.339  10.834  1.00  0.00     0.116 C
HETATM    7  N2  UNL     1      -3.341   5.930  11.848  1.00  0.00    -0.367 N
ATOM      8  H2  UNL     1      -3.252   6.524  12.672  1.00  0.00     0.161 HD
ENDROOT
BRANCH   1   9
HETATM    9  C3  UNL     1      -4.368   7.165   9.123  1.00  0.00     0.147 A
HETATM   10  C2  UNL     1      -4.797   6.349   8.082  1.00  0.00     0.156 A
HETATM   11  C19 UNL     1      -6.062   6.508   7.534  1.00  0.00     0.137 A
HETATM   12  N4  UNL     1      -6.854   7.466   8.032  1.00  0.00    -0.337 N
HETATM   13  C18 UNL     1      -6.428   8.265   9.052  1.00  0.00     0.183 A
ATOM     14  H4  UNL     1      -7.788   7.600   7.643  1.00  0.00     0.168 HD
HETATM   15  N3  UNL     1      -5.203   8.098   9.572  1.00  0.00    -0.336 N
ATOM     16  H3  UNL     1      -4.901   8.705  10.334  1.00  0.00     0.168 HD
BRANCH  10  17
HETATM   17  O1  UNL     1      -4.014   5.350   7.536  1.00  0.00    -0.349 OA
HETATM   18  C1  UNL     1      -3.227   5.521   6.380  1.00  0.00     0.210 C
ENDBRANCH  10  17
BRANCH  11  19
HETATM   19  N5  UNL     1      -6.511   5.786   6.582  1.00  0.00    -0.383 N
ATOM     20  H52 UNL     1      -6.791   4.828   6.793  1.00  0.00     0.157 HD
ATOM     21  H51 UNL     1      -6.602   6.115   5.621  1.00  0.00     0.157 HD
ENDBRANCH  11  19
ENDBRANCH   1   9
BRANCH   7  22
HETATM   22  C8  UNL     1      -4.217   4.897  12.038  1.00  0.00     0.155 C
HETATM   23  C9  UNL     1      -4.590   4.197  10.763  1.00  0.00     0.034 C
HETATM   24  C10 UNL     1      -3.843   2.848  10.723  1.00  0.00     0.041 C
HETATM   25  C11 UNL     1      -4.528   1.997  11.735  1.00  0.00     0.070 C
HETATM   26  C16 UNL     1      -4.336   2.614  13.083  1.00  0.00     0.119 C
HETATM   27  C17 UNL     1      -3.656   3.939  13.083  1.00  0.00     0.266 C
HETATM   28  F2  UNL     1      -2.279   3.876  13.050  1.00  0.00    -0.204 F
HETATM   29  F3  UNL     1      -3.934   4.495  14.351  1.00  0.00    -0.204 F
BRANCH  25  30
HETATM   30  O2  UNL     1      -5.911   2.053  11.456  1.00  0.00    -0.389 OA
ATOM     31  H2  UNL     1      -6.313   1.310  11.890  1.00  0.00     0.210 HD
ENDBRANCH  25  30
BRANCH  25  32
HETATM   32  C12 UNL     1      -4.131   0.550  11.674  1.00  0.00    -0.020 C
HETATM   33  C13 UNL     1      -4.296  -0.151  13.009  1.00  0.00     0.017 C
HETATM   34  C14 UNL     1      -2.657   0.481  11.334  1.00  0.00     0.017 C
HETATM   35  C15 UNL     1      -4.918  -0.183  10.611  1.00  0.00     0.017 C
ENDBRANCH  25  32
ENDBRANCH   7  22
TORSDOF 6
ENDMDL