MODEL 5
REMARK VINA RESULT: -7.451659022      3.038      4.396
REMARK  7 active torsions:
REMARK  status: ('A' for Active; 'I' for Inactive)
REMARK    1  A    between atoms: C2_2  and  O1_3
REMARK    2  A    between atoms: O1_3  and  C3_4
REMARK    3  A    between atoms: C3_4  and  C4_6
REMARK    4  A    between atoms: C7_11  and  N2_12
REMARK    5  A    between atoms: N2_12  and  N3_14
REMARK    6  A    between atoms: C8_16  and  C9_17
REMARK    7  A    between atoms: C15_31  and  N7_32
ROOT
HETATM    1  C4  UNL     1      -4.617   1.430  14.115  1.00  0.00     0.106 A
HETATM    2  C5  UNL     1      -4.818   2.768  13.910  1.00  0.00     0.043 A
HETATM    3  C6  UNL     1      -4.983   3.656  15.082  1.00  0.00     0.070 C
HETATM    4  N1  UNL     1      -4.859   3.225  12.646  1.00  0.00    -0.193 N
ATOM      5  H1  UNL     1      -5.009   4.220  12.482  1.00  0.00     0.184 HD
HETATM    6  C7  UNL     1      -4.708   2.401  11.592  1.00  0.00     0.698 A
HETATM    7  N6  UNL     1      -4.509   1.088  11.778  1.00  0.00    -0.175 N
ATOM      8  H6  UNL     1      -4.395   0.465  10.979  1.00  0.00     0.186 HD
HETATM    9  C15 UNL     1      -4.463   0.597  13.050  1.00  0.00     0.133 A
ENDROOT
BRANCH   6  10
HETATM   10  N2  UNL     1      -4.745   2.830  10.375  1.00  0.00    -0.132 N
ATOM     11  H2  UNL     1      -4.766   2.144   9.621  1.00  0.00     0.205 HD
BRANCH  10  12
HETATM   12  N3  UNL     1      -4.757   4.146  10.048  1.00  0.00    -0.295 N
HETATM   13  C8  UNL     1      -3.866   4.921   9.602  1.00  0.00     0.139 C
ATOM     14  H3  UNL     1      -5.661   4.597  10.189  1.00  0.00     0.186 HD
BRANCH  13  15
HETATM   15  C9  UNL     1      -2.500   4.542   9.314  1.00  0.00     0.074 A
HETATM   16  C10 UNL     1      -1.585   3.948  10.144  1.00  0.00     0.121 A
HETATM   17  N4  UNL     1      -0.444   3.787   9.434  1.00  0.00    -0.348 N
HETATM   18  C11 UNL     1      -0.670   4.273   8.208  1.00  0.00     0.137 A
ATOM     19  H4  UNL     1       0.425   3.373   9.771  1.00  0.00     0.167 HD
HETATM   20  C12 UNL     1      -0.023   4.452   6.990  1.00  0.00     0.103 A
HETATM   21  N5  UNL     1      -1.907   4.741   8.093  1.00  0.00    -0.282 N
HETATM   22 CL1  UNL     1       1.638   4.004   6.597  1.00  0.00    -0.078 Cl
HETATM   23  C13 UNL     1      -0.943   5.047   6.159  1.00  0.00     0.098 A
HETATM   24 CL2  UNL     1      -0.670   5.505   4.492  1.00  0.00    -0.079 Cl
HETATM   25  C14 UNL     1      -2.120   5.226   6.855  1.00  0.00     0.136 A
HETATM   26 CL3  UNL     1      -3.628   5.940   6.280  1.00  0.00    -0.062 Cl
ENDBRANCH  13  15
ENDBRANCH  10  12
ENDBRANCH   6  10
BRANCH   9  27
HETATM   27  N7  UNL     1      -4.273  -0.660  13.232  1.00  0.00    -0.384 N
ATOM     28  H72 UNL     1      -3.466  -1.111  12.799  1.00  0.00     0.157 HD
ATOM     29  H71 UNL     1      -4.923  -1.202  13.802  1.00  0.00     0.157 HD
ENDBRANCH   9  27
BRANCH   1  30
HETATM   30  C3  UNL     1      -4.568   0.915  15.465  1.00  0.00     0.299 C
HETATM   31  O2  UNL     1      -3.488   1.023  16.101  1.00  0.00    -0.259 OA
BRANCH  30  32
HETATM   32  O1  UNL     1      -5.634   0.312  16.098  1.00  0.00    -0.318 OA
BRANCH  32  33
HETATM   33  C2  UNL     1      -6.051   0.565  17.405  1.00  0.00     0.174 C
HETATM   34  C1  UNL     1      -7.374   1.299  17.354  1.00  0.00     0.034 C
ENDBRANCH  32  33
ENDBRANCH  30  32
ENDBRANCH   1  30
TORSDOF 7
ENDMDL