MODEL 2
REMARK VINA RESULT: -7.378747577      0.110      1.772
REMARK  6 active torsions:
REMARK  status: ('A' for Active; 'I' for Inactive)
REMARK    1  A    between atoms: C2_2  and  O1_3
REMARK    2  A    between atoms: O1_3  and  C3_4
REMARK    3  A    between atoms: C4_7  and  N2_8
REMARK    4  A    between atoms: N2_8  and  C5_10
REMARK    5  A    between atoms: C11_20  and  N4_21
REMARK    6  A    between atoms: C14_26  and  N6_27
ROOT
HETATM    1  C3  UNL     1      -5.205   2.113  16.077  1.00  0.00     0.183 A
HETATM    2  N1  UNL     1      -5.582   3.355  15.810  1.00  0.00    -0.168 N
ATOM      3  H1  UNL     1      -5.968   3.936  16.554  1.00  0.00     0.186 HD
HETATM    4  C4  UNL     1      -5.462   3.856  14.579  1.00  0.00     0.686 A
HETATM    5  N3  UNL     1      -4.961   3.105  13.604  1.00  0.00    -0.175 N
ATOM      6  H3  UNL     1      -4.882   3.515  12.673  1.00  0.00     0.186 HD
HETATM    7  C11 UNL     1      -4.547   1.823  13.779  1.00  0.00     0.145 A
HETATM    8  C16 UNL     1      -4.682   1.332  15.057  1.00  0.00     0.129 A
HETATM    9 CL3  UNL     1      -4.194  -0.294  15.449  1.00  0.00    -0.076 Cl
ENDROOT
BRANCH   7  10
HETATM   10  N4  UNL     1      -4.040   1.129  12.676  1.00  0.00    -0.357 N
HETATM   11  C12 UNL     1      -3.459   1.950  11.581  1.00  0.00     0.168 C
HETATM   12  C13 UNL     1      -2.123   1.333  11.225  1.00  0.00     0.077 C
HETATM   13  N5  UNL     1      -2.279  -0.007  10.875  1.00  0.00    -0.373 N
HETATM   14  C14 UNL     1      -3.483  -0.664  11.117  1.00  0.00     0.299 C
ATOM     15  H5  UNL     1      -1.507  -0.510  10.439  1.00  0.00     0.160 HD
HETATM   16  C15 UNL     1      -4.042  -0.295  12.521  1.00  0.00     0.179 C
BRANCH  14  17
HETATM   17  N6  UNL     1      -3.283  -2.108  11.165  1.00  0.00    -0.057 N
ATOM     18  H63 UNL     1      -3.476  -2.546  10.264  1.00  0.00     0.276 HD
ATOM     19  H62 UNL     1      -2.295  -2.349  11.245  1.00  0.00     0.276 HD
ATOM     20  H61 UNL     1      -3.836  -2.524  11.915  1.00  0.00     0.276 HD
ENDBRANCH  14  17
ENDBRANCH   7  10
BRANCH   4  21
HETATM   21  N2  UNL     1      -5.826   5.068  14.299  1.00  0.00    -0.191 N
ATOM     22  H2  UNL     1      -6.795   5.361  14.418  1.00  0.00     0.184 HD
BRANCH  21  23
HETATM   23  C5  UNL     1      -4.848   5.978  13.824  1.00  0.00     0.052 A
HETATM   24  C6  UNL     1      -4.818   6.381  12.485  1.00  0.00     0.054 A
HETATM   25  C7  UNL     1      -3.867   7.260  12.046  1.00  0.00     0.037 A
HETATM   26 CL1  UNL     1      -3.853   7.748  10.365  1.00  0.00    -0.084 Cl
HETATM   27  C8  UNL     1      -2.906   7.783  12.897  1.00  0.00     0.048 A
HETATM   28  C9  UNL     1      -2.910   7.403  14.224  1.00  0.00     0.037 A
HETATM   29 CL2  UNL     1      -1.697   8.052  15.332  1.00  0.00    -0.084 Cl
HETATM   30  C10 UNL     1      -3.873   6.520  14.646  1.00  0.00     0.054 A
ENDBRANCH  21  23
ENDBRANCH   4  21
BRANCH   1  31
HETATM   31  O1  UNL     1      -5.345   1.626  17.373  1.00  0.00    -0.334 OA
BRANCH  31  32
HETATM   32  C2  UNL     1      -6.565   1.707  18.087  1.00  0.00     0.173 C
HETATM   33  C1  UNL     1      -7.643   1.091  17.250  1.00  0.00     0.034 C
ENDBRANCH  31  32
ENDBRANCH   1  31
TORSDOF 6
ENDMDL