MODEL 4
REMARK VINA RESULT: -7.348842003      2.920      3.387
REMARK  7 active torsions:
REMARK  status: ('A' for Active; 'I' for Inactive)
REMARK    1  A    between atoms: N1_1  and  C1_5
REMARK    2  A    between atoms: C1_5  and  N2_6
REMARK    3  A    between atoms: C4_12  and  N3_13
REMARK    4  A    between atoms: C4_12  and  C5_17
REMARK    5  A    between atoms: C7_21  and  N5_22
REMARK    6  A    between atoms: C10_25  and  C11_26
REMARK    7  A    between atoms: C14_34  and  C15_35
ROOT
HETATM    1  C5  UNL     1      -3.274   4.796  10.717  1.00  0.00     0.024 A
HETATM    2  C6  UNL     1      -3.986   3.634  10.721  1.00  0.00     0.118 A
HETATM    3  N4  UNL     1      -4.475   3.035  11.847  1.00  0.00    -0.201 N
ATOM      4  H4  UNL     1      -5.004   2.165  11.793  1.00  0.00     0.183 HD
HETATM    5  C7  UNL     1      -4.237   3.627  13.015  1.00  0.00     0.684 A
HETATM    6  N6  UNL     1      -3.542   4.765  13.043  1.00  0.00    -0.192 N
ATOM      7  H6  UNL     1      -3.378   5.190  13.956  1.00  0.00     0.184 HD
HETATM    8  C14 UNL     1      -3.033   5.405  11.958  1.00  0.00     0.065 A
ENDROOT
BRANCH   1   9
HETATM    9  C4  UNL     1      -2.694   5.461   9.579  1.00  0.00     0.212 C
HETATM   10  C1  UNL     1      -1.251   5.388   9.257  1.00  0.00     0.319 C
HETATM   11  C2  UNL     1      -1.492   4.571   7.970  1.00  0.00     0.075 C
HETATM   12  C3  UNL     1      -2.945   4.824   8.222  1.00  0.00     0.053 C
BRANCH  10  13
HETATM   13  N1  UNL     1      -0.289   4.715  10.025  1.00  0.00    -0.042 N
ATOM     14  H13 UNL     1      -0.652   3.846  10.418  1.00  0.00     0.277 HD
ATOM     15  H12 UNL     1       0.452   4.318   9.446  1.00  0.00     0.277 HD
ATOM     16  H11 UNL     1       0.080   5.335  10.745  1.00  0.00     0.277 HD
ENDBRANCH  10  13
BRANCH  10  17
HETATM   17  N2  UNL     1      -0.698   6.691   8.770  1.00  0.00    -0.042 N
ATOM     18  H23 UNL     1       0.045   7.040   9.373  1.00  0.00     0.277 HD
ATOM     19  H22 UNL     1      -0.155   6.578   7.913  1.00  0.00     0.277 HD
ATOM     20  H21 UNL     1      -1.451   7.369   8.659  1.00  0.00     0.277 HD
ENDBRANCH  10  17
BRANCH   9  21
HETATM   21  N3  UNL     1      -3.036   6.899   9.636  1.00  0.00    -0.062 N
ATOM     22  H33 UNL     1      -3.944   7.083  10.062  1.00  0.00     0.275 HD
ATOM     23  H32 UNL     1      -2.474   7.422  10.308  1.00  0.00     0.275 HD
ATOM     24  H31 UNL     1      -2.957   7.251   8.682  1.00  0.00     0.275 HD
ENDBRANCH   9  21
ENDBRANCH   1   9
BRANCH   8  25
HETATM   25  C15 UNL     1      -2.381   6.664  12.237  1.00  0.00     0.172 C
HETATM   26  C16 UNL     1      -1.581   6.483  13.549  1.00  0.00     0.044 C
HETATM   27  C17 UNL     1      -0.932   7.755  13.971  1.00  0.00     0.084 C
HETATM   28  C18 UNL     1      -1.838   8.953  13.846  1.00  0.00     0.264 C
HETATM   29  F4  UNL     1      -1.068  10.072  13.600  1.00  0.00    -0.204 F
HETATM   30  F5  UNL     1      -2.544   9.180  15.011  1.00  0.00    -0.204 F
HETATM   31  C19 UNL     1      -2.824   8.813  12.715  1.00  0.00     0.247 C
HETATM   32  O1  UNL     1      -3.417   7.587  12.602  1.00  0.00    -0.374 OA
ENDBRANCH   8  25
BRANCH   5  33
HETATM   33  N5  UNL     1      -4.733   3.061  14.269  1.00  0.00    -0.197 N
HETATM   34  C8  UNL     1      -3.952   2.160  15.013  1.00  0.00     0.082 C
HETATM   35  C9  UNL     1      -4.510   1.727  16.337  1.00  0.00     0.058 C
HETATM   36  C10 UNL     1      -6.027   1.741  16.240  1.00  0.00     0.100 C
HETATM   37  C12 UNL     1      -6.365   3.221  16.051  1.00  0.00     0.034 C
HETATM   38  C13 UNL     1      -6.049   3.514  14.615  1.00  0.00     0.147 C
BRANCH  36  39
HETATM   39  C11 UNL     1      -6.716   1.155  17.427  1.00  0.00     0.391 C
HETATM   40  F1  UNL     1      -6.711   2.060  18.492  1.00  0.00    -0.171 F
HETATM   41  F2  UNL     1      -6.098  -0.007  17.856  1.00  0.00    -0.171 F
HETATM   42  F3  UNL     1      -8.041   0.960  17.104  1.00  0.00    -0.171 F
ENDBRANCH  36  39
ENDBRANCH   5  33
TORSDOF 7
ENDMDL