MODEL 4
REMARK VINA RESULT: -7.726577770      1.738      1.959
REMARK  9 active torsions:
REMARK  status: ('A' for Active; 'I' for Inactive)
REMARK    1  A    between atoms: C2_2  and  N1_3
REMARK    2  A    between atoms: C2_2  and  C3_7
REMARK    3  A    between atoms: C2_2  and  C19_40
REMARK    4  A    between atoms: C4_8  and  C5_9
REMARK    5  A    between atoms: C7_11  and  N2_12
REMARK    6  A    between atoms: C9_17  and  N3_18
REMARK    7  A    between atoms: C10_22  and  N4_23
REMARK    8  A    between atoms: N4_23  and  C11_25
REMARK    9  A    between atoms: C14_30  and  N6_31
ROOT
HETATM    1  C5  UNL     1      -4.136   5.449  10.892  1.00  0.00     0.091 C
HETATM    2  C6  UNL     1      -2.960   6.376  11.138  1.00  0.00     0.052 C
HETATM    3  C7  UNL     1      -2.179   5.992  12.351  1.00  0.00     0.186 C
HETATM    4  C8  UNL     1      -2.435   4.523  12.603  1.00  0.00     0.067 C
HETATM    5  C9  UNL     1      -2.381   3.769  11.263  1.00  0.00     0.209 C
HETATM    6  C10 UNL     1      -3.649   4.083  10.451  1.00  0.00     0.129 C
ENDROOT
BRANCH   6   7
HETATM    7  N4  UNL     1      -4.684   3.119  10.744  1.00  0.00    -0.368 N
ATOM      8  H4  UNL     1      -5.542   3.162  10.195  1.00  0.00     0.161 HD
BRANCH   7   9
HETATM    9  C11 UNL     1      -4.590   2.112  11.745  1.00  0.00     0.118 A
HETATM   10  C12 UNL     1      -4.199   0.841  11.388  1.00  0.00     0.066 A
HETATM   11  C13 UNL     1      -4.114  -0.099  12.393  1.00  0.00     0.110 A
HETATM   12  N5  UNL     1      -4.405   0.228  13.663  1.00  0.00    -0.202 N
HETATM   13  C14 UNL     1      -4.788   1.465  14.024  1.00  0.00     0.681 A
ATOM     14  H5  UNL     1      -4.333  -0.491  14.382  1.00  0.00     0.183 HD
HETATM   15  N7  UNL     1      -4.867   2.372  13.038  1.00  0.00    -0.177 N
ATOM     16  H7  UNL     1      -5.156   3.320  13.283  1.00  0.00     0.185 HD
BRANCH  13  17
HETATM   17  N6  UNL     1      -5.095   1.794  15.382  1.00  0.00    -0.212 N
HETATM   18  C15 UNL     1      -4.560   1.149  16.560  1.00  0.00     0.147 C
HETATM   19  C16 UNL     1      -5.559   1.397  17.664  1.00  0.00     0.101 C
HETATM   20  C17 UNL     1      -6.690   2.201  17.059  1.00  0.00     0.261 C
HETATM   21  F1  UNL     1      -7.123   3.140  17.945  1.00  0.00    -0.204 F
HETATM   22  F2  UNL     1      -7.659   1.339  16.624  1.00  0.00    -0.204 F
HETATM   23  C18 UNL     1      -5.991   2.827  15.855  1.00  0.00     0.220 C
ENDBRANCH  13  17
ENDBRANCH   7   9
ENDBRANCH   6   7
BRANCH   1  24
HETATM   24  C4  UNL     1      -5.005   5.963   9.829  1.00  0.00    -0.097 C
HETATM   25  C3  UNL     1      -5.733   6.378   8.961  1.00  0.00    -0.058 C
BRANCH  25  26
HETATM   26  C2  UNL     1      -6.641   6.896   7.912  1.00  0.00     0.278 C
HETATM   27  C1  UNL     1      -8.027   7.123   8.511  1.00  0.00     0.071 C
BRANCH  26  28
HETATM   28  N1  UNL     1      -6.718   5.955   6.811  1.00  0.00    -0.051 N
ATOM     29  H13 UNL     1      -5.821   5.849   6.338  1.00  0.00     0.276 HD
ATOM     30  H12 UNL     1      -6.832   4.995   7.137  1.00  0.00     0.276 HD
ATOM     31  H11 UNL     1      -7.459   6.228   6.165  1.00  0.00     0.276 HD
ENDBRANCH  26  28
BRANCH  26  32
HETATM   32  C19 UNL     1      -6.102   8.224   7.489  1.00  0.00     0.431 C
HETATM   33  F3  UNL     1      -7.146   8.958   6.953  1.00  0.00    -0.167 F
HETATM   34  F4  UNL     1      -5.214   7.995   6.432  1.00  0.00    -0.167 F
HETATM   35  F5  UNL     1      -5.409   8.889   8.450  1.00  0.00    -0.167 F
ENDBRANCH  26  32
ENDBRANCH  25  26
ENDBRANCH   1  24
BRANCH   5  36
HETATM   36  N3  UNL     1      -1.189   4.215  10.613  1.00  0.00    -0.073 N
ATOM     37  H33 UNL     1      -1.202   4.085   9.601  1.00  0.00     0.274 HD
ATOM     38  H32 UNL     1      -1.085   5.230  10.604  1.00  0.00     0.274 HD
ATOM     39  H31 UNL     1      -0.421   3.730  11.076  1.00  0.00     0.274 HD
ENDBRANCH   5  36
BRANCH   3  40
HETATM   40  N2  UNL     1      -2.680   6.711  13.519  1.00  0.00    -0.075 N
ATOM     41  H23 UNL     1      -2.795   7.707  13.334  1.00  0.00     0.274 HD
ATOM     42  H22 UNL     1      -3.654   6.483  13.719  1.00  0.00     0.274 HD
ATOM     43  H21 UNL     1      -2.076   6.539  14.321  1.00  0.00     0.274 HD
ENDBRANCH   3  40
TORSDOF 9
ENDMDL