MODEL 2
REMARK VINA RESULT: -7.003954364      2.589      3.133
REMARK  5 active torsions:
REMARK  status: ('A' for Active; 'I' for Inactive)
REMARK    1  A    between atoms: N5_16  and  C6_17
REMARK    2  A    between atoms: N6_19  and  C8_20
REMARK    3  A    between atoms: C8_20  and  C9_21
REMARK    4  A    between atoms: C9_21  and  C10_23
REMARK    5  A    between atoms: C12_28  and  O1_29
ROOT
HETATM    1  N1  UNL     1      -5.691  -0.178  17.783  1.00  0.00    -0.383 N
ATOM      2  H11 UNL     1      -5.173  -0.976  17.417  1.00  0.00     0.157 HD
ATOM      3  H12 UNL     1      -6.128  -0.207  18.704  1.00  0.00     0.157 HD
HETATM    4  C1  UNL     1      -5.822   0.909  17.108  1.00  0.00     0.132 A
HETATM    5  N2  UNL     1      -6.509   1.967  17.593  1.00  0.00    -0.317 N
ATOM      6  H2  UNL     1      -6.944   1.931  18.515  1.00  0.00     0.170 HD
HETATM    7  C2  UNL     1      -6.601   3.068  16.827  1.00  0.00     0.182 A
HETATM    8 CL1  UNL     1      -7.506   4.421  17.505  1.00  0.00    -0.045 Cl
HETATM    9  N3  UNL     1      -6.041   3.152  15.608  1.00  0.00    -0.317 N
ATOM     10  H3  UNL     1      -6.135   4.006  15.060  1.00  0.00     0.170 HD
HETATM   11  C3  UNL     1      -5.356   2.108  15.114  1.00  0.00     0.142 A
HETATM   12  C4  UNL     1      -5.232   0.949  15.865  1.00  0.00     0.122 A
HETATM   13  N4  UNL     1      -4.507   0.105  15.111  1.00  0.00    -0.346 N
ATOM     14  H4  UNL     1      -4.236  -0.841  15.378  1.00  0.00     0.167 HD
HETATM   15  C5  UNL     1      -4.193   0.707  13.947  1.00  0.00     0.185 A
HETATM   16  N5  UNL     1      -4.718   1.940  13.952  1.00  0.00    -0.318 N
ENDROOT
BRANCH  16  17
HETATM   17  C6  UNL     1      -4.599   2.905  12.874  1.00  0.00     0.151 C
HETATM   18  C7  UNL     1      -3.227   3.467  12.755  1.00  0.00     0.300 C
HETATM   19  N6  UNL     1      -3.326   4.182  11.429  1.00  0.00     0.094 N
HETATM   20  C11 UNL     1      -4.006   3.188  10.621  1.00  0.00     0.306 C
HETATM   21  C12 UNL     1      -4.730   2.219  11.534  1.00  0.00     0.171 C
BRANCH  19  22
HETATM   22  C8  UNL     1      -4.023   5.401  11.642  1.00  0.00     0.297 C
BRANCH  22  23
HETATM   23  C9  UNL     1      -3.185   6.604  11.785  1.00  0.00     0.164 C
HETATM   24 CL2  UNL     1      -1.692   6.392  10.722  1.00  0.00    -0.119 Cl
BRANCH  23  25
HETATM   25  C10 UNL     1      -2.725   7.116  13.084  1.00  0.00     0.206 C
HETATM   26 CL3  UNL     1      -3.702   6.697  14.489  1.00  0.00    -0.082 Cl
HETATM   27 CL4  UNL     1      -1.066   6.382  13.310  1.00  0.00    -0.082 Cl
HETATM   28 CL5  UNL     1      -2.455   8.865  13.045  1.00  0.00    -0.082 Cl
ENDBRANCH  23  25
ENDBRANCH  22  23
ENDBRANCH  19  22
BRANCH  21  29
HETATM   29  O1  UNL     1      -6.070   2.084  11.184  1.00  0.00    -0.392 OA
ATOM     30  H1  UNL     1      -6.165   2.036  10.240  1.00  0.00     0.210 HD
ENDBRANCH  21  29
ENDBRANCH  16  17
TORSDOF 5
ENDMDL