MODEL 5
REMARK VINA RESULT: -7.337310993      0.854      1.444
REMARK  4 active torsions:
REMARK  status: ('A' for Active; 'I' for Inactive)
REMARK    1  A    between atoms: C2_2  and  C3_5
REMARK    2  A    between atoms: C5_8  and  C6_9
REMARK    3  A    between atoms: C5_8  and  C17_28
REMARK    4  A    between atoms: C8_13  and  N2_14
ROOT
HETATM    1  C6  UNL     1      -2.860   3.426  12.721  1.00  0.00     0.076 A
HETATM    2  C7  UNL     1      -3.105   3.778  11.398  1.00  0.00     0.134 A
HETATM    3  N1  UNL     1      -2.001   4.343  10.963  1.00  0.00    -0.200 N
ATOM      4  H1  UNL     1      -1.874   4.710  10.020  1.00  0.00     0.183 HD
HETATM    5  C8  UNL     1      -1.032   4.374  11.954  1.00  0.00     0.680 A
HETATM    6  N4  UNL     1      -1.619   3.796  13.001  1.00  0.00    -0.191 N
ATOM      7  H4  UNL     1      -1.169   3.657  13.906  1.00  0.00     0.184 HD
ENDROOT
BRANCH   1   8
HETATM    8  C5  UNL     1      -3.970   2.828  13.524  1.00  0.00     0.142 C
HETATM    9  C4  UNL     1      -5.157   3.739  13.261  1.00  0.00     0.124 C
HETATM   10  C3  UNL     1      -6.150   3.854  14.347  1.00  0.00     0.280 C
HETATM   11  F3  UNL     1      -7.416   3.849  13.729  1.00  0.00    -0.204 F
HETATM   12  O1  UNL     1      -6.123   2.807  15.291  1.00  0.00    -0.273 OA
HETATM   13  C18 UNL     1      -4.863   2.408  15.729  1.00  0.00     0.216 C
HETATM   14  N5  UNL     1      -3.736   2.755  14.930  1.00  0.00    -0.336 N
HETATM   15  N6  UNL     1      -4.757   1.743  16.824  1.00  0.00    -0.365 N
ATOM     16  H5  UNL     1      -2.819   2.940  15.337  1.00  0.00     0.164 HD
ATOM     17  H62 UNL     1      -3.834   1.450  17.145  1.00  0.00     0.159 HD
ATOM     18  H61 UNL     1      -5.564   1.494  17.396  1.00  0.00     0.159 HD
BRANCH  10  19
HETATM   19  C2  UNL     1      -6.123   5.142  15.129  1.00  0.00     0.300 C
HETATM   20  C1  UNL     1      -4.794   5.855  15.097  1.00  0.00     0.097 C
HETATM   21  F1  UNL     1      -7.012   6.012  14.482  1.00  0.00    -0.200 F
HETATM   22  F2  UNL     1      -6.535   5.035  16.417  1.00  0.00    -0.200 F
ENDBRANCH  10  19
BRANCH   8  23
HETATM   23  C17 UNL     1      -4.205   1.426  12.998  1.00  0.00     0.387 C
HETATM   24  F4  UNL     1      -5.237   1.443  12.073  1.00  0.00    -0.211 F
HETATM   25  F5  UNL     1      -3.087   0.791  12.551  1.00  0.00    -0.211 F
ENDBRANCH   8  23
ENDBRANCH   1   8
BRANCH   5  26
HETATM   26  N2  UNL     1       0.212   5.002  11.735  1.00  0.00    -0.217 N
HETATM   27  C9  UNL     1       0.435   6.436  12.084  1.00  0.00     0.142 C
HETATM   28  C10 UNL     1       1.018   6.854  10.731  1.00  0.00     0.032 C
HETATM   29  C11 UNL     1       2.124   5.811  10.609  1.00  0.00    -0.019 C
HETATM   30  C12 UNL     1       2.592   5.650   9.206  1.00  0.00     0.039 C
HETATM   31  C15 UNL     1       3.241   6.304  11.515  1.00  0.00     0.039 C
HETATM   32  C16 UNL     1       1.437   4.564  11.175  1.00  0.00     0.151 C
HETATM   33  C13 UNL     1       3.616   6.767   8.956  1.00  0.00     0.233 C
HETATM   34  N3  UNL     1       4.828   6.534   9.704  1.00  0.00    -0.075 N
HETATM   35  C14 UNL     1       4.531   5.816  10.905  1.00  0.00     0.233 C
ATOM     36  H32 UNL     1       5.539   6.063   9.144  1.00  0.00     0.277 HD
ATOM     37  H31 UNL     1       5.335   7.399   9.891  1.00  0.00     0.277 HD
ENDBRANCH   5  26
TORSDOF 4
ENDMDL