MODEL 5
REMARK VINA RESULT: -7.232833782      3.979      6.747
REMARK  6 active torsions:
REMARK  status: ('A' for Active; 'I' for Inactive)
REMARK    1  A    between atoms: C7_11  and  O1_12
REMARK    2  A    between atoms: N1_15  and  N2_17
REMARK    3  A    between atoms: N2_17  and  C9_19
REMARK    4  A    between atoms: C9_19  and  C10_20
REMARK    5  A    between atoms: C15_27  and  O2_29
REMARK    6  A    between atoms: C17_31  and  O3_32
ROOT
HETATM    1  C1  UNL     1      -5.833   7.164  12.166  1.00  0.00     0.012 C
HETATM    2  C2  UNL     1      -5.189   6.632  10.969  1.00  0.00     0.016 C
HETATM    3  C3  UNL     1      -4.502   7.792  10.235  1.00  0.00     0.087 C
HETATM    4  C4  UNL     1      -3.182   7.853  11.001  1.00  0.00     0.272 C
HETATM    5  F1  UNL     1      -2.302   8.541  10.185  1.00  0.00    -0.204 F
HETATM    6  F2  UNL     1      -3.343   8.564  12.138  1.00  0.00    -0.204 F
HETATM    7  C5  UNL     1      -2.798   6.413  11.200  1.00  0.00     0.190 C
HETATM    8 CL1  UNL     1      -1.657   6.054   9.843  1.00  0.00    -0.104 Cl
HETATM    9  C6  UNL     1      -4.066   5.659  11.102  1.00  0.00     0.104 C
HETATM   10 CL2  UNL     1      -4.034   4.865   9.466  1.00  0.00    -0.113 Cl
HETATM   11  C7  UNL     1      -4.275   4.555  12.069  1.00  0.00     0.194 C
HETATM   12  C8  UNL     1      -3.055   4.099  12.771  1.00  0.00     0.073 C
HETATM   13  N1  UNL     1      -3.160   3.012  13.474  1.00  0.00    -0.307 N
ATOM     14  H1  UNL     1      -2.334   2.676  13.968  1.00  0.00     0.186 HD
HETATM   15  C15 UNL     1      -1.760   4.768  12.736  1.00  0.00     0.159 C
HETATM   16  C16 UNL     1      -0.771   4.111  11.789  1.00  0.00     0.059 C
HETATM   17  C17 UNL     1      -1.987   6.213  12.437  1.00  0.00     0.268 C
HETATM   18  F3  UNL     1      -0.719   6.756  12.159  1.00  0.00    -0.205 F
ENDROOT
BRANCH  11  19
HETATM   19  O1  UNL     1      -5.221   4.827  13.069  1.00  0.00    -0.388 OA
ATOM     20  H1  UNL     1      -5.027   5.594  13.597  1.00  0.00     0.210 HD
ENDBRANCH  11  19
BRANCH  13  21
HETATM   21  N2  UNL     1      -4.344   2.278  13.590  1.00  0.00    -0.331 N
ATOM     22  H2  UNL     1      -5.150   2.554  13.029  1.00  0.00     0.180 HD
BRANCH  21  23
HETATM   23  C9  UNL     1      -4.469   1.140  14.475  1.00  0.00     0.196 C
BRANCH  23  24
HETATM   24  C10 UNL     1      -5.247   1.369  15.680  1.00  0.00     0.028 A
HETATM   25  C11 UNL     1      -5.991   2.495  15.866  1.00  0.00     0.027 A
HETATM   26  C12 UNL     1      -6.721   2.676  17.048  1.00  0.00     0.003 A
HETATM   27  C13 UNL     1      -6.679   1.702  18.020  1.00  0.00     0.017 A
HETATM   28  C14 UNL     1      -5.906   0.575  17.782  1.00  0.00     0.088 A
HETATM   29  N3  UNL     1      -5.221   0.425  16.651  1.00  0.00    -0.368 N
ATOM     30  H3  UNL     1      -4.664  -0.418  16.513  1.00  0.00     0.165 HD
ENDBRANCH  23  24
ENDBRANCH  21  23
ENDBRANCH  13  21
BRANCH  15  31
HETATM   31  O2  UNL     1      -1.220   4.701  14.042  1.00  0.00    -0.378 OA
ATOM     32  H2  UNL     1      -0.285   4.848  13.966  1.00  0.00     0.211 HD
ENDBRANCH  15  31
BRANCH  17  33
HETATM   33  O3  UNL     1      -2.437   6.852  13.556  1.00  0.00    -0.357 OA
ATOM     34  H3  UNL     1      -2.093   6.534  14.382  1.00  0.00     0.213 HD
ENDBRANCH  17  33
TORSDOF 6
ENDMDL