MODEL 4
REMARK VINA RESULT: -7.394384553      2.011      2.976
REMARK  7 active torsions:
REMARK  status: ('A' for Active; 'I' for Inactive)
REMARK    1  A    between atoms: O1_1  and  C1_3
REMARK    2  A    between atoms: C2_4  and  C3_5
REMARK    3  A    between atoms: C4_8  and  O3_9
REMARK    4  A    between atoms: O3_9  and  C5_10
REMARK    5  A    between atoms: C5_10  and  C6_11
REMARK    6  A    between atoms: C13_26  and  O4_27
REMARK    7  A    between atoms: C14_29  and  O5_30
ROOT
HETATM    1  C5  UNL     1      -2.765   5.014  14.704  1.00  0.00     0.247 C
ENDROOT
BRANCH   1   2
HETATM    2  O3  UNL     1      -2.943   3.670  14.982  1.00  0.00    -0.351 OA
BRANCH   2   3
HETATM    3  C4  UNL     1      -4.259   3.259  15.012  1.00  0.00     0.292 C
HETATM    4  O2  UNL     1      -4.653   2.996  13.717  1.00  0.00    -0.348 OA
HETATM    5  C2  UNL     1      -4.199   1.833  13.175  1.00  0.00     0.184 C
HETATM    6  C1  UNL     1      -4.187   0.639  14.062  1.00  0.00     0.180 C
HETATM    7  C14 UNL     1      -5.101   0.911  15.233  1.00  0.00     0.183 C
HETATM    8  C13 UNL     1      -4.501   2.110  15.956  1.00  0.00     0.204 C
BRANCH   5   9
HETATM    9  C3  UNL     1      -5.036   1.554  11.938  1.00  0.00     0.256 C
HETATM   10  F1  UNL     1      -4.648   2.281  10.854  1.00  0.00    -0.253 F
ENDBRANCH   5   9
BRANCH   6  11
HETATM   11  O1  UNL     1      -4.540  -0.512  13.375  1.00  0.00    -0.390 OA
ATOM     12  H1  UNL     1      -4.207  -1.292  13.804  1.00  0.00     0.210 HD
ENDBRANCH   6  11
BRANCH   7  13
HETATM   13  O5  UNL     1      -5.130  -0.165  16.109  1.00  0.00    -0.390 OA
ATOM     14  H5  UNL     1      -4.790  -0.952  15.700  1.00  0.00     0.210 HD
ENDBRANCH   7  13
BRANCH   8  15
HETATM   15  O4  UNL     1      -3.270   1.667  16.464  1.00  0.00    -0.388 OA
ATOM     16  H4  UNL     1      -2.960   2.290  17.113  1.00  0.00     0.210 HD
ENDBRANCH   8  15
ENDBRANCH   2   3
ENDBRANCH   1   2
BRANCH   1  17
HETATM   17  C6  UNL     1      -3.234   5.334  13.322  1.00  0.00     0.106 A
HETATM   18  N1  UNL     1      -4.265   6.170  12.998  1.00  0.00    -0.341 N
HETATM   19  C7  UNL     1      -4.416   6.241  11.667  1.00  0.00     0.086 A
ATOM     20  H1  UNL     1      -4.841   6.671  13.675  1.00  0.00     0.167 HD
HETATM   21  C8  UNL     1      -5.293   6.930  10.854  1.00  0.00     0.086 A
HETATM   22  C12 UNL     1      -3.448   5.421  11.104  1.00  0.00     0.086 A
HETATM   23 CL1  UNL     1      -6.532   7.977  11.505  1.00  0.00    -0.080 Cl
HETATM   24  C9  UNL     1      -5.200   6.799   9.491  1.00  0.00     0.081 A
HETATM   25 CL2  UNL     1      -6.310   7.671   8.468  1.00  0.00    -0.081 Cl
HETATM   26  C10 UNL     1      -4.231   5.978   8.947  1.00  0.00     0.081 A
HETATM   27 CL3  UNL     1      -4.087   5.789   7.206  1.00  0.00    -0.081 Cl
HETATM   28  C11 UNL     1      -3.342   5.277   9.729  1.00  0.00     0.086 A
HETATM   29 CL4  UNL     1      -2.121   4.242   9.025  1.00  0.00    -0.080 Cl
HETATM   30  N2  UNL     1      -2.769   4.903  12.138  1.00  0.00    -0.341 N
ATOM     31  H2  UNL     1      -1.988   4.255  12.037  1.00  0.00     0.167 HD
ENDBRANCH   1  17
TORSDOF 7
ENDMDL