MODEL 2
REMARK VINA RESULT: -6.145751871      0.072      2.435
REMARK  8 active torsions:
REMARK  status: ('A' for Active; 'I' for Inactive)
REMARK    1  A    between atoms: O1_1  and  C1_3
REMARK    2  A    between atoms: C1_3  and  C2_4
REMARK    3  A    between atoms: C3_6  and  O3_7
REMARK    4  A    between atoms: O3_7  and  C4_8
REMARK    5  A    between atoms: C4_8  and  C5_9
REMARK    6  A    between atoms: C11_19  and  O4_20
REMARK    7  A    between atoms: C12_23  and  O5_24
REMARK    8  A    between atoms: C13_26  and  O6_27
ROOT
HETATM    1  C2  UNL     1      -1.809   5.999  13.174  1.00  0.00     0.179 C
HETATM    2  O2  UNL     1      -2.973   6.346  12.572  1.00  0.00    -0.347 OA
HETATM    3  C3  UNL     1      -4.067   5.572  12.842  1.00  0.00     0.313 C
HETATM    4  C11 UNL     1      -4.150   5.420  14.362  1.00  0.00     0.212 C
HETATM    5 CL5  UNL     1      -3.731   6.953  15.177  1.00  0.00    -0.080 Cl
HETATM    6  C12 UNL     1      -3.064   4.398  14.671  1.00  0.00     0.204 C
HETATM    7  C13 UNL     1      -1.785   4.859  14.083  1.00  0.00     0.182 C
ENDROOT
BRANCH   3   8
HETATM    8  O3  UNL     1      -5.230   6.158  12.416  1.00  0.00    -0.352 OA
BRANCH   8   9
HETATM    9  C4  UNL     1      -4.895   7.253  11.621  1.00  0.00     0.213 C
BRANCH   9  10
HETATM   10  C5  UNL     1      -5.598   7.148  10.311  1.00  0.00     0.012 A
HETATM   11  C6  UNL     1      -4.940   6.671   9.189  1.00  0.00     0.066 A
HETATM   12 CL1  UNL     1      -3.263   6.190   9.333  1.00  0.00    -0.082 Cl
HETATM   13  C7  UNL     1      -5.615   6.586   7.997  1.00  0.00     0.058 A
HETATM   14 CL2  UNL     1      -4.767   5.981   6.596  1.00  0.00    -0.082 Cl
HETATM   15  C8  UNL     1      -6.935   6.973   7.920  1.00  0.00     0.051 A
HETATM   16  C9  UNL     1      -7.629   7.456   9.020  1.00  0.00     0.058 A
HETATM   17 CL3  UNL     1      -9.307   7.945   8.917  1.00  0.00    -0.082 Cl
HETATM   18  C10 UNL     1      -6.911   7.528  10.213  1.00  0.00     0.066 A
HETATM   19 CL4  UNL     1      -7.820   8.147  11.598  1.00  0.00    -0.082 Cl
ENDBRANCH   9  10
ENDBRANCH   8   9
ENDBRANCH   3   8
BRANCH   4  20
HETATM   20  O4  UNL     1      -5.381   4.954  14.770  1.00  0.00    -0.368 OA
ATOM     21  H4  UNL     1      -5.408   4.788  15.705  1.00  0.00     0.212 HD
ENDBRANCH   4  20
BRANCH   1  22
HETATM   22  C1  UNL     1      -0.768   5.786  12.063  1.00  0.00     0.198 C
BRANCH  22  23
HETATM   23  O1  UNL     1       0.518   5.790  12.604  1.00  0.00    -0.398 OA
ATOM     24  H1  UNL     1       0.938   4.952  12.454  1.00  0.00     0.209 HD
ENDBRANCH  22  23
ENDBRANCH   1  22
BRANCH   6  25
HETATM   25  O5  UNL     1      -3.519   3.179  14.171  1.00  0.00    -0.388 OA
ATOM     26  H5  UNL     1      -3.705   3.321  13.250  1.00  0.00     0.210 HD
ENDBRANCH   6  25
BRANCH   7  27
HETATM   27  O6  UNL     1      -1.207   3.747  13.422  1.00  0.00    -0.390 OA
ATOM     28  H6  UNL     1      -0.363   3.554  13.815  1.00  0.00     0.210 HD
ENDBRANCH   7  27
TORSDOF 8
ENDMDL