MODEL 2
REMARK VINA RESULT: -6.072938785      0.031      2.409
REMARK  8 active torsions:
REMARK  status: ('A' for Active; 'I' for Inactive)
REMARK    1  A    between atoms: O1_1  and  C1_3
REMARK    2  A    between atoms: C1_3  and  C2_4
REMARK    3  A    between atoms: C3_6  and  O3_7
REMARK    4  A    between atoms: O3_7  and  C4_8
REMARK    5  A    between atoms: C10_19  and  C11_20
REMARK    6  A    between atoms: C11_20  and  O4_21
REMARK    7  A    between atoms: C12_23  and  O5_24
REMARK    8  A    between atoms: C13_26  and  O6_27
ROOT
HETATM    1  C2  UNL     1      -1.928   5.912  13.393  1.00  0.00     0.179 C
HETATM    2  O2  UNL     1      -2.946   4.985  13.421  1.00  0.00    -0.350 OA
HETATM    3  C3  UNL     1      -3.924   5.201  12.457  1.00  0.00     0.275 C
HETATM    4  C10 UNL     1      -3.422   5.258  11.072  1.00  0.00     0.096 C
HETATM    5  C12 UNL     1      -2.089   5.939  10.905  1.00  0.00     0.160 C
HETATM    6  C13 UNL     1      -1.196   5.793  12.104  1.00  0.00     0.178 C
ENDROOT
BRANCH   3   7
HETATM    7  O3  UNL     1      -4.828   4.127  12.593  1.00  0.00    -0.316 OA
BRANCH   7   8
HETATM    8  C4  UNL     1      -5.108   3.416  13.711  1.00  0.00     0.119 A
HETATM    9  C5  UNL     1      -5.889   3.932  14.709  1.00  0.00     0.092 A
HETATM   10 CL1  UNL     1      -6.572   5.525  14.600  1.00  0.00    -0.079 Cl
HETATM   11  C6  UNL     1      -6.188   3.218  15.866  1.00  0.00     0.082 A
HETATM   12 CL2  UNL     1      -7.189   3.895  17.132  1.00  0.00    -0.081 Cl
HETATM   13  C7  UNL     1      -5.690   1.945  16.035  1.00  0.00     0.081 A
HETATM   14 CL3  UNL     1      -6.060   1.018  17.501  1.00  0.00    -0.081 Cl
HETATM   15  C8  UNL     1      -4.903   1.415  15.037  1.00  0.00     0.082 A
HETATM   16 CL4  UNL     1      -4.285  -0.211  15.284  1.00  0.00    -0.081 Cl
HETATM   17  C9  UNL     1      -4.619   2.139  13.898  1.00  0.00     0.092 A
HETATM   18 CL5  UNL     1      -3.597   1.366  12.675  1.00  0.00    -0.079 Cl
ENDBRANCH   7   8
ENDBRANCH   3   7
BRANCH   4  19
HETATM   19  C11 UNL     1      -3.275   3.886  10.423  1.00  0.00     0.176 C
BRANCH  19  20
HETATM   20  O4  UNL     1      -4.505   3.455   9.930  1.00  0.00    -0.400 OA
ATOM     21  H4  UNL     1      -5.111   3.307  10.647  1.00  0.00     0.209 HD
ENDBRANCH  19  20
ENDBRANCH   4  19
BRANCH   1  22
HETATM   22  C1  UNL     1      -2.389   7.321  13.685  1.00  0.00     0.198 C
BRANCH  22  23
HETATM   23  O1  UNL     1      -1.403   8.046  14.355  1.00  0.00    -0.398 OA
ATOM     24  H1  UNL     1      -0.680   7.486  14.612  1.00  0.00     0.209 HD
ENDBRANCH  22  23
ENDBRANCH   1  22
BRANCH   5  25
HETATM   25  O5  UNL     1      -2.234   7.297  10.623  1.00  0.00    -0.392 OA
ATOM     26  H5  UNL     1      -1.493   7.637  10.134  1.00  0.00     0.210 HD
ENDBRANCH   5  25
BRANCH   6  27
HETATM   27  O6  UNL     1      -0.176   6.742  11.978  1.00  0.00    -0.390 OA
ATOM     28  H6  UNL     1      -0.509   7.626  11.877  1.00  0.00     0.210 HD
ENDBRANCH   6  27
TORSDOF 8
ENDMDL