MODEL 4
REMARK VINA RESULT: -7.239045505      2.451      2.717
REMARK  9 active torsions:
REMARK  status: ('A' for Active; 'I' for Inactive)
REMARK    1  A    between atoms: C6_7  and  C7_8
REMARK    2  A    between atoms: C7_8  and  N1_10
REMARK    3  A    between atoms: C7_8  and  C16_28
REMARK    4  A    between atoms: N1_10  and  C8_13
REMARK    5  A    between atoms: C8_13  and  C9_14
REMARK    6  A    between atoms: C10_16  and  O2_17
REMARK    7  A    between atoms: C10_16  and  C11_19
REMARK    8  A    between atoms: C14_22  and  O3_23
REMARK    9  A    between atoms: C15_25  and  O4_26
ROOT
HETATM    1  N1  UNL     1      -4.577   4.287  11.964  1.00  0.00    -0.035 N
ATOM      2  H11 UNL     1      -4.704   3.416  11.451  1.00  0.00     0.280 HD
ATOM      3  H12 UNL     1      -5.497   4.687  11.784  1.00  0.00     0.280 HD
ENDROOT
BRANCH   1   4
HETATM    4  C7  UNL     1      -3.463   5.124  11.418  1.00  0.00     0.340 C
HETATM    5 CL2  UNL     1      -2.032   5.100  12.421  1.00  0.00    -0.072 Cl
BRANCH   4   6
HETATM    6  C6  UNL     1      -3.989   6.490  11.252  1.00  0.00     0.092 A
HETATM    7  C5  UNL     1      -3.291   7.576  10.806  1.00  0.00     0.060 A
HETATM    8  C4  UNL     1      -3.826   8.830  10.561  1.00  0.00     0.028 A
HETATM    9 CL1  UNL     1      -1.530   7.428  10.623  1.00  0.00    -0.082 Cl
HETATM   10  C3  UNL     1      -5.157   9.025  10.780  1.00  0.00     0.026 A
HETATM   11  C2  UNL     1      -5.883   7.932  11.238  1.00  0.00     0.005 A
HETATM   12  C1  UNL     1      -7.343   8.223  11.458  1.00  0.00     0.068 C
HETATM   13  N2  UNL     1      -5.329   6.735  11.461  1.00  0.00    -0.359 N
ATOM     14  H2  UNL     1      -5.920   5.976  11.798  1.00  0.00     0.165 HD
ENDBRANCH   4   6
BRANCH   4  15
HETATM   15  C16 UNL     1      -3.120   4.463  10.076  1.00  0.00     0.441 C
HETATM   16  F1  UNL     1      -3.663   3.168  10.119  1.00  0.00    -0.167 F
HETATM   17  F2  UNL     1      -1.809   4.327   9.859  1.00  0.00    -0.167 F
HETATM   18  F3  UNL     1      -3.791   5.114   9.049  1.00  0.00    -0.167 F
ENDBRANCH   4  15
ENDBRANCH   1   4
BRANCH   1  19
HETATM   19  C8  UNL     1      -4.328   4.080  13.347  1.00  0.00     0.270 C
BRANCH  19  20
HETATM   20  C9  UNL     1      -4.971   2.823  13.916  1.00  0.00     0.182 C
HETATM   21  O1  UNL     1      -4.644   2.800  15.254  1.00  0.00    -0.343 OA
HETATM   22  C10 UNL     1      -4.568   1.499  15.711  1.00  0.00     0.194 C
HETATM   23  C14 UNL     1      -4.200   0.674  14.565  1.00  0.00     0.212 C
HETATM   24  C15 UNL     1      -4.317   1.581  13.368  1.00  0.00     0.182 C
BRANCH  22  25
HETATM   25  O2  UNL     1      -3.545   1.512  16.691  1.00  0.00    -0.363 OA
ATOM     26  H2  UNL     1      -3.399   0.598  16.907  1.00  0.00     0.213 HD
ENDBRANCH  22  25
BRANCH  22  27
HETATM   27  C11 UNL     1      -5.829   1.150  16.426  1.00  0.00     0.043 C
HETATM   28  C12 UNL     1      -5.669   0.448  17.715  1.00  0.00     0.015 C
HETATM   29  C13 UNL     1      -6.574   2.451  16.672  1.00  0.00     0.015 C
ENDBRANCH  22  27
BRANCH  23  30
HETATM   30  O3  UNL     1      -4.946  -0.472  14.365  1.00  0.00    -0.387 OA
ATOM     31  H3  UNL     1      -5.297  -0.601  13.492  1.00  0.00     0.210 HD
ENDBRANCH  23  30
BRANCH  24  32
HETATM   32  O4  UNL     1      -3.030   1.830  12.896  1.00  0.00    -0.390 OA
ATOM     33  H4  UNL     1      -2.572   1.030  12.665  1.00  0.00     0.210 HD
ENDBRANCH  24  32
ENDBRANCH  19  20
ENDBRANCH   1  19
TORSDOF 9
ENDMDL