MODEL 5
REMARK VINA RESULT: -7.256513979      2.693      3.412
REMARK  7 active torsions:
REMARK  status: ('A' for Active; 'I' for Inactive)
REMARK    1  A    between atoms: N1_1  and  C1_4
REMARK    2  A    between atoms: C3_8  and  C4_9
REMARK    3  A    between atoms: N3_11  and  C6_12
REMARK    4  A    between atoms: C7_15  and  C8_16
REMARK    5  A    between atoms: C8_16  and  C9_17
REMARK    6  A    between atoms: C9_17  and  C10_20
REMARK    7  A    between atoms: C12_27  and  N6_28
ROOT
HETATM    1  C6  UNL     1      -4.173   5.528  10.667  1.00  0.00     0.148 A
HETATM    2  N4  UNL     1      -4.966   6.613  10.441  1.00  0.00    -0.342 N
ATOM      3  H4  UNL     1      -5.361   7.133  11.225  1.00  0.00     0.167 HD
HETATM    4  C7  UNL     1      -5.223   6.994   9.179  1.00  0.00     0.029 A
HETATM    5  C11 UNL     1      -4.703   6.315   8.113  1.00  0.00     0.115 A
HETATM    6  N5  UNL     1      -3.922   5.246   8.344  1.00  0.00    -0.348 N
ATOM      7  H5  UNL     1      -3.529   4.729   7.557  1.00  0.00     0.167 HD
HETATM    8  C12 UNL     1      -3.655   4.852   9.594  1.00  0.00     0.143 A
ENDROOT
BRANCH   1   9
HETATM    9  N3  UNL     1      -3.934   5.166  12.033  1.00  0.00    -0.359 N
HETATM   10  C5  UNL     1      -4.747   4.220  12.766  1.00  0.00     0.161 C
HETATM   11  C4  UNL     1      -4.107   4.047  14.122  1.00  0.00     0.175 C
HETATM   12  O1  UNL     1      -4.089   5.325  14.715  1.00  0.00    -0.378 OA
HETATM   13  C14 UNL     1      -3.055   6.034  14.164  1.00  0.00     0.188 C
HETATM   14  C13 UNL     1      -2.832   5.777  12.708  1.00  0.00     0.151 C
BRANCH  11  15
HETATM   15  C3  UNL     1      -4.864   3.151  15.020  1.00  0.00     0.004 A
HETATM   16  C2  UNL     1      -4.474   1.892  15.382  1.00  0.00     0.117 A
HETATM   17  N2  UNL     1      -5.253   1.165  16.214  1.00  0.00    -0.202 N
HETATM   18  C1  UNL     1      -6.415   1.621  16.714  1.00  0.00     0.675 A
ATOM     19  H2  UNL     1      -4.946   0.229  16.474  1.00  0.00     0.183 HD
HETATM   20  N7  UNL     1      -6.798   2.858  16.358  1.00  0.00    -0.202 N
HETATM   21  C15 UNL     1      -6.058   3.618  15.535  1.00  0.00     0.117 A
ATOM     22  H7  UNL     1      -7.675   3.230  16.722  1.00  0.00     0.183 HD
BRANCH  18  23
HETATM   23  N1  UNL     1      -7.141   0.882  17.518  1.00  0.00    -0.234 N
ATOM     24  H12 UNL     1      -7.019  -0.129  17.569  1.00  0.00     0.174 HD
ATOM     25  H11 UNL     1      -7.851   1.301  18.118  1.00  0.00     0.174 HD
ENDBRANCH  18  23
ENDBRANCH  11  15
ENDBRANCH   1   9
BRANCH   8  26
HETATM   26  N6  UNL     1      -2.901   3.821   9.845  1.00  0.00    -0.382 N
ATOM     27  H62 UNL     1      -3.032   3.246  10.677  1.00  0.00     0.157 HD
ATOM     28  H61 UNL     1      -2.165   3.606   9.173  1.00  0.00     0.157 HD
ENDBRANCH   8  26
BRANCH   4  29
HETATM   29  C8  UNL     1      -6.087   8.177   8.930  1.00  0.00     0.110 C
BRANCH  29  30
HETATM   30  C9  UNL     1      -7.557   7.856   9.138  1.00  0.00     0.215 C
HETATM   31 CL1  UNL     1      -7.909   6.267   8.421  1.00  0.00    -0.091 Cl
HETATM   32 CL2  UNL     1      -7.875   7.881  10.884  1.00  0.00    -0.091 Cl
BRANCH  30  33
HETATM   33  C10 UNL     1      -8.338   8.957   8.427  1.00  0.00     0.422 C
HETATM   34  F1  UNL     1      -8.103  10.188   9.007  1.00  0.00    -0.168 F
HETATM   35  F2  UNL     1      -7.871   8.986   7.119  1.00  0.00    -0.168 F
HETATM   36  F3  UNL     1      -9.672   8.607   8.453  1.00  0.00    -0.168 F
ENDBRANCH  30  33
ENDBRANCH  29  30
ENDBRANCH   4  29
TORSDOF 7
ENDMDL