MODEL 3
REMARK VINA RESULT: -8.505987569      1.040      1.307
REMARK  9 active torsions:
REMARK  status: ('A' for Active; 'I' for Inactive)
REMARK    1  A    between atoms: C6_6  and  C7_7
REMARK    2  A    between atoms: C7_7  and  O1_8
REMARK    3  A    between atoms: C8_10  and  C9_11
REMARK    4  A    between atoms: C9_11  and  C10_12
REMARK    5  A    between atoms: C10_12  and  C11_13
REMARK    6  A    between atoms: C11_13  and  N1_14
REMARK    7  A    between atoms: N1_14  and  S1_16
REMARK    8  A    between atoms: S1_16  and  N2_17
REMARK    9  A    between atoms: S1_16  and  C12_21
ROOT
HETATM    1  N1  UNL     1      15.852  11.054  11.066  1.00  0.00    -0.332 N
ATOM      2  H1  UNL     1      16.552  11.307  11.763  1.00  0.00     0.170 HD
ENDROOT
BRANCH   1   3
HETATM    3  C11 UNL     1      16.161  10.431   9.793  1.00  0.00     0.131 C
BRANCH   3   4
HETATM    4  C10 UNL     1      16.989   9.164  10.047  1.00  0.00     0.021 C
BRANCH   4   5
HETATM    5  C9  UNL     1      16.113   7.962  10.132  1.00  0.00     0.012 C
BRANCH   5   6
HETATM    6  C8  UNL     1      16.728   6.667   9.896  1.00  0.00    -0.027 C
HETATM    7  C2  UNL     1      16.958   5.730  11.098  1.00  0.00    -0.036 C
HETATM    8  C1  UNL     1      17.604   6.384  12.285  1.00  0.00     0.016 C
HETATM    9  C3  UNL     1      15.828   4.837  11.450  1.00  0.00     0.016 C
HETATM   10  C4  UNL     1      18.025   5.139  10.201  1.00  0.00    -0.005 C
HETATM   11  C5  UNL     1      17.277   4.629   9.007  1.00  0.00     0.013 C
HETATM   12  C18 UNL     1      18.235   6.599   9.784  1.00  0.00     0.016 C
HETATM   13  C6  UNL     1      16.213   5.724   8.888  1.00  0.00     0.019 C
BRANCH  13  14
HETATM   14  C7  UNL     1      16.133   6.163   7.482  1.00  0.00     0.169 C
BRANCH  14  15
HETATM   15  O1  UNL     1      16.893   5.519   6.558  1.00  0.00    -0.400 OA
ATOM     16  H1  UNL     1      17.664   5.959   6.220  1.00  0.00     0.209 HD
ENDBRANCH  14  15
ENDBRANCH  13  14
ENDBRANCH   5   6
ENDBRANCH   4   5
ENDBRANCH   3   4
ENDBRANCH   1   3
BRANCH   1  17
HETATM   17  S1  UNL     1      14.172  11.313  11.258  1.00  0.00     0.134 S
HETATM   18  O2  UNL     1      13.461  10.205  10.494  1.00  0.00    -0.224 OA
BRANCH  17  19
HETATM   19  N2  UNL     1      13.690  12.661  10.681  1.00  0.00    -0.341 N
ATOM     20  H22 UNL     1      13.810  13.543  11.178  1.00  0.00     0.167 HD
ATOM     21  H21 UNL     1      13.247  12.575   9.766  1.00  0.00     0.167 HD
ENDBRANCH  17  19
BRANCH  17  22
HETATM   22  C12 UNL     1      13.700  11.253  12.955  1.00  0.00     0.079 A
HETATM   23  C13 UNL     1      12.956  12.268  13.518  1.00  0.00     0.027 A
HETATM   24  C14 UNL     1      12.589  12.206  14.862  1.00  0.00     0.025 A
HETATM   25  C15 UNL     1      12.949  11.150  15.667  1.00  0.00     0.035 A
HETATM   26 CL1  UNL     1      12.471  11.100  17.365  1.00  0.00    -0.084 Cl
HETATM   27  C16 UNL     1      13.692  10.137  15.101  1.00  0.00     0.049 A
HETATM   28  C17 UNL     1      14.057  10.198  13.763  1.00  0.00     0.057 A
HETATM   29 CL2  UNL     1      15.001   8.913  13.042  1.00  0.00    -0.083 Cl
ENDBRANCH  17  22
ENDBRANCH   1  17
TORSDOF 9
ENDMDL