MODEL 5
REMARK VINA RESULT: -8.969558322      4.842      9.858
REMARK  9 active torsions:
REMARK  status: ('A' for Active; 'I' for Inactive)
REMARK    1  A    between atoms: C2_2  and  C3_3
REMARK    2  A    between atoms: C4_8  and  N3_9
REMARK    3  A    between atoms: N3_9  and  C5_11
REMARK    4  A    between atoms: C7_13  and  N4_14
REMARK    5  A    between atoms: N4_14  and  C8_16
REMARK    6  A    between atoms: C8_16  and  C9_17
REMARK    7  A    between atoms: C16_30  and  C17_31
REMARK    8  A    between atoms: C17_31  and  C18_32
REMARK    9  A    between atoms: C18_32  and  C19_33
ROOT
HETATM    1  C5  UNL     1      16.714  10.007   9.234  1.00  0.00     0.111 A
HETATM    2  C6  UNL     1      16.076   8.693   9.116  1.00  0.00     0.096 A
HETATM    3  C7  UNL     1      16.294   7.895   8.041  1.00  0.00     0.105 A
HETATM    4  N5  UNL     1      17.131   8.395   7.082  1.00  0.00    -0.339 N
ATOM      5  H5  UNL     1      17.314   7.823   6.258  1.00  0.00     0.168 HD
HETATM    6  C15 UNL     1      17.728   9.599   7.161  1.00  0.00     0.183 A
HETATM    7  N6  UNL     1      17.495  10.384   8.261  1.00  0.00    -0.338 N
ATOM      8  H6  UNL     1      17.948  11.296   8.320  1.00  0.00     0.168 HD
ENDROOT
BRANCH   1   9
HETATM    9  N3  UNL     1      16.288  10.694  10.351  1.00  0.00    -0.327 N
ATOM     10  H3  UNL     1      17.054  11.062  10.916  1.00  0.00     0.169 HD
BRANCH   9  11
HETATM   11  C4  UNL     1      15.145  10.963  10.822  1.00  0.00     0.129 A
HETATM   12  N2  UNL     1      14.174  11.793  10.632  1.00  0.00    -0.285 N
HETATM   13  N1  UNL     1      13.335  11.962  11.610  1.00  0.00    -0.303 N
ATOM     14  H2  UNL     1      14.070  12.296   9.750  1.00  0.00     0.188 HD
HETATM   15  C3  UNL     1      13.845  11.094  12.597  1.00  0.00     0.035 A
ATOM     16  H1  UNL     1      12.515  12.569  11.653  1.00  0.00     0.186 HD
HETATM   17  C16 UNL     1      14.920  10.480  12.178  1.00  0.00     0.011 A
BRANCH  15  18
HETATM   18  C2  UNL     1      13.243  11.162  13.978  1.00  0.00     0.055 C
HETATM   19  C1  UNL     1      13.450  12.618  14.501  1.00  0.00     0.011 C
ENDBRANCH  15  18
BRANCH  17  20
HETATM   20  C17 UNL     1      15.954   9.555  12.800  1.00  0.00     0.045 C
BRANCH  20  21
HETATM   21  C18 UNL     1      15.311   8.180  12.882  1.00  0.00     0.020 C
BRANCH  21  22
HETATM   22  C19 UNL     1      16.142   7.034  12.353  1.00  0.00     0.115 C
HETATM   23 CL2  UNL     1      15.358   5.476  12.361  1.00  0.00    -0.130 Cl
ENDBRANCH  21  22
ENDBRANCH  20  21
ENDBRANCH  17  20
ENDBRANCH   9  11
ENDBRANCH   1   9
BRANCH   3  24
HETATM   24  N4  UNL     1      15.796   6.811   7.768  1.00  0.00    -0.372 N
ATOM     25  H4  UNL     1      15.188   6.861   6.951  1.00  0.00     0.161 HD
BRANCH  24  26
HETATM   26  C8  UNL     1      15.859   5.469   8.324  1.00  0.00     0.161 C
BRANCH  26  27
HETATM   27  C9  UNL     1      17.102   4.935   7.686  1.00  0.00    -0.016 A
HETATM   28  C10 UNL     1      16.940   4.444   6.351  1.00  0.00     0.011 A
HETATM   29  C11 UNL     1      18.135   3.949   5.770  1.00  0.00     0.004 A
HETATM   30  C12 UNL     1      19.318   3.892   6.302  1.00  0.00     0.044 A
HETATM   31  C13 UNL     1      19.506   4.409   7.682  1.00  0.00     0.138 A
HETATM   32  F1  UNL     1      20.684   4.259   8.222  1.00  0.00    -0.204 F
HETATM   33  C14 UNL     1      18.341   4.887   8.225  1.00  0.00     0.080 A
HETATM   34 CL1  UNL     1      18.523   5.545   9.885  1.00  0.00    -0.080 Cl
ENDBRANCH  26  27
ENDBRANCH  24  26
ENDBRANCH   3  24
TORSDOF 9
ENDMDL