MODEL 4
REMARK VINA RESULT: -8.365167883      1.495      2.561
REMARK  7 active torsions:
REMARK  status: ('A' for Active; 'I' for Inactive)
REMARK    1  A    between atoms: C2_2  and  C4_4
REMARK    2  A    between atoms: C4_4  and  C5_5
REMARK    3  A    between atoms: C5_5  and  C6_6
REMARK    4  A    between atoms: C6_6  and  N1_7
REMARK    5  A    between atoms: N1_7  and  C7_9
REMARK    6  A    between atoms: C8_12  and  N3_13
REMARK    7  A    between atoms: N3_13  and  C9_15
ROOT
HETATM    1  C7  UNL     1      13.966  10.352  13.151  1.00  0.00     0.140 A
HETATM    2  N2  UNL     1      13.477  10.449  14.405  1.00  0.00    -0.175 N
ATOM      3  H2  UNL     1      13.707   9.723  15.083  1.00  0.00     0.186 HD
HETATM    4  C8  UNL     1      12.694  11.475  14.787  1.00  0.00     0.685 A
HETATM    5  N5  UNL     1      12.408  12.420  13.871  1.00  0.00    -0.200 N
ATOM      6  H5  UNL     1      11.816  13.204  14.146  1.00  0.00     0.183 HD
HETATM    7  C13 UNL     1      12.866  12.373  12.614  1.00  0.00     0.133 A
HETATM    8  C14 UNL     1      13.664  11.328  12.224  1.00  0.00     0.094 A
HETATM    9 CL3  UNL     1      14.270  11.264  10.569  1.00  0.00    -0.079 Cl
ENDROOT
BRANCH   1  10
HETATM   10  N1  UNL     1      14.711   9.387  12.768  1.00  0.00    -0.374 N
ATOM     11  H1  UNL     1      14.276   8.615  12.262  1.00  0.00     0.161 HD
BRANCH  10  12
HETATM   12  C6  UNL     1      16.142   9.324  13.013  1.00  0.00     0.133 C
BRANCH  12  13
HETATM   13  C5  UNL     1      16.654   8.019  12.527  1.00  0.00    -0.001 C
HETATM   14  C15 UNL     1      18.113   8.110  12.077  1.00  0.00     0.039 C
HETATM   15  C16 UNL     1      17.976   8.868  10.797  1.00  0.00     0.168 C
HETATM   16  O1  UNL     1      16.681   8.776  10.360  1.00  0.00    -0.390 OA
HETATM   17  C17 UNL     1      16.029   7.819  11.126  1.00  0.00     0.178 C
BRANCH  13  18
HETATM   18  C4  UNL     1      16.368   6.808  13.304  1.00  0.00     0.017 C
BRANCH  18  19
HETATM   19  C2  UNL     1      15.141   6.031  13.046  1.00  0.00    -0.022 C
HETATM   20  C1  UNL     1      15.273   4.578  12.733  1.00  0.00     0.009 C
HETATM   21  C3  UNL     1      14.310   6.105  14.348  1.00  0.00     0.009 C
ENDBRANCH  18  19
ENDBRANCH  13  18
ENDBRANCH  12  13
ENDBRANCH  10  12
ENDBRANCH   1  10
BRANCH   4  22
HETATM   22  N3  UNL     1      12.226  11.566  15.989  1.00  0.00    -0.175 N
ATOM     23  H3  UNL     1      11.272  11.266  16.189  1.00  0.00     0.186 HD
BRANCH  22  24
HETATM   24  C9  UNL     1      13.034  12.081  17.018  1.00  0.00     0.144 A
HETATM   25  N4  UNL     1      14.239  12.701  16.902  1.00  0.00    -0.331 N
HETATM   26  C10 UNL     1      14.685  13.042  18.124  1.00  0.00     0.106 A
ATOM     27  H4  UNL     1      14.728  12.878  16.025  1.00  0.00     0.168 HD
HETATM   28 CL1  UNL     1      16.209  13.867  18.432  1.00  0.00    -0.064 Cl
HETATM   29  C11 UNL     1      13.764  12.642  19.045  1.00  0.00     0.070 A
HETATM   30  C12 UNL     1      12.721  12.037  18.363  1.00  0.00     0.081 A
HETATM   31 CL2  UNL     1      11.299  11.360  19.131  1.00  0.00    -0.080 Cl
ENDBRANCH  22  24
ENDBRANCH   4  22
TORSDOF 7
ENDMDL