MODEL 5
REMARK VINA RESULT: -6.886435342      4.508      8.280
REMARK  8 active torsions:
REMARK  status: ('A' for Active; 'I' for Inactive)
REMARK    1  A    between atoms: C2_2  and  C4_4
REMARK    2  A    between atoms: C4_4  and  C5_6
REMARK    3  A    between atoms: C5_6  and  N1_7
REMARK    4  A    between atoms: C5_6  and  C10_20
REMARK       I    between atoms: N1_7  and  C6_9
REMARK       I    between atoms: C6_9  and  N2_11
REMARK    5  A    between atoms: N2_11  and  C7_13
REMARK    6  A    between atoms: C10_20  and  C13_23
REMARK    7  A    between atoms: C13_23  and  N4_24
REMARK    8  A    between atoms: N4_24  and  C14_26
ROOT
HETATM    1  C5  UNL     1      17.085   7.677   9.562  1.00  0.00     0.114 C
ENDROOT
BRANCH   1   2
HETATM    2  C4  UNL     1      16.214   8.788   9.148  1.00  0.00     0.109 C
HETATM    3 CL1  UNL     1      15.024   9.417  10.253  1.00  0.00    -0.122 Cl
BRANCH   2   4
HETATM    4  C2  UNL     1      17.116   9.991   8.802  1.00  0.00    -0.002 C
HETATM    5  C1  UNL     1      17.635   9.955   7.395  1.00  0.00     0.011 C
HETATM    6  C3  UNL     1      18.213  10.195   9.803  1.00  0.00     0.011 C
ENDBRANCH   2   4
ENDBRANCH   1   2
BRANCH   1   7
HETATM    7  N1  UNL     1      16.846   6.675   8.470  1.00  0.00    -0.336 N
HETATM    8  C6  UNL     1      17.789   6.303   7.489  1.00  0.00     0.322 C
HETATM    9  O1  UNL     1      18.935   6.834   7.529  1.00  0.00    -0.247 OA
HETATM   10  N2  UNL     1      17.372   5.378   6.548  1.00  0.00    -0.289 N
ATOM     11  H2  UNL     1      16.498   5.598   6.071  1.00  0.00     0.172 HD
ATOM     12  H1  UNL     1      15.929   6.229   8.435  1.00  0.00     0.164 HD
BRANCH  10  13
HETATM   13  C7  UNL     1      17.940   4.272   6.192  1.00  0.00     0.153 A
HETATM   14  N3  UNL     1      17.340   3.082   6.041  1.00  0.00    -0.344 N
HETATM   15  C8  UNL     1      18.048   2.063   5.679  1.00  0.00     0.121 A
ATOM     16  H3  UNL     1      16.339   2.982   6.210  1.00  0.00     0.167 HD
HETATM   17  C9  UNL     1      19.390   2.249   5.462  1.00  0.00     0.093 A
HETATM   18 CL2  UNL     1      20.599   1.049   4.969  1.00  0.00    -0.075 Cl
HETATM   19  S1  UNL     1      19.570   3.917   5.800  1.00  0.00    -0.040 SA
ENDBRANCH  10  13
ENDBRANCH   1   7
BRANCH   1  20
HETATM   20  C10 UNL     1      16.827   6.880  10.759  1.00  0.00    -0.010 C
HETATM   21  C11 UNL     1      18.156   6.235  11.189  1.00  0.00     0.018 C
HETATM   22  C12 UNL     1      16.003   5.605  10.302  1.00  0.00     0.018 C
BRANCH  20  23
HETATM   23  C13 UNL     1      16.135   7.330  11.957  1.00  0.00     0.125 C
BRANCH  23  24
HETATM   24  N4  UNL     1      15.289   6.357  12.546  1.00  0.00    -0.413 N
ATOM     25  H4  UNL     1      14.846   5.618  12.000  1.00  0.00     0.154 HD
BRANCH  24  26
HETATM   26  C14 UNL     1      15.099   6.479  13.952  1.00  0.00     0.014 C
HETATM   27  C15 UNL     1      14.368   7.690  14.414  1.00  0.00     0.037 C
HETATM   28  C16 UNL     1      14.320   5.237  14.396  1.00  0.00     0.037 C
HETATM   29  C17 UNL     1      16.401   6.427  14.744  1.00  0.00     0.037 C
ENDBRANCH  24  26
ENDBRANCH  23  24
ENDBRANCH  20  23
ENDBRANCH   1  20
TORSDOF 8
ENDMDL