MODEL 1
REMARK VINA RESULT: -8.058637384      0.000      0.000
REMARK  7 active torsions:
REMARK  status: ('A' for Active; 'I' for Inactive)
REMARK    1  A    between atoms: N1_2  and  C2_3
REMARK       I    between atoms: N1_2  and  C7_9
REMARK    2  A    between atoms: C2_3  and  C3_4
REMARK    3  A    between atoms: C3_4  and  C4_5
REMARK    4  A    between atoms: C4_5  and  C5_6
REMARK    5  A    between atoms: C5_6  and  C6_7
REMARK       I    between atoms: C7_9  and  N2_11
REMARK    6  A    between atoms: N2_11  and  C8_13
REMARK    7  A    between atoms: C11_18  and  C12_19
ROOT
HETATM    1  C8  UNL     1      14.301  11.075  11.804  1.00  0.00     0.686 A
HETATM    2  N3  UNL     1      15.212  11.313  10.842  1.00  0.00    -0.202 N
ATOM      3  H3  UNL     1      15.160  12.153  10.267  1.00  0.00     0.183 HD
HETATM    4  C9  UNL     1      16.178  10.422  10.666  1.00  0.00     0.108 A
HETATM    5  C10 UNL     1      16.250   9.265  11.460  1.00  0.00     0.050 A
HETATM    6  C11 UNL     1      15.324   9.031  12.432  1.00  0.00     0.079 A
HETATM    7  N5  UNL     1      14.362   9.958  12.578  1.00  0.00    -0.189 N
ATOM      8  H5  UNL     1      13.650   9.818  13.295  1.00  0.00     0.184 HD
ENDROOT
BRANCH   1   9
HETATM    9  N2  UNL     1      13.342  11.920  12.008  1.00  0.00    -0.141 N
HETATM   10  C7  UNL     1      12.612  11.879  13.227  1.00  0.00     0.336 C
HETATM   11  N1  UNL     1      13.100  12.538  14.414  1.00  0.00    -0.338 N
HETATM   12  O1  UNL     1      11.527  11.242  13.213  1.00  0.00    -0.246 OA
HETATM   13  C1  UNL     1      14.344  13.240  14.336  1.00  0.00     0.154 C
ATOM     14  H2  UNL     1      13.110  12.612  11.296  1.00  0.00     0.189 HD
BRANCH  11  15
HETATM   15  C2  UNL     1      12.324  12.415  15.603  1.00  0.00     0.127 C
BRANCH  15  16
HETATM   16  C3  UNL     1      13.048  11.983  16.839  1.00  0.00     0.020 C
BRANCH  16  17
HETATM   17  C4  UNL     1      12.384  10.940  17.676  1.00  0.00     0.002 C
BRANCH  17  18
HETATM   18  C5  UNL     1      11.229  11.453  18.485  1.00  0.00     0.011 C
BRANCH  18  19
HETATM   19  C6  UNL     1      11.377  11.133  19.960  1.00  0.00     0.086 C
HETATM   20  S1  UNL     1      12.223  12.434  20.857  1.00  0.00    -0.098 SA
ENDBRANCH  18  19
ENDBRANCH  17  18
ENDBRANCH  16  17
ENDBRANCH  15  16
ENDBRANCH  11  15
ENDBRANCH   1   9
BRANCH   6  21
HETATM   21  C12 UNL     1      15.316   7.861  13.305  1.00  0.00     0.084 A
HETATM   22  N4  UNL     1      15.143   7.920  14.663  1.00  0.00    -0.342 N
HETATM   23  C13 UNL     1      15.180   6.703  15.203  1.00  0.00     0.127 A
ATOM     24  H4  UNL     1      15.003   8.782  15.191  1.00  0.00     0.167 HD
HETATM   25 CL1  UNL     1      15.000   6.321  16.928  1.00  0.00    -0.063 Cl
HETATM   26  C14 UNL     1      15.378   5.813  14.203  1.00  0.00     0.096 A
HETATM   27 CL2  UNL     1      15.512   4.082  14.307  1.00  0.00    -0.079 Cl
HETATM   28  C15 UNL     1      15.464   6.533  13.007  1.00  0.00     0.087 A
HETATM   29 CL3  UNL     1      15.722   5.797  11.423  1.00  0.00    -0.080 Cl
ENDBRANCH   6  21
TORSDOF 7
ENDMDL