MODEL 2
REMARK VINA RESULT: -7.026752058      4.295      7.062
REMARK  8 active torsions:
REMARK  status: ('A' for Active; 'I' for Inactive)
REMARK    1  A    between atoms: C2_2  and  C3_3
REMARK    2  A    between atoms: C3_3  and  C4_4
REMARK    3  A    between atoms: C4_4  and  O1_6
REMARK    4  A    between atoms: C4_4  and  C6_8
REMARK    5  A    between atoms: C6_8  and  O2_9
REMARK    6  A    between atoms: C6_8  and  C7_11
REMARK    7  A    between atoms: C7_11  and  N1_12
REMARK    8  A    between atoms: N1_12  and  C8_14
ROOT
HETATM    1  C7  UNL     1      14.789  10.687  12.196  1.00  0.00     0.154 C
ENDROOT
BRANCH   1   2
HETATM    2  C6  UNL     1      13.539  11.496  12.179  1.00  0.00     0.169 C
BRANCH   2   3
HETATM    3  C4  UNL     1      12.884  11.667  13.541  1.00  0.00     0.081 C
HETATM    4  C5  UNL     1      13.194  13.012  14.091  1.00  0.00     0.049 C
BRANCH   3   5
HETATM    5  C3  UNL     1      13.396  10.523  14.388  1.00  0.00     0.040 C
BRANCH   5   6
HETATM    6  C2  UNL     1      13.304  10.747  15.858  1.00  0.00    -0.002 C
HETATM    7  C1  UNL     1      13.747   9.445  16.529  1.00  0.00     0.005 C
ENDBRANCH   5   6
ENDBRANCH   3   5
BRANCH   3   8
HETATM    8  O1  UNL     1      11.505  11.529  13.388  1.00  0.00    -0.388 OA
ATOM      9  H1  UNL     1      11.151  12.346  13.056  1.00  0.00     0.210 HD
ENDBRANCH   3   8
ENDBRANCH   2   3
BRANCH   2  10
HETATM   10  O2  UNL     1      12.676  11.073  11.200  1.00  0.00    -0.391 OA
ATOM     11  H2  UNL     1      12.743  11.567  10.391  1.00  0.00     0.210 HD
ENDBRANCH   2  10
ENDBRANCH   1   2
BRANCH   1  12
HETATM   12  N1  UNL     1      15.587  10.768  10.998  1.00  0.00    -0.387 N
ATOM     13  H1  UNL     1      15.827  11.703  10.668  1.00  0.00     0.159 HD
BRANCH  12  14
HETATM   14  C8  UNL     1      16.069   9.685  10.239  1.00  0.00     0.030 A
HETATM   15  C9  UNL     1      16.661   9.925   9.006  1.00  0.00     0.054 A
HETATM   16  C10 UNL     1      17.122   8.894   8.220  1.00  0.00     0.054 A
HETATM   17 CL1  UNL     1      17.866   9.204   6.666  1.00  0.00    -0.083 Cl
HETATM   18  C11 UNL     1      17.009   7.585   8.637  1.00  0.00     0.050 A
HETATM   19 BR1  UNL     1      17.625   6.110   7.603  1.00  0.00    -0.048 Br
HETATM   20  C12 UNL     1      16.426   7.311   9.857  1.00  0.00     0.032 A
HETATM   21 BR2  UNL     1      16.244   5.528  10.486  1.00  0.00    -0.050 Br
HETATM   22  C13 UNL     1      15.972   8.384  10.622  1.00  0.00     0.049 A
ENDBRANCH  12  14
ENDBRANCH   1  12
TORSDOF 8
ENDMDL