MODEL 1
REMARK VINA RESULT: -7.710054935      0.000      0.000
REMARK  8 active torsions:
REMARK  status: ('A' for Active; 'I' for Inactive)
REMARK    1  A    between atoms: C2_2  and  C3_3
REMARK    2  A    between atoms: C3_3  and  N1_4
REMARK    3  A    between atoms: C4_5  and  N2_6
REMARK    4  A    between atoms: N2_6  and  C5_8
REMARK    5  A    between atoms: C5_8  and  C6_9
REMARK    6  A    between atoms: C6_9  and  C7_10
REMARK    7  A    between atoms: C9_14  and  O1_15
REMARK    8  A    between atoms: C10_17  and  C11_18
ROOT
HETATM    1  N2  UNL     1      15.577   8.768  12.075  1.00  0.00    -0.225 N
ATOM      2  H2  UNL     1      15.622   7.760  12.229  1.00  0.00     0.177 HD
ENDROOT
BRANCH   1   3
HETATM    3  C4  UNL     1      14.881   9.411  12.916  1.00  0.00     0.684 A
HETATM    4  N1  UNL     1      14.737   8.867  14.136  1.00  0.00    -0.146 N
HETATM    5  C15 UNL     1      14.002   9.543  15.031  1.00  0.00     0.282 A
HETATM    6  C14 UNL     1      13.413  10.770  14.692  1.00  0.00     0.118 A
HETATM    7  O2  UNL     1      13.813   9.115  16.191  1.00  0.00    -0.266 OA
HETATM    8  C13 UNL     1      13.596  11.277  13.430  1.00  0.00     0.142 A
HETATM    9 BR1  UNL     1      12.364  11.761  15.935  1.00  0.00    -0.042 Br
HETATM   10  N4  UNL     1      14.335  10.581  12.555  1.00  0.00    -0.179 N
HETATM   11 CL1  UNL     1      12.858  12.816  12.996  1.00  0.00    -0.062 Cl
ATOM     12  H4  UNL     1      14.481  10.942  11.612  1.00  0.00     0.185 HD
BRANCH   4  13
HETATM   13  C3  UNL     1      15.343   7.626  14.458  1.00  0.00     0.151 C
BRANCH  13  14
HETATM   14  C2  UNL     1      14.434   6.434  14.374  1.00  0.00     0.016 C
HETATM   15  C1  UNL     1      14.937   5.535  13.265  1.00  0.00     0.006 C
ENDBRANCH  13  14
ENDBRANCH   4  13
ENDBRANCH   1   3
BRANCH   1  16
HETATM   16  C5  UNL     1      16.305   9.238  10.951  1.00  0.00     0.142 C
BRANCH  16  17
HETATM   17  C6  UNL     1      15.617   8.935   9.642  1.00  0.00     0.061 C
BRANCH  17  18
HETATM   18  C7  UNL     1      16.520   8.386   8.620  1.00  0.00    -0.028 A
HETATM   19  C8  UNL     1      17.185   9.138   7.658  1.00  0.00     0.098 A
HETATM   20  N3  UNL     1      17.906   8.297   6.900  1.00  0.00    -0.346 N
HETATM   21  C9  UNL     1      17.713   7.052   7.360  1.00  0.00     0.149 A
ATOM     22  H3  UNL     1      18.498   8.560   6.112  1.00  0.00     0.167 HD
HETATM   23  C10 UNL     1      16.855   7.066   8.433  1.00  0.00     0.034 A
BRANCH  21  24
HETATM   24  O1  UNL     1      18.316   5.940   6.797  1.00  0.00    -0.346 OA
ATOM     25  H1  UNL     1      18.045   5.051   6.993  1.00  0.00     0.219 HD
ENDBRANCH  21  24
BRANCH  23  26
HETATM   26  C11 UNL     1      16.399   5.897   9.217  1.00  0.00     0.204 C
HETATM   27  C12 UNL     1      15.675   4.877   8.334  1.00  0.00     0.050 C
HETATM   28  F1  UNL     1      17.529   5.243   9.700  1.00  0.00    -0.245 F
ENDBRANCH  23  26
ENDBRANCH  17  18
ENDBRANCH  16  17
ENDBRANCH   1  16
TORSDOF 8
ENDMDL