MODEL 2
REMARK VINA RESULT: -8.470845876      1.836      4.806
REMARK  8 active torsions:
REMARK  status: ('A' for Active; 'I' for Inactive)
REMARK    1  A    between atoms: C2_2  and  C3_3
REMARK    2  A    between atoms: C3_3  and  N1_4
REMARK    3  A    between atoms: N1_4  and  C4_6
REMARK    4  A    between atoms: C4_6  and  C6_8
REMARK    5  A    between atoms: C6_8  and  N2_9
REMARK    6  A    between atoms: N2_9  and  C7_11
REMARK    7  A    between atoms: C8_14  and  C9_15
REMARK    8  A    between atoms: C12_18  and  C13_19
ROOT
HETATM    1  C7  UNL     1      13.723  10.032  15.883  1.00  0.00     0.117 A
HETATM    2  N3  UNL     1      14.237   8.768  15.874  1.00  0.00    -0.331 N
ATOM      3  H3  UNL     1      14.343   8.289  16.768  1.00  0.00     0.168 HD
HETATM    4  C8  UNL     1      14.611   8.119  14.766  1.00  0.00     0.092 A
HETATM    5  N4  UNL     1      14.457   8.793  13.597  1.00  0.00    -0.331 N
ATOM      6  H4  UNL     1      14.735   8.327  12.733  1.00  0.00     0.168 HD
HETATM    7  C18 UNL     1      13.965  10.025  13.515  1.00  0.00     0.121 A
HETATM    8  N5  UNL     1      13.726  10.881  12.502  1.00  0.00    -0.351 N
ATOM      9  H5  UNL     1      13.911  10.680  11.519  1.00  0.00     0.166 HD
HETATM   10  C19 UNL     1      13.215  12.028  12.958  1.00  0.00     0.097 A
HETATM   11  C20 UNL     1      13.107  11.932  14.346  1.00  0.00    -0.029 A
HETATM   12  C21 UNL     1      12.564  13.003  15.165  1.00  0.00     0.050 C
HETATM   13  C22 UNL     1      13.576  10.692  14.670  1.00  0.00     0.059 A
ENDROOT
BRANCH   4  14
HETATM   14  C9  UNL     1      15.174   6.771  14.662  1.00  0.00     0.016 C
HETATM   15  C10 UNL     1      15.014   6.088  16.002  1.00  0.00     0.023 C
HETATM   16  C11 UNL     1      14.759   5.953  13.502  1.00  0.00     0.031 C
HETATM   17  C12 UNL     1      15.891   4.922  13.403  1.00  0.00     0.102 C
HETATM   18  C14 UNL     1      17.103   5.742  13.557  1.00  0.00    -0.035 C
HETATM   19  C15 UNL     1      17.822   6.179  12.328  1.00  0.00     0.015 C
HETATM   20  C16 UNL     1      18.151   5.022  14.435  1.00  0.00     0.015 C
HETATM   21  C17 UNL     1      16.676   6.967  14.359  1.00  0.00     0.026 C
BRANCH  17  22
HETATM   22  C13 UNL     1      15.781   4.018  12.232  1.00  0.00     0.392 C
HETATM   23  F1  UNL     1      14.615   3.241  12.449  1.00  0.00    -0.171 F
HETATM   24  F2  UNL     1      16.803   3.133  12.102  1.00  0.00    -0.171 F
HETATM   25  F3  UNL     1      15.490   4.703  11.048  1.00  0.00    -0.171 F
ENDBRANCH  17  22
ENDBRANCH   4  14
BRANCH   1  26
HETATM   26  N2  UNL     1      13.470  10.669  16.952  1.00  0.00    -0.373 N
ATOM     27  H2  UNL     1      14.235  11.224  17.336  1.00  0.00     0.161 HD
BRANCH  26  28
HETATM   28  C6  UNL     1      12.241  10.701  17.682  1.00  0.00     0.146 C
BRANCH  28  29
HETATM   29  C4  UNL     1      12.353  11.401  19.035  1.00  0.00     0.094 C
HETATM   30  C5  UNL     1      11.019  11.326  19.716  1.00  0.00     0.034 C
BRANCH  29  31
HETATM   31  N1  UNL     1      12.768  12.773  18.803  1.00  0.00    -0.396 N
ATOM     32  H1  UNL     1      12.212  13.408  18.231  1.00  0.00     0.159 HD
BRANCH  31  33
HETATM   33  C3  UNL     1      13.966  13.187  19.399  1.00  0.00     0.055 C
BRANCH  33  34
HETATM   34  C2  UNL     1      15.271  12.698  18.848  1.00  0.00     0.039 C
HETATM   35  C1  UNL     1      16.159  13.868  18.451  1.00  0.00     0.010 C
ENDBRANCH  33  34
ENDBRANCH  31  33
ENDBRANCH  29  31
ENDBRANCH  28  29
ENDBRANCH  26  28
ENDBRANCH   1  26
TORSDOF 8
ENDMDL