MODEL 2
REMARK VINA RESULT: -10.727921428      1.423      1.957
REMARK  8 active torsions:
REMARK  status: ('A' for Active; 'I' for Inactive)
REMARK    1  A    between atoms: N1_1  and  C1_4
REMARK    2  A    between atoms: C2_7  and  C3_8
REMARK    3  A    between atoms: C3_8  and  C4_9
REMARK    4  A    between atoms: N3_10  and  C5_12
REMARK    5  A    between atoms: N5_24  and  C15_25
REMARK    6  A    between atoms: C15_25  and  C16_26
REMARK    7  A    between atoms: C16_26  and  C17_27
REMARK    8  A    between atoms: C20_30  and  C21_31
ROOT
HETATM    1  C1  UNL     1      12.698  11.932  12.121  1.00  0.00     0.678 A
HETATM    2  N2  UNL     1      13.561  11.631  11.148  1.00  0.00    -0.194 N
ATOM      3  H2  UNL     1      13.435  11.869  10.165  1.00  0.00     0.184 HD
HETATM    4  C2  UNL     1      14.643  10.955  11.655  1.00  0.00     0.047 A
HETATM    5  C14 UNL     1      14.389  10.862  13.001  1.00  0.00     0.134 A
HETATM    6  N5  UNL     1      13.215  11.450  13.283  1.00  0.00    -0.192 N
ENDROOT
BRANCH   4   7
HETATM    7  C3  UNL     1      15.794  10.485  10.833  1.00  0.00     0.103 C
BRANCH   7   8
HETATM    8  C4  UNL     1      16.647   9.556  11.731  1.00  0.00     0.067 C
HETATM    9  N3  UNL     1      16.232   8.281  11.851  1.00  0.00    -0.368 N
ATOM     10  H3  UNL     1      15.591   8.364  12.640  1.00  0.00     0.165 HD
BRANCH   9  11
HETATM   11  C5  UNL     1      16.141   7.102  11.611  1.00  0.00     0.045 A
HETATM   12  C6  UNL     1      16.630   6.563  10.396  1.00  0.00     0.047 A
HETATM   13  C7  UNL     1      16.529   5.235  10.103  1.00  0.00     0.090 A
HETATM   14  N4  UNL     1      15.954   4.394  10.972  1.00  0.00    -0.365 N
HETATM   15  C8  UNL     1      15.471   4.840  12.140  1.00  0.00     0.044 A
ATOM     16  H4  UNL     1      15.883   3.403  10.742  1.00  0.00     0.165 HD
HETATM   17  C9  UNL     1      14.885   3.911  13.003  1.00  0.00     0.030 A
HETATM   18  C13 UNL     1      15.560   6.177  12.463  1.00  0.00     0.017 A
HETATM   19  C10 UNL     1      14.377   4.308  14.212  1.00  0.00     0.002 A
HETATM   20  C11 UNL     1      14.450   5.620  14.559  1.00  0.00     0.001 A
HETATM   21  C12 UNL     1      15.033   6.533  13.695  1.00  0.00     0.016 A
ENDBRANCH   9  11
ENDBRANCH   7   8
ENDBRANCH   4   7
BRANCH   1  22
HETATM   22  N1  UNL     1      11.561  12.566  11.984  1.00  0.00    -0.234 N
ATOM     23  H12 UNL     1      11.415  13.570  12.087  1.00  0.00     0.174 HD
ATOM     24  H11 UNL     1      10.657  12.149  11.761  1.00  0.00     0.174 HD
ENDBRANCH   1  22
BRANCH   6  25
HETATM   25  C15 UNL     1      12.547  11.610  14.570  1.00  0.00     0.151 C
BRANCH  25  26
HETATM   26  C16 UNL     1      13.367  10.922  15.621  1.00  0.00     0.059 C
BRANCH  26  27
HETATM   27  C17 UNL     1      13.180  11.458  16.973  1.00  0.00    -0.057 A
HETATM   28  C18 UNL     1      14.003  12.315  17.646  1.00  0.00     0.008 A
HETATM   29  C19 UNL     1      13.697  12.741  18.946  1.00  0.00     0.017 A
HETATM   30  C20 UNL     1      12.565  12.312  19.581  1.00  0.00     0.047 A
HETATM   31  C22 UNL     1      11.712  11.444  18.925  1.00  0.00     0.017 A
HETATM   32  C23 UNL     1      12.037  11.050  17.666  1.00  0.00     0.008 A
BRANCH  30  33
HETATM   33  C21 UNL     1      12.244  12.748  20.943  1.00  0.00     0.417 C
HETATM   34  F1  UNL     1      13.067  12.102  21.864  1.00  0.00    -0.166 F
HETATM   35  F2  UNL     1      12.513  14.118  21.065  1.00  0.00    -0.166 F
HETATM   36  F3  UNL     1      10.931  12.556  21.278  1.00  0.00    -0.166 F
ENDBRANCH  30  33
ENDBRANCH  26  27
ENDBRANCH  25  26
ENDBRANCH   6  25
TORSDOF 8
ENDMDL