MODEL 5
REMARK VINA RESULT: -8.106058645      3.024      5.149
REMARK  9 active torsions:
REMARK  status: ('A' for Active; 'I' for Inactive)
REMARK    1  A    between atoms: C2_2  and  C3_3
REMARK    2  A    between atoms: C2_2  and  N1_26
REMARK    3  A    between atoms: C3_3  and  C4_4
REMARK    4  A    between atoms: C4_4  and  C5_5
REMARK    5  A    between atoms: C6_6  and  C7_7
REMARK    6  A    between atoms: C7_7  and  C8_8
REMARK    7  A    between atoms: C8_8  and  C9_9
REMARK    8  A    between atoms: C16_21  and  O3_22
REMARK    9  A    between atoms: N1_26  and  C19_28
ROOT
HETATM    1  C5  UNL     1      16.297   7.405  10.677  1.00  0.00    -0.062 C
HETATM    2  C6  UNL     1      16.612   8.723   9.928  1.00  0.00     0.050 C
HETATM    3  C10 UNL     1      17.069   8.437   8.558  1.00  0.00     0.178 C
HETATM    4  F1  UNL     1      17.092   9.516   7.711  1.00  0.00    -0.249 F
HETATM    5  C11 UNL     1      16.227   7.379   7.883  1.00  0.00     0.049 C
HETATM    6  C12 UNL     1      16.174   6.098   8.638  1.00  0.00     0.075 C
HETATM    7  C13 UNL     1      16.720   5.010   7.788  1.00  0.00     0.248 C
HETATM    8  F2  UNL     1      16.129   5.130   6.541  1.00  0.00    -0.206 F
HETATM    9  F3  UNL     1      16.546   3.736   8.193  1.00  0.00    -0.206 F
HETATM   10  C14 UNL     1      18.187   5.321   7.580  1.00  0.00     0.082 C
HETATM   11  C15 UNL     1      18.858   5.216   8.881  1.00  0.00     0.038 C
HETATM   12  C16 UNL     1      18.207   5.817  10.080  1.00  0.00     0.131 C
HETATM   13  C17 UNL     1      16.778   6.157  10.050  1.00  0.00     0.015 C
HETATM   14  C18 UNL     1      16.024   5.026  10.796  1.00  0.00     0.023 C
ENDROOT
BRANCH   1  15
HETATM   15  C4  UNL     1      16.331   7.617  12.103  1.00  0.00     0.002 C
BRANCH  15  16
HETATM   16  C3  UNL     1      15.608   8.228  12.988  1.00  0.00    -0.002 C
BRANCH  16  17
HETATM   17  C2  UNL     1      14.879   7.524  14.110  1.00  0.00     0.096 C
HETATM   18  C1  UNL     1      14.095   8.500  14.945  1.00  0.00     0.036 C
BRANCH  17  19
HETATM   19  N1  UNL     1      15.741   6.752  14.910  1.00  0.00    -0.407 N
ATOM     20  H1  UNL     1      16.419   7.218  15.513  1.00  0.00     0.154 HD
BRANCH  19  21
HETATM   21  C19 UNL     1      15.682   5.354  14.889  1.00  0.00     0.015 C
HETATM   22  C20 UNL     1      16.977   4.712  14.359  1.00  0.00     0.037 C
HETATM   23  C21 UNL     1      15.661   4.904  16.381  1.00  0.00     0.037 C
HETATM   24  C22 UNL     1      14.498   4.701  14.279  1.00  0.00     0.037 C
ENDBRANCH  19  21
ENDBRANCH  17  19
ENDBRANCH  16  17
ENDBRANCH  15  16
ENDBRANCH   1  15
BRANCH   2  25
HETATM   25  C7  UNL     1      15.355   9.535  10.003  1.00  0.00     0.022 C
BRANCH  25  26
HETATM   26  C8  UNL     1      15.404  10.910  10.526  1.00  0.00     0.114 C
BRANCH  26  27
HETATM   27  C9  UNL     1      13.970  11.249  10.929  1.00  0.00     0.172 C
HETATM   28  O1  UNL     1      13.407  10.678  11.892  1.00  0.00    -0.648 OA
HETATM   29  O2  UNL     1      13.255  12.204  10.230  1.00  0.00    -0.648 OA
ENDBRANCH  26  27
ENDBRANCH  25  26
ENDBRANCH   2  25
BRANCH  12  30
HETATM   30  O3  UNL     1      18.561   4.895  11.104  1.00  0.00    -0.394 OA
ATOM     31  H3  UNL     1      17.819   4.959  11.695  1.00  0.00     0.210 HD
ENDBRANCH  12  30
TORSDOF 9
ENDMDL