MODEL 4
REMARK VINA RESULT: -7.402504598      1.718      2.069
REMARK  5 active torsions:
REMARK  status: ('A' for Active; 'I' for Inactive)
REMARK    1  A    between atoms: C2_5  and  N2_6
REMARK    2  A    between atoms: N2_6  and  N3_8
REMARK    3  A    between atoms: C9_19  and  C10_20
REMARK    4  A    between atoms: C10_20  and  C11_21
REMARK    5  A    between atoms: C11_21  and  C12_22
ROOT
HETATM    1  O1  UNL     1      -2.391   4.420  14.769  1.00  0.00    -0.267 OA
HETATM    2  C1  UNL     1      -2.017   4.481  13.561  1.00  0.00     0.269 A
HETATM    3  N1  UNL     1      -0.765   4.819  13.210  1.00  0.00    -0.154 N
ATOM      4  H1  UNL     1      -0.105   5.033  13.958  1.00  0.00     0.187 HD
HETATM    5  C2  UNL     1      -0.327   4.895  11.961  1.00  0.00     0.700 A
HETATM    6  N4  UNL     1      -1.206   4.612  10.965  1.00  0.00    -0.179 N
ATOM      7  H4  UNL     1      -0.904   4.661   9.993  1.00  0.00     0.185 HD
HETATM    8  C8  UNL     1      -2.471   4.266  11.257  1.00  0.00     0.131 A
HETATM    9 CL1  UNL     1      -3.605   3.898   9.982  1.00  0.00    -0.063 Cl
HETATM   10  C9  UNL     1      -2.913   4.191  12.559  1.00  0.00     0.050 A
ENDROOT
BRANCH  10  11
HETATM   11  C10 UNL     1      -4.303   3.811  12.893  1.00  0.00     0.055 C
BRANCH  11  12
HETATM   12  C11 UNL     1      -4.379   2.305  12.904  1.00  0.00     0.083 C
BRANCH  12  13
HETATM   13  C12 UNL     1      -4.630   1.767  14.262  1.00  0.00     0.097 A
HETATM   14  N5  UNL     1      -4.018   0.639  14.660  1.00  0.00    -0.286 N
HETATM   15  N6  UNL     1      -4.226   0.130  15.884  1.00  0.00    -0.263 N
ATOM     16  H5  UNL     1      -3.384   0.162  14.020  1.00  0.00     0.188 HD
HETATM   17  C13 UNL     1      -5.054   0.719  16.771  1.00  0.00     0.298 A
ATOM     18  H6  UNL     1      -3.743  -0.727  16.152  1.00  0.00     0.190 HD
HETATM   19  O2  UNL     1      -5.203   0.188  17.900  1.00  0.00    -0.263 OA
HETATM   20  C14 UNL     1      -5.683   1.870  16.373  1.00  0.00     0.172 A
HETATM   21  S1  UNL     1      -6.697   2.616  17.422  1.00  0.00    -0.054 SA
HETATM   22  N7  UNL     1      -5.461   2.366  15.139  1.00  0.00    -0.331 N
ATOM     23  H7  UNL     1      -5.937   3.224  14.859  1.00  0.00     0.168 HD
ENDBRANCH  12  13
ENDBRANCH  11  12
ENDBRANCH  10  11
BRANCH   5  24
HETATM   24  N2  UNL     1       0.879   5.222  11.647  1.00  0.00    -0.132 N
ATOM     25  H2  UNL     1       1.397   4.704  10.937  1.00  0.00     0.205 HD
BRANCH  24  26
HETATM   26  N3  UNL     1       1.451   6.303  12.310  1.00  0.00    -0.295 N
HETATM   27  C3  UNL     1       2.696   6.513  12.430  1.00  0.00     0.004 C
HETATM   28  C4  UNL     1       3.323   7.648  13.124  1.00  0.00     0.054 C
HETATM   29  C7  UNL     1       3.788   5.679  11.905  1.00  0.00     0.054 C
HETATM   30  C5  UNL     1       4.536   7.011  13.778  1.00  0.00     0.006 C
HETATM   31  C6  UNL     1       4.784   5.701  13.052  1.00  0.00     0.006 C
ATOM     32  H3  UNL     1       0.819   6.981  12.733  1.00  0.00     0.186 HD
ENDBRANCH  24  26
ENDBRANCH   5  24
TORSDOF 5
ENDMDL