MODEL 1
REMARK VINA RESULT: -7.040893480      0.000      0.000
REMARK  8 active torsions:
REMARK  status: ('A' for Active; 'I' for Inactive)
REMARK    1  A    between atoms: C2_2  and  S1_4
REMARK    2  A    between atoms: S1_4  and  C4_5
REMARK    3  A    between atoms: C6_7  and  C7_8
REMARK    4  A    between atoms: C8_10  and  C9_11
REMARK    5  A    between atoms: C9_11  and  O2_12
REMARK    6  A    between atoms: C10_14  and  O3_15
REMARK    7  A    between atoms: C11_17  and  O4_18
REMARK    8  A    between atoms: C12_20  and  O5_21
ROOT
HETATM    1  C7  UNL     1      -4.616   3.543  14.887  1.00  0.00     0.089 C
HETATM    2  O1  UNL     1      -4.473   3.152  16.160  1.00  0.00    -0.342 OA
HETATM    3  C8  UNL     1      -5.119   2.016  16.536  1.00  0.00     0.183 C
HETATM    4  C10 UNL     1      -4.681   0.880  15.623  1.00  0.00     0.181 C
HETATM    5  C11 UNL     1      -4.682   1.169  14.178  1.00  0.00     0.184 C
HETATM    6  C12 UNL     1      -4.686   2.630  13.763  1.00  0.00     0.207 C
ENDROOT
BRANCH   1   7
HETATM    7  C6  UNL     1      -3.831   4.789  14.622  1.00  0.00     0.004 A
HETATM    8  C5  UNL     1      -2.600   4.793  13.990  1.00  0.00     0.034 A
HETATM    9  C4  UNL     1      -1.989   5.956  13.510  1.00  0.00     0.024 A
HETATM   10  C15 UNL     1      -2.655   7.142  13.685  1.00  0.00     0.057 A
HETATM   11  C14 UNL     1      -3.910   7.165  14.330  1.00  0.00    -0.028 A
HETATM   12 CL1  UNL     1      -1.971   8.653  13.059  1.00  0.00    -0.082 Cl
HETATM   13  C13 UNL     1      -4.494   6.018  14.791  1.00  0.00    -0.037 A
HETATM   14  C16 UNL     1      -4.752   8.343  14.671  1.00  0.00     0.041 C
HETATM   15  C18 UNL     1      -5.748   6.360  15.503  1.00  0.00     0.040 C
HETATM   16  C17 UNL     1      -6.073   7.755  15.019  1.00  0.00     0.009 C
BRANCH   9  17
HETATM   17  S1  UNL     1      -0.466   5.928  12.650  1.00  0.00    -0.124 SA
BRANCH  17  18
HETATM   18  C2  UNL     1      -0.276   4.632  11.449  1.00  0.00     0.044 C
HETATM   19  C1  UNL     1       1.155   4.359  11.029  1.00  0.00     0.021 C
HETATM   20  C3  UNL     1      -1.073   4.851  10.186  1.00  0.00     0.021 C
ENDBRANCH  17  18
ENDBRANCH   9  17
ENDBRANCH   1   7
BRANCH   6  21
HETATM   21  O5  UNL     1      -5.765   2.852  12.944  1.00  0.00    -0.386 OA
ATOM     22  H5  UNL     1      -6.519   2.313  13.157  1.00  0.00     0.210 HD
ENDBRANCH   6  21
BRANCH   3  23
HETATM   23  C9  UNL     1      -6.577   2.050  16.764  1.00  0.00     0.199 C
BRANCH  23  24
HETATM   24  O2  UNL     1      -7.228   0.890  17.064  1.00  0.00    -0.398 OA
ATOM     25  H2  UNL     1      -8.172   0.853  16.969  1.00  0.00     0.209 HD
ENDBRANCH  23  24
ENDBRANCH   3  23
BRANCH   5  26
HETATM   26  O4  UNL     1      -3.542   0.576  13.623  1.00  0.00    -0.390 OA
ATOM     27  H4  UNL     1      -2.929   1.269  13.408  1.00  0.00     0.210 HD
ENDBRANCH   5  26
BRANCH   4  28
HETATM   28  O3  UNL     1      -3.392   0.494  16.061  1.00  0.00    -0.390 OA
ATOM     29  H3  UNL     1      -3.179  -0.305  15.592  1.00  0.00     0.210 HD
ENDBRANCH   4  28
TORSDOF 8
ENDMDL