MODEL 1
REMARK VINA RESULT: -7.510419683      0.000      0.000
REMARK  8 active torsions:
REMARK  status: ('A' for Active; 'I' for Inactive)
REMARK    1  A    between atoms: O1_1  and  C1_3
REMARK    2  A    between atoms: C1_3  and  C2_4
REMARK    3  A    between atoms: C3_6  and  O3_7
REMARK    4  A    between atoms: O3_7  and  C4_8
REMARK    5  A    between atoms: C7_11  and  C8_12
REMARK    6  A    between atoms: C17_22  and  O4_23
REMARK    7  A    between atoms: C18_25  and  O5_26
REMARK    8  A    between atoms: C19_28  and  O6_29
ROOT
HETATM    1  C2  UNL     1      -4.776   1.810  16.114  1.00  0.00     0.179 C
HETATM    2  O2  UNL     1      -5.546   2.675  15.335  1.00  0.00    -0.348 OA
HETATM    3  C3  UNL     1      -4.735   3.269  14.349  1.00  0.00     0.298 C
HETATM    4  C17 UNL     1      -4.309   2.211  13.323  1.00  0.00     0.205 C
HETATM    5  C18 UNL     1      -4.696   0.860  13.867  1.00  0.00     0.183 C
HETATM    6  C19 UNL     1      -4.169   0.736  15.265  1.00  0.00     0.180 C
ENDROOT
BRANCH   3   7
HETATM    7  O3  UNL     1      -5.555   4.186  13.684  1.00  0.00    -0.318 OA
BRANCH   7   8
HETATM    8  C4  UNL     1      -5.358   5.547  13.574  1.00  0.00     0.073 A
HETATM    9  C5  UNL     1      -4.478   6.130  12.694  1.00  0.00     0.037 A
HETATM   10  C6  UNL     1      -4.346   7.528  12.654  1.00  0.00     0.012 A
HETATM   11  C7  UNL     1      -5.067   8.361  13.470  1.00  0.00    -0.032 A
HETATM   12  C15 UNL     1      -5.950   7.757  14.351  1.00  0.00     0.043 A
HETATM   13 CL1  UNL     1      -6.905   8.722  15.430  1.00  0.00    -0.084 Cl
HETATM   14  C16 UNL     1      -6.092   6.394  14.403  1.00  0.00     0.061 A
BRANCH  11  15
HETATM   15  C8  UNL     1      -4.920   9.829  13.404  1.00  0.00     0.020 C
HETATM   16  C9  UNL     1      -3.956  10.270  14.446  1.00  0.00     0.009 C
HETATM   17  C10 UNL     1      -2.519  10.320  14.087  1.00  0.00     0.001 C
HETATM   18  C11 UNL     1      -2.140  11.713  13.697  1.00  0.00     0.000 C
HETATM   19  C12 UNL     1      -3.176  12.240  12.748  1.00  0.00     0.000 C
HETATM   20  C13 UNL     1      -3.457  11.129  11.773  1.00  0.00     0.001 C
HETATM   21  C14 UNL     1      -4.741  10.383  12.055  1.00  0.00     0.009 C
ENDBRANCH  11  15
ENDBRANCH   7   8
ENDBRANCH   3   7
BRANCH   4  22
HETATM   22  O4  UNL     1      -4.976   2.413  12.109  1.00  0.00    -0.388 OA
ATOM     23  H4  UNL     1      -4.638   1.824  11.443  1.00  0.00     0.210 HD
ENDBRANCH   4  22
BRANCH   1  24
HETATM   24  C1  UNL     1      -5.683   1.281  17.201  1.00  0.00     0.198 C
BRANCH  24  25
HETATM   25  O1  UNL     1      -6.767   0.588  16.679  1.00  0.00    -0.398 OA
ATOM     26  H1  UNL     1      -7.305   0.205  17.362  1.00  0.00     0.209 HD
ENDBRANCH  24  25
ENDBRANCH   1  24
BRANCH   5  27
HETATM   27  O5  UNL     1      -4.175  -0.142  13.040  1.00  0.00    -0.390 OA
ATOM     28  H5  UNL     1      -3.234  -0.195  13.159  1.00  0.00     0.210 HD
ENDBRANCH   5  27
BRANCH   6  29
HETATM   29  O6  UNL     1      -4.402  -0.535  15.797  1.00  0.00    -0.390 OA
ATOM     30  H6  UNL     1      -5.195  -0.558  16.319  1.00  0.00     0.210 HD
ENDBRANCH   6  29
TORSDOF 8
ENDMDL