MODEL 2
REMARK VINA RESULT: -6.184599382      1.185      1.414
REMARK  8 active torsions:
REMARK  status: ('A' for Active; 'I' for Inactive)
REMARK    1  A    between atoms: N1_2  and  C2_5
REMARK    2  A    between atoms: N2_9  and  C5_10
REMARK    3  A    between atoms: C6_13  and  N4_14
REMARK    4  A    between atoms: N4_14  and  C7_16
REMARK    5  A    between atoms: C7_16  and  C9_18
REMARK    6  A    between atoms: C9_18  and  O1_19
REMARK    7  A    between atoms: N5_21  and  O2_23
REMARK    8  A    between atoms: C10_25  and  C11_26
ROOT
HETATM    1  C5  UNL     1      -0.771   5.052  11.312  1.00  0.00     0.128 A
HETATM    2  N3  UNL     1      -1.464   3.922  11.505  1.00  0.00    -0.326 N
ATOM      3  H3  UNL     1      -1.253   3.106  10.933  1.00  0.00     0.169 HD
HETATM    4  C6  UNL     1      -2.427   3.839  12.432  1.00  0.00     0.127 A
HETATM    5  C10 UNL     1      -2.732   4.957  13.229  1.00  0.00     0.061 A
HETATM    6  N6  UNL     1      -2.022   6.063  13.009  1.00  0.00    -0.357 N
ATOM      7  H6  UNL     1      -2.225   6.886  13.577  1.00  0.00     0.166 HD
HETATM    8  C15 UNL     1      -1.049   6.156  12.078  1.00  0.00     0.050 A
HETATM    9  C16 UNL     1      -0.295   7.397  11.878  1.00  0.00     0.072 C
ENDROOT
BRANCH   4  10
HETATM   10  N4  UNL     1      -3.089   2.821  12.639  1.00  0.00    -0.363 N
ATOM     11  H4  UNL     1      -3.330   2.727  13.626  1.00  0.00     0.162 HD
BRANCH  10  12
HETATM   12  C7  UNL     1      -3.596   1.765  11.889  1.00  0.00     0.155 C
HETATM   13  C8  UNL     1      -4.682   2.005  10.900  1.00  0.00     0.041 C
BRANCH  12  14
HETATM   14  C9  UNL     1      -4.056   0.620  12.765  1.00  0.00     0.158 C
HETATM   15  N5  UNL     1      -4.156   0.780  14.031  1.00  0.00    -0.249 N
ATOM     16  H5  UNL     1      -3.919   1.694  14.419  1.00  0.00     0.196 HD
BRANCH  14  17
HETATM   17  O1  UNL     1      -4.357  -0.580  12.151  1.00  0.00    -0.347 OA
ATOM     18  H1  UNL     1      -3.850  -0.824  11.385  1.00  0.00     0.219 HD
ENDBRANCH  14  17
BRANCH  15  19
HETATM   19  O2  UNL     1      -4.558  -0.188  14.885  1.00  0.00    -0.288 OA
ATOM     20  H2  UNL     1      -4.006  -0.907  15.171  1.00  0.00     0.244 HD
ENDBRANCH  15  19
ENDBRANCH  12  14
ENDBRANCH  10  12
ENDBRANCH   4  10
BRANCH   5  21
HETATM   21  C11 UNL     1      -3.795   4.854  14.222  1.00  0.00    -0.005 C
HETATM   22  C12 UNL     1      -3.609   3.862  15.312  1.00  0.00     0.021 C
HETATM   23  C13 UNL     1      -5.174   4.754  13.557  1.00  0.00     0.021 C
HETATM   24  C14 UNL     1      -3.857   6.233  14.924  1.00  0.00     0.021 C
ENDBRANCH   5  21
BRANCH   1  25
HETATM   25  N2  UNL     1       0.232   5.057  10.264  1.00  0.00    -0.346 N
HETATM   26  C4  UNL     1       0.109   5.764   9.016  1.00  0.00     0.185 C
HETATM   27  C3  UNL     1       1.558   6.149   8.700  1.00  0.00     0.076 C
HETATM   28 CL1  UNL     1      -0.491   4.687   7.756  1.00  0.00    -0.102 Cl
HETATM   29  C2  UNL     1       2.395   5.128   9.395  1.00  0.00     0.206 C
HETATM   30  C17 UNL     1       1.476   4.349  10.271  1.00  0.00     0.159 C
BRANCH  29  31
HETATM   31  N1  UNL     1       3.158   4.298   8.500  1.00  0.00    -0.073 N
HETATM   32  C1  UNL     1       2.643   2.970   8.438  1.00  0.00     0.267 C
ATOM     33  H12 UNL     1       4.148   4.300   8.746  1.00  0.00     0.277 HD
ATOM     34  H11 UNL     1       3.222   4.715   7.572  1.00  0.00     0.277 HD
ENDBRANCH  29  31
ENDBRANCH   1  25
TORSDOF 8
ENDMDL