MODEL 4
REMARK VINA RESULT: -5.996955075      3.822      6.201
REMARK  7 active torsions:
REMARK  status: ('A' for Active; 'I' for Inactive)
REMARK    1  A    between atoms: C2_2  and  C3_3
REMARK    2  A    between atoms: C3_3  and  C4_4
REMARK    3  A    between atoms: C4_4  and  C5_5
REMARK    4  A    between atoms: C5_5  and  C6_6
REMARK    5  A    between atoms: C9_10  and  N1_11
REMARK    6  A    between atoms: C12_16  and  N3_17
REMARK    7  A    between atoms: C16_27  and  O1_28
ROOT
HETATM    1  N1  UNL     1      -1.659   4.800  11.446  1.00  0.00    -0.322 N
HETATM    2  C10 UNL     1      -2.275   5.631  10.555  1.00  0.00     0.185 A
HETATM    3  N2  UNL     1      -1.396   6.154   9.712  1.00  0.00    -0.346 N
ATOM      4  H2  UNL     1      -1.592   6.804   8.950  1.00  0.00     0.167 HD
HETATM    5  C11 UNL     1      -0.196   5.656  10.059  1.00  0.00     0.122 A
HETATM    6  C12 UNL     1       1.065   5.846   9.541  1.00  0.00     0.131 A
HETATM    7  N4  UNL     1       2.112   5.210  10.092  1.00  0.00    -0.337 N
ATOM      8  H4  UNL     1       3.050   5.345   9.715  1.00  0.00     0.168 HD
HETATM    9  C13 UNL     1       1.917   4.394  11.147  1.00  0.00     0.183 A
HETATM   10  N5  UNL     1       0.687   4.195  11.669  1.00  0.00    -0.336 N
ATOM     11  H5  UNL     1       0.564   3.572  12.468  1.00  0.00     0.168 HD
HETATM   12  C14 UNL     1      -0.364   4.814  11.139  1.00  0.00     0.140 A
ENDROOT
BRANCH   1  13
HETATM   13  C9  UNL     1      -2.363   4.079  12.497  1.00  0.00     0.095 C
HETATM   14  C8  UNL     1      -2.229   4.774  13.803  1.00  0.00     0.027 C
HETATM   15  C7  UNL     1      -3.466   4.858  14.617  1.00  0.00     0.015 C
HETATM   16  C5  UNL     1      -4.334   3.642  14.604  1.00  0.00    -0.002 C
HETATM   17  C16 UNL     1      -4.395   2.975  13.251  1.00  0.00     0.129 C
HETATM   18  C15 UNL     1      -3.830   3.911  12.173  1.00  0.00     0.058 C
BRANCH  16  19
HETATM   19  C4  UNL     1      -4.062   2.680  15.719  1.00  0.00     0.039 C
BRANCH  19  20
HETATM   20  C3  UNL     1      -4.908   1.497  15.746  1.00  0.00    -0.030 C
BRANCH  20  21
HETATM   21  C2  UNL     1      -5.497   1.026  16.841  1.00  0.00    -0.035 C
HETATM   22  C1  UNL     1      -6.892   1.248  17.211  1.00  0.00     0.036 C
ENDBRANCH  20  21
ENDBRANCH  19  20
ENDBRANCH  16  19
BRANCH  16  23
HETATM   23  C6  UNL     1      -5.761   4.156  14.876  1.00  0.00     0.097 C
HETATM   24 BR1  UNL     1      -5.808   6.088  14.731  1.00  0.00    -0.096 Br
ENDBRANCH  16  23
BRANCH  17  25
HETATM   25  O1  UNL     1      -5.701   2.692  12.853  1.00  0.00    -0.395 OA
ATOM     26  H1  UNL     1      -5.791   1.815  12.497  1.00  0.00     0.210 HD
ENDBRANCH  17  25
ENDBRANCH   1  13
BRANCH   6  27
HETATM   27  N3  UNL     1       1.227   6.628   8.535  1.00  0.00    -0.383 N
ATOM     28  H32 UNL     1       0.735   7.521   8.483  1.00  0.00     0.157 HD
ATOM     29  H31 UNL     1       1.854   6.354   7.779  1.00  0.00     0.157 HD
ENDBRANCH   6  27
TORSDOF 7
ENDMDL