MODEL 2
REMARK VINA RESULT: -6.687014101      0.095      1.184
REMARK  9 active torsions:
REMARK  status: ('A' for Active; 'I' for Inactive)
REMARK    1  A    between atoms: C2_2  and  O1_3
REMARK    2  A    between atoms: O1_3  and  C3_4
REMARK    3  A    between atoms: C3_4  and  C4_6
REMARK    4  A    between atoms: C5_7  and  N1_8
REMARK    5  A    between atoms: N1_8  and  N2_10
REMARK    6  A    between atoms: N3_17  and  C12_18
REMARK    7  A    between atoms: C12_18  and  N4_20
REMARK    8  A    between atoms: N4_20  and  C13_22
REMARK    9  A    between atoms: C16_28  and  N6_29
ROOT
HETATM    1  C4  UNL     1      -3.983   1.602  12.949  1.00  0.00     0.131 A
HETATM    2  C5  UNL     1      -3.490   2.884  12.697  1.00  0.00     0.165 A
HETATM    3  N3  UNL     1      -3.349   3.071  11.349  1.00  0.00    -0.209 N
HETATM    4  N5  UNL     1      -3.734   1.958  10.764  1.00  0.00    -0.274 N
ATOM      5  H5  UNL     1      -3.738   1.803   9.756  1.00  0.00     0.189 HD
HETATM    6  C16 UNL     1      -4.125   1.047  11.685  1.00  0.00     0.134 A
ENDROOT
BRANCH   2   7
HETATM    7  N1  UNL     1      -3.171   3.828  13.704  1.00  0.00    -0.281 N
ATOM      8  H1  UNL     1      -2.319   3.666  14.241  1.00  0.00     0.189 HD
BRANCH   7   9
HETATM    9  N2  UNL     1      -3.896   4.924  14.015  1.00  0.00    -0.306 N
HETATM   10  C6  UNL     1      -5.287   4.904  14.082  1.00  0.00     0.083 C
HETATM   11  C7  UNL     1      -5.928   5.595  15.249  1.00  0.00     0.046 C
HETATM   12  C8  UNL     1      -5.541   7.010  15.466  1.00  0.00     0.005 C
HETATM   13  C9  UNL     1      -5.140   7.631  14.158  1.00  0.00     0.002 C
HETATM   14  C10 UNL     1      -3.744   7.309  13.741  1.00  0.00     0.022 C
HETATM   15  C11 UNL     1      -3.185   6.077  14.421  1.00  0.00     0.148 C
ENDBRANCH   7   9
ENDBRANCH   2   7
BRANCH   1  16
HETATM   16  C3  UNL     1      -4.249   0.981  14.236  1.00  0.00     0.301 C
HETATM   17  O2  UNL     1      -4.555  -0.228  14.346  1.00  0.00    -0.259 OA
BRANCH  16  18
HETATM   18  O1  UNL     1      -4.172   1.697  15.407  1.00  0.00    -0.318 OA
BRANCH  18  19
HETATM   19  C2  UNL     1      -4.841   1.303  16.607  1.00  0.00     0.174 C
HETATM   20  C1  UNL     1      -6.160   2.086  16.600  1.00  0.00     0.034 C
ENDBRANCH  18  19
ENDBRANCH  16  18
ENDBRANCH   1  16
BRANCH   3  21
HETATM   21  C12 UNL     1      -2.865   4.272  10.757  1.00  0.00     0.197 C
HETATM   22  S1  UNL     1      -3.917   5.495  10.386  1.00  0.00    -0.039 SA
BRANCH  21  23
HETATM   23  N4  UNL     1      -1.509   4.480  10.433  1.00  0.00    -0.330 N
ATOM     24  H4  UNL     1      -1.300   4.660   9.452  1.00  0.00     0.165 HD
BRANCH  23  25
HETATM   25  C13 UNL     1      -0.390   4.466  11.328  1.00  0.00     0.170 C
HETATM   26  C14 UNL     1      -0.302   5.732  12.164  1.00  0.00     0.076 C
HETATM   27  C15 UNL     1       0.848   4.573  10.394  1.00  0.00     0.076 C
HETATM   28  F1  UNL     1      -0.267   3.390  12.129  1.00  0.00    -0.220 F
ENDBRANCH  23  25
ENDBRANCH  21  23
ENDBRANCH   3  21
BRANCH   6  29
HETATM   29  N6  UNL     1      -4.568  -0.119  11.392  1.00  0.00    -0.383 N
ATOM     30  H62 UNL     1      -5.036  -0.346  10.514  1.00  0.00     0.157 HD
ATOM     31  H61 UNL     1      -4.540  -0.957  11.973  1.00  0.00     0.157 HD
ENDBRANCH   6  29
TORSDOF 9
ENDMDL