MODEL 1
REMARK VINA RESULT: -6.413455774      0.000      0.000
REMARK  7 active torsions:
REMARK  status: ('A' for Active; 'I' for Inactive)
REMARK    1  A    between atoms: C3_3  and  O1_4
REMARK    2  A    between atoms: O1_4  and  C4_5
REMARK    3  A    between atoms: C4_5  and  C5_6
REMARK    4  A    between atoms: C5_6  and  C6_7
REMARK    5  A    between atoms: C16_22  and  O2_23
REMARK    6  A    between atoms: C17_25  and  O3_27
REMARK    7  A    between atoms: C19_29  and  O4_30
ROOT
HETATM    1  C1  UNL     1      -4.490   7.821  15.617  1.00  0.00     0.024 C
HETATM    2  C2  UNL     1      -3.567   7.304  14.845  1.00  0.00    -0.008 C
HETATM    3  C3  UNL     1      -2.469   8.189  14.402  1.00  0.00     0.162 C
HETATM    4  N1  UNL     1      -1.907   7.910  13.288  1.00  0.00    -0.283 N
ATOM      5  H1  UNL     1      -1.145   8.501  12.955  1.00  0.00     0.188 HD
HETATM    6  N2  UNL     1      -2.305   6.831  12.526  1.00  0.00    -0.326 N
ATOM      7  H2  UNL     1      -1.942   6.785  11.574  1.00  0.00     0.180 HD
HETATM    8  C10 UNL     1      -3.185   5.757  12.938  1.00  0.00     0.140 C
HETATM    9  C11 UNL     1      -3.516   5.896  14.376  1.00  0.00     0.057 C
HETATM   10  C12 UNL     1      -4.758   5.188  14.808  1.00  0.00     0.023 C
HETATM   11  C13 UNL     1      -6.007   5.610  14.102  1.00  0.00     0.015 C
HETATM   12  C14 UNL     1      -4.606   3.687  14.703  1.00  0.00    -0.053 C
HETATM   13  C15 UNL     1      -5.578   3.011  15.306  1.00  0.00     0.017 C
HETATM   14  C16 UNL     1      -3.593   2.842  14.068  1.00  0.00     0.183 C
HETATM   15  C17 UNL     1      -3.240   3.245  12.646  1.00  0.00     0.111 C
HETATM   16  C18 UNL     1      -4.398   3.218  11.711  1.00  0.00     0.051 C
HETATM   17  C19 UNL     1      -2.433   4.487  12.628  1.00  0.00     0.179 C
ENDROOT
BRANCH   3  18
HETATM   18  O1  UNL     1      -2.051   9.282  15.147  1.00  0.00    -0.334 OA
BRANCH  18  19
HETATM   19  C4  UNL     1      -1.906  10.570  14.579  1.00  0.00     0.183 C
BRANCH  19  20
HETATM   20  C5  UNL     1      -3.292  11.059  14.228  1.00  0.00     0.078 C
BRANCH  20  21
HETATM   21  C6  UNL     1      -3.425  11.421  12.808  1.00  0.00     0.015 C
HETATM   22 CL1  UNL     1      -2.405  12.688  12.164  1.00  0.00    -0.089 Cl
HETATM   23  C7  UNL     1      -4.284  10.817  12.024  1.00  0.00    -0.070 C
HETATM   24  C8  UNL     1      -4.391  11.211  10.587  1.00  0.00     0.044 C
HETATM   25  C9  UNL     1      -5.191   9.723  12.495  1.00  0.00     0.044 C
ENDBRANCH  20  21
ENDBRANCH  19  20
ENDBRANCH  18  19
ENDBRANCH   3  18
BRANCH  17  26
HETATM   26  O4  UNL     1      -1.427   4.371  13.593  1.00  0.00    -0.390 OA
ATOM     27  H4  UNL     1      -0.813   5.079  13.433  1.00  0.00     0.210 HD
ENDBRANCH  17  26
BRANCH  15  28
HETATM   28  O3  UNL     1      -2.363   2.216  12.205  1.00  0.00    -0.385 OA
ATOM     29  H3  UNL     1      -1.560   2.675  11.991  1.00  0.00     0.210 HD
ENDBRANCH  15  28
BRANCH  14  30
HETATM   30  O2  UNL     1      -4.077   1.538  13.980  1.00  0.00    -0.388 OA
ATOM     31  H2  UNL     1      -3.935   1.213  13.099  1.00  0.00     0.210 HD
ENDBRANCH  14  30
TORSDOF 7
ENDMDL