MODEL 3
REMARK VINA RESULT: -6.880814008      2.879      5.019
REMARK  5 active torsions:
REMARK  status: ('A' for Active; 'I' for Inactive)
REMARK    1  A    between atoms: C2_2  and  O1_4
REMARK    2  A    between atoms: O1_4  and  C4_5
REMARK    3  A    between atoms: C7_8  and  N1_9
REMARK    4  A    between atoms: N1_9  and  C8_11
REMARK    5  A    between atoms: C14_28  and  N6_29
ROOT
HETATM    1  C8  UNL     1      -4.298   5.290  13.207  1.00  0.00     0.120 A
HETATM    2  N2  UNL     1      -4.826   6.525  13.293  1.00  0.00    -0.318 N
ATOM      3  H2  UNL     1      -4.540   7.220  12.604  1.00  0.00     0.170 HD
HETATM    4  C9  UNL     1      -5.711   6.894  14.238  1.00  0.00     0.182 A
HETATM    5 CL1  UNL     1      -6.352   8.550  14.265  1.00  0.00    -0.045 Cl
HETATM    6  N3  UNL     1      -6.092   5.999  15.143  1.00  0.00    -0.318 N
ATOM      7  H3  UNL     1      -6.761   6.273  15.862  1.00  0.00     0.170 HD
HETATM    8  C10 UNL     1      -5.613   4.725  15.137  1.00  0.00     0.125 A
HETATM    9  N4  UNL     1      -6.057   3.881  16.099  1.00  0.00    -0.326 N
ATOM     10  H4  UNL     1      -6.728   4.217  16.789  1.00  0.00     0.169 HD
HETATM   11  C11 UNL     1      -5.623   2.588  16.160  1.00  0.00     0.130 A
HETATM   12  N5  UNL     1      -5.987   1.686  17.045  1.00  0.00    -0.302 N
ATOM     13  H5  UNL     1      -6.655   1.915  17.780  1.00  0.00     0.171 HD
HETATM   14  C12 UNL     1      -5.460   0.467  16.956  1.00  0.00     0.290 A
HETATM   15  O2  UNL     1      -5.695  -0.533  17.726  1.00  0.00    -0.260 OA
HETATM   16  S1  UNL     1      -4.431   0.578  15.601  1.00  0.00    -0.023 SA
HETATM   17  C13 UNL     1      -4.726   2.212  15.204  1.00  0.00     0.081 A
HETATM   18  C14 UNL     1      -4.261   3.081  14.205  1.00  0.00     0.065 A
HETATM   19  C15 UNL     1      -4.727   4.384  14.178  1.00  0.00     0.080 A
ENDROOT
BRANCH   1  20
HETATM   20  N1  UNL     1      -3.474   4.909  12.346  1.00  0.00    -0.368 N
ATOM     21  H1  UNL     1      -2.762   4.374  12.841  1.00  0.00     0.161 HD
BRANCH  20  22
HETATM   22  C7  UNL     1      -3.122   4.902  11.030  1.00  0.00     0.112 C
HETATM   23  C4  UNL     1      -3.468   3.747  10.114  1.00  0.00     0.144 C
HETATM   24  C5  UNL     1      -2.311   4.251   9.237  1.00  0.00     0.036 C
HETATM   25  C6  UNL     1      -1.696   4.739  10.564  1.00  0.00     0.030 C
BRANCH  23  26
HETATM   26  O1  UNL     1      -3.213   2.480  10.544  1.00  0.00    -0.379 OA
BRANCH  26  27
HETATM   27  C2  UNL     1      -4.224   1.607  10.159  1.00  0.00     0.114 C
HETATM   28  C1  UNL     1      -5.586   2.058  10.648  1.00  0.00     0.039 C
HETATM   29  C3  UNL     1      -3.914   0.255  10.809  1.00  0.00     0.039 C
ENDBRANCH  26  27
ENDBRANCH  23  26
ENDBRANCH  20  22
ENDBRANCH   1  20
BRANCH  18  30
HETATM   30  N6  UNL     1      -3.433   2.675  13.350  1.00  0.00    -0.397 N
ATOM     31  H62 UNL     1      -2.608   2.145  13.631  1.00  0.00     0.156 HD
ATOM     32  H61 UNL     1      -3.581   2.871  12.360  1.00  0.00     0.156 HD
ENDBRANCH  18  30
TORSDOF 5
ENDMDL