MODEL 4
REMARK VINA RESULT: -6.799169840      2.571      7.920
REMARK  6 active torsions:
REMARK  status: ('A' for Active; 'I' for Inactive)
REMARK    1  A    between atoms: C3_3  and  N1_5
REMARK    2  A    between atoms: N1_5  and  C5_6
REMARK    3  A    between atoms: C6_9  and  N3_10
REMARK    4  A    between atoms: C10_16  and  S1_17
REMARK    5  A    between atoms: S1_17  and  C11_18
REMARK    6  A    between atoms: C17_26  and  N6_27
ROOT
HETATM    1  C1  UNL     1       2.417   4.691  11.065  1.00  0.00     0.015 C
HETATM    2  C2  UNL     1       1.287   4.742  10.653  1.00  0.00    -0.078 C
HETATM    3  C3  UNL     1      -0.120   4.782  10.143  1.00  0.00     0.239 C
HETATM    4  C4  UNL     1      -0.334   6.279   9.797  1.00  0.00     0.061 C
ENDROOT
BRANCH   3   5
HETATM    5  N1  UNL     1      -1.046   4.308  10.984  1.00  0.00    -0.410 NA
BRANCH   5   6
HETATM    6  C5  UNL     1      -2.084   3.960  11.483  1.00  0.00     0.218 A
HETATM    7  N2  UNL     1      -2.810   2.881  11.041  1.00  0.00    -0.162 N
HETATM    8  C6  UNL     1      -3.957   2.478  11.575  1.00  0.00     0.682 A
ATOM      9  H2  UNL     1      -2.442   2.354  10.249  1.00  0.00     0.187 HD
HETATM   10  N4  UNL     1      -4.492   3.128  12.619  1.00  0.00    -0.186 N
HETATM   11  C9  UNL     1      -3.856   4.202  13.130  1.00  0.00     0.115 A
ATOM     12  H4  UNL     1      -5.374   2.813  13.024  1.00  0.00     0.184 HD
HETATM   13  C10 UNL     1      -4.395   4.890  14.214  1.00  0.00     0.116 A
HETATM   14  C18 UNL     1      -2.667   4.625  12.582  1.00  0.00     0.137 A
HETATM   15  N5  UNL     1      -3.742   5.957  14.704  1.00  0.00    -0.184 N
HETATM   16  C17 UNL     1      -2.580   6.386  14.183  1.00  0.00     0.677 A
ATOM     17  H5  UNL     1      -4.141   6.458  15.498  1.00  0.00     0.185 HD
HETATM   18  N7  UNL     1      -2.088   5.690  13.130  1.00  0.00    -0.185 N
ATOM     19  H7  UNL     1      -1.207   6.008  12.727  1.00  0.00     0.184 HD
BRANCH   8  20
HETATM   20  N3  UNL     1      -4.607   1.337  11.012  1.00  0.00    -0.226 N
HETATM   21  C7  UNL     1      -5.679   1.460  10.050  1.00  0.00     0.168 C
HETATM   22  C8  UNL     1      -4.149   0.030  11.442  1.00  0.00     0.168 C
ENDBRANCH   8  20
BRANCH  13  23
HETATM   23  S1  UNL     1      -5.939   4.309  14.898  1.00  0.00    -0.104 SA
BRANCH  23  24
HETATM   24  C11 UNL     1      -5.561   3.158  16.254  1.00  0.00     0.054 C
HETATM   25  C12 UNL     1      -6.840   2.436  16.614  1.00  0.00     0.015 C
HETATM   26  C13 UNL     1      -6.624   1.481  17.771  1.00  0.00     0.001 C
HETATM   27  C14 UNL     1      -5.452   0.580  17.537  1.00  0.00     0.000 C
HETATM   28  C15 UNL     1      -4.829   0.764  16.172  1.00  0.00     0.001 C
HETATM   29  C16 UNL     1      -4.467   2.194  15.887  1.00  0.00     0.015 C
ENDBRANCH  23  24
ENDBRANCH  13  23
BRANCH  16  30
HETATM   30  N6  UNL     1      -1.934   7.423  14.650  1.00  0.00    -0.234 N
ATOM     31  H62 UNL     1      -2.440   8.184  15.103  1.00  0.00     0.174 HD
ATOM     32  H61 UNL     1      -0.921   7.518  14.586  1.00  0.00     0.174 HD
ENDBRANCH  16  30
ENDBRANCH   5   6
ENDBRANCH   3   5
TORSDOF 6
ENDMDL