MODEL 1
REMARK VINA RESULT: -7.434727760      0.000      0.000
REMARK  7 active torsions:
REMARK  status: ('A' for Active; 'I' for Inactive)
REMARK    1  A    between atoms: N2_11  and  C8_12
REMARK    2  A    between atoms: C9_13  and  O1_14
REMARK    3  A    between atoms: C10_16  and  O2_17
REMARK    4  A    between atoms: C11_19  and  O3_20
REMARK    5  A    between atoms: C12_22  and  O4_23
REMARK    6  A    between atoms: O4_23  and  C13_24
REMARK    7  A    between atoms: C13_24  and  C14_25
ROOT
HETATM    1  C8  UNL     1      -3.280   2.379  11.790  1.00  0.00     0.153 C
HETATM    2  C9  UNL     1      -4.651   2.580  11.179  1.00  0.00     0.175 C
HETATM    3  C10 UNL     1      -5.172   1.155  11.032  1.00  0.00     0.180 C
HETATM    4  C11 UNL     1      -4.260   0.272  11.822  1.00  0.00     0.180 C
HETATM    5  C12 UNL     1      -3.533   1.255  12.754  1.00  0.00     0.178 C
ENDROOT
BRANCH   1   6
HETATM    6  N2  UNL     1      -2.770   3.567  12.382  1.00  0.00    -0.333 N
HETATM    7  C4  UNL     1      -3.430   4.473  13.124  1.00  0.00     0.120 A
HETATM    8  N1  UNL     1      -4.606   4.845  13.678  1.00  0.00    -0.332 N
HETATM    9  C5  UNL     1      -2.536   5.475  13.495  1.00  0.00     0.018 A
HETATM   10  C3  UNL     1      -4.498   5.983  14.351  1.00  0.00     0.112 A
ATOM     11  H1  UNL     1      -5.473   4.315  13.589  1.00  0.00     0.168 HD
HETATM   12  C2  UNL     1      -3.193   6.418  14.259  1.00  0.00    -0.009 A
HETATM   13 CL1  UNL     1      -5.739   6.868  15.240  1.00  0.00    -0.064 Cl
HETATM   14  C1  UNL     1      -2.617   7.664  14.870  1.00  0.00     0.052 C
HETATM   15  C6  UNL     1      -1.328   5.152  12.962  1.00  0.00     0.033 A
HETATM   16  C7  UNL     1      -1.487   3.956  12.268  1.00  0.00     0.094 A
ENDBRANCH   1   6
BRANCH   2  17
HETATM   17  O1  UNL     1      -4.591   3.156   9.923  1.00  0.00    -0.391 OA
ATOM     18  H1  UNL     1      -5.427   3.135   9.474  1.00  0.00     0.210 HD
ENDBRANCH   2  17
BRANCH   5  19
HETATM   19  O4  UNL     1      -4.414   1.563  13.760  1.00  0.00    -0.380 OA
BRANCH  19  20
HETATM   20  C13 UNL     1      -4.343   0.644  14.803  1.00  0.00     0.183 C
BRANCH  20  21
HETATM   21  C14 UNL     1      -4.410   1.283  16.155  1.00  0.00     0.071 C
HETATM   22  C15 UNL     1      -4.880   2.687  16.154  1.00  0.00     0.018 C
HETATM   23  C16 UNL     1      -6.346   2.728  16.448  1.00  0.00     0.011 C
HETATM   24  C17 UNL     1      -6.627   1.889  17.653  1.00  0.00     0.074 C
HETATM   25  S1  UNL     1      -5.552   0.444  17.279  1.00  0.00    -0.162 SA
ENDBRANCH  20  21
ENDBRANCH  19  20
ENDBRANCH   5  19
BRANCH   3  26
HETATM   26  O2  UNL     1      -5.137   0.744   9.694  1.00  0.00    -0.390 OA
ATOM     27  H2  UNL     1      -5.999   0.802   9.298  1.00  0.00     0.210 HD
ENDBRANCH   3  26
BRANCH   4  28
HETATM   28  O3  UNL     1      -3.273  -0.268  10.990  1.00  0.00    -0.390 OA
ATOM     29  H3  UNL     1      -2.549   0.341  10.905  1.00  0.00     0.210 HD
ENDBRANCH   4  28
TORSDOF 7
ENDMDL