MODEL 2
REMARK VINA RESULT: -6.559814740      2.836      5.410
REMARK  5 active torsions:
REMARK  status: ('A' for Active; 'I' for Inactive)
REMARK    1  A    between atoms: C2_2  and  O1_4
REMARK    2  A    between atoms: O1_4  and  C4_5
REMARK    3  A    between atoms: C4_5  and  C6_7
REMARK    4  A    between atoms: C9_11  and  O2_12
REMARK    5  A    between atoms: C11_15  and  O3_16
ROOT
HETATM    1  C6  UNL     1       8.247 -28.004  17.624  1.00  0.00     0.005 A
HETATM    2  C7  UNL     1       7.526 -27.488  18.708  1.00  0.00     0.034 A
HETATM    3  C8  UNL     1       7.422 -28.185  19.893  1.00  0.00     0.044 A
HETATM    4 BR1  UNL     1       6.434 -27.484  21.391  1.00  0.00    -0.048 Br
HETATM    5  C9  UNL     1       8.014 -29.415  20.077  1.00  0.00     0.085 A
HETATM    6  C10 UNL     1       8.729 -29.942  19.026  1.00  0.00     0.075 A
HETATM    7  C11 UNL     1       8.836 -29.242  17.829  1.00  0.00     0.077 A
ENDROOT
BRANCH   1   8
HETATM    8  C4  UNL     1       8.361 -27.213  16.380  1.00  0.00     0.153 C
HETATM    9  C5  UNL     1       7.986 -25.759  16.720  1.00  0.00     0.045 C
BRANCH   8  10
HETATM   10  O1  UNL     1       9.660 -27.159  15.871  1.00  0.00    -0.377 OA
BRANCH  10  11
HETATM   11  C2  UNL     1       9.603 -26.964  14.498  1.00  0.00     0.114 C
HETATM   12  C1  UNL     1      10.874 -26.261  14.010  1.00  0.00     0.039 C
HETATM   13  C3  UNL     1       9.536 -28.280  13.758  1.00  0.00     0.039 C
ENDBRANCH  10  11
ENDBRANCH   8  10
ENDBRANCH   1   8
BRANCH   7  14
HETATM   14  O3  UNL     1       9.558 -29.803  16.797  1.00  0.00    -0.360 OA
ATOM     15  H3  UNL     1      10.434 -30.124  16.981  1.00  0.00     0.217 HD
ENDBRANCH   7  14
BRANCH   5  16
HETATM   16  O2  UNL     1       7.910 -30.117  21.271  1.00  0.00    -0.359 OA
ATOM     17  H2  UNL     1       8.193 -31.020  21.355  1.00  0.00     0.217 HD
ENDBRANCH   5  16
TORSDOF 5
ENDMDL