MODEL 3
REMARK VINA RESULT: -7.075517886      4.072      6.944
REMARK  6 active torsions:
REMARK  status: ('A' for Active; 'I' for Inactive)
REMARK    1  A    between atoms: C2_2  and  C5_5
REMARK    2  A    between atoms: C7_7  and  C8_8
REMARK    3  A    between atoms: N1_9  and  C9_11
REMARK    4  A    between atoms: C13_17  and  S1_18
REMARK    5  A    between atoms: S1_18  and  O1_19
REMARK    6  A    between atoms: C14_21  and  O2_22
ROOT
HETATM    1  C5  UNL     1       6.522 -26.178  20.573  1.00  0.00    -0.015 A
HETATM    2  C6  UNL     1       7.142 -25.699  19.443  1.00  0.00     0.023 A
HETATM    3  C7  UNL     1       7.156 -26.385  18.254  1.00  0.00    -0.019 A
HETATM    4  C12 UNL     1       6.495 -27.614  18.250  1.00  0.00     0.036 A
HETATM    5  C13 UNL     1       5.861 -28.133  19.353  1.00  0.00     0.062 A
HETATM    6  C14 UNL     1       5.871 -27.414  20.529  1.00  0.00     0.091 A
ENDROOT
BRANCH   3   7
HETATM    7  C8  UNL     1       7.814 -25.881  17.049  1.00  0.00     0.095 C
HETATM    8  N1  UNL     1       8.559 -26.626  16.312  1.00  0.00    -0.387 N
ATOM      9  H1  UNL     1       8.705 -27.605  16.564  1.00  0.00     0.159 HD
BRANCH   8  10
HETATM   10  C9  UNL     1       9.189 -26.090  15.133  1.00  0.00     0.159 A
HETATM   11  C10 UNL     1      10.184 -25.013  15.203  1.00  0.00     0.112 A
HETATM   12  C11 UNL     1      10.676 -26.411  14.971  1.00  0.00     0.265 A
HETATM   13  F1  UNL     1      11.016 -26.831  13.708  1.00  0.00    -0.204 F
HETATM   14  F2  UNL     1      11.318 -26.985  16.065  1.00  0.00    -0.204 F
ENDBRANCH   8  10
ENDBRANCH   3   7
BRANCH   1  15
HETATM   15  C2  UNL     1       6.498 -25.458  21.858  1.00  0.00    -0.021 C
HETATM   16  C1  UNL     1       6.651 -26.355  23.043  1.00  0.00     0.019 C
HETATM   17  C3  UNL     1       7.642 -24.439  21.922  1.00  0.00     0.019 C
HETATM   18  C4  UNL     1       5.211 -24.678  22.019  1.00  0.00     0.019 C
ENDBRANCH   1  15
BRANCH   5  19
HETATM   19  S1  UNL     1       5.048 -29.722  19.220  1.00  0.00     0.028 SA
BRANCH  19  20
HETATM   20  O1  UNL     1       3.758 -29.696  18.112  1.00  0.00    -0.325 OA
ATOM     21  H1  UNL     1       3.925 -30.240  17.351  1.00  0.00     0.228 HD
ENDBRANCH  19  20
ENDBRANCH   5  19
BRANCH   6  22
HETATM   22  O2  UNL     1       5.234 -27.930  21.644  1.00  0.00    -0.359 OA
ATOM     23  H2  UNL     1       4.534 -27.455  22.074  1.00  0.00     0.217 HD
ENDBRANCH   6  22
TORSDOF 6
ENDMDL