MODEL 1
REMARK VINA RESULT: -7.640383662      0.000      0.000
REMARK  7 active torsions:
REMARK  status: ('A' for Active; 'I' for Inactive)
REMARK    1  A    between atoms: C2_2  and  C4_5
REMARK    2  A    between atoms: C5_6  and  C6_7
REMARK    3  A    between atoms: C6_7  and  O1_8
REMARK    4  A    between atoms: O1_8  and  C7_9
REMARK    5  A    between atoms: C10_12  and  C11_13
REMARK    6  A    between atoms: N1_14  and  O2_16
REMARK    7  A    between atoms: C12_18  and  O3_19
ROOT
HETATM    1  C7  UNL     1       8.353 -28.919  17.941  1.00  0.00     0.111 A
HETATM    2  C8  UNL     1       7.893 -30.123  18.414  1.00  0.00     0.041 A
HETATM    3  C9  UNL     1       6.627 -30.259  18.914  1.00  0.00     0.018 A
HETATM    4  C10 UNL     1       5.718 -29.182  18.975  1.00  0.00     0.018 A
HETATM    5  C12 UNL     1       6.184 -27.984  18.501  1.00  0.00     0.118 A
HETATM    6  C13 UNL     1       7.503 -27.861  17.986  1.00  0.00     0.183 A
HETATM    7  F1  UNL     1       7.887 -26.641  17.537  1.00  0.00    -0.200 F
ENDROOT
BRANCH   1   8
HETATM    8  O1  UNL     1       9.633 -28.753  17.429  1.00  0.00    -0.336 OA
BRANCH   8   9
HETATM    9  C6  UNL     1       9.936 -28.946  16.061  1.00  0.00     0.269 C
BRANCH   9  10
HETATM   10  C5  UNL     1      10.290 -27.651  15.480  1.00  0.00    -0.078 C
HETATM   11  C4  UNL     1      10.566 -26.574  15.012  1.00  0.00    -0.079 C
BRANCH  11  12
HETATM   12  C2  UNL     1      10.884 -25.250  14.456  1.00  0.00     0.093 C
HETATM   13  C1  UNL     1       9.918 -24.233  15.074  1.00  0.00     0.046 C
HETATM   14  C3  UNL     1      12.272 -24.813  14.879  1.00  0.00     0.046 C
HETATM   15 CL1  UNL     1      10.709 -25.339  12.704  1.00  0.00    -0.106 Cl
ENDBRANCH  11  12
ENDBRANCH   9  10
ENDBRANCH   8   9
ENDBRANCH   1   8
BRANCH   5  16
HETATM   16  O3  UNL     1       5.412 -26.858  18.501  1.00  0.00    -0.357 OA
ATOM     17  H3  UNL     1       5.404 -26.255  17.767  1.00  0.00     0.218 HD
ENDBRANCH   5  16
BRANCH   4  18
HETATM   18  C11 UNL     1       4.389 -29.412  19.522  1.00  0.00     0.128 C
HETATM   19  N1  UNL     1       3.627 -30.404  19.297  1.00  0.00    -0.280 N
ATOM     20  H1  UNL     1       3.941 -31.145  18.670  1.00  0.00     0.193 HD
BRANCH  19  21
HETATM   21  O2  UNL     1       2.408 -30.494  19.875  1.00  0.00    -0.290 OA
ATOM     22  H2  UNL     1       2.135 -31.285  20.325  1.00  0.00     0.244 HD
ENDBRANCH  19  21
ENDBRANCH   4  18
TORSDOF 7
ENDMDL