MODEL 1
REMARK VINA RESULT: -7.881505062      0.000      0.000
REMARK  6 active torsions:
REMARK  status: ('A' for Active; 'I' for Inactive)
REMARK    1  A    between atoms: O1_2  and  C2_3
REMARK    2  A    between atoms: C2_3  and  C3_5
REMARK    3  A    between atoms: C6_9  and  C7_10
REMARK    4  A    between atoms: C8_11  and  C9_12
REMARK    5  A    between atoms: C12_16  and  O3_17
REMARK    6  A    between atoms: C13_19  and  O4_20
ROOT
HETATM    1  C3  UNL     1       6.423 -28.941  18.384  1.00  0.00     0.078 A
HETATM    2  C4  UNL     1       7.499 -29.680  17.865  1.00  0.00     0.063 A
HETATM    3  C5  UNL     1       8.461 -29.121  17.077  1.00  0.00     0.130 A
HETATM    4  F1  UNL     1       9.500 -29.836  16.575  1.00  0.00    -0.205 F
HETATM    5  C6  UNL     1       8.419 -27.755  16.739  1.00  0.00     0.038 A
HETATM    6  C12 UNL     1       7.373 -27.061  17.250  1.00  0.00     0.113 A
HETATM    7  C13 UNL     1       6.385 -27.616  18.054  1.00  0.00     0.116 A
ENDROOT
BRANCH   5   8
HETATM    8  C7  UNL     1       9.473 -27.218  15.894  1.00  0.00     0.017 C
HETATM    9  C8  UNL     1       9.471 -27.068  14.606  1.00  0.00     0.002 C
BRANCH   9  10
HETATM   10  C9  UNL     1      10.690 -26.487  13.978  1.00  0.00     0.019 C
HETATM   11  C10 UNL     1      10.985 -25.220  14.179  1.00  0.00     0.008 C
HETATM   12  C11 UNL     1      12.200 -24.665  13.547  1.00  0.00     0.062 C
HETATM   13 CL1  UNL     1       9.939 -24.229  15.182  1.00  0.00    -0.089 Cl
ENDBRANCH   9  10
ENDBRANCH   5   8
BRANCH   6  14
HETATM   14  O3  UNL     1       7.249 -25.703  16.969  1.00  0.00    -0.357 OA
ATOM     15  H3  UNL     1       6.817 -25.429  16.169  1.00  0.00     0.217 HD
ENDBRANCH   6  14
BRANCH   7  16
HETATM   16  O4  UNL     1       5.368 -26.795  18.512  1.00  0.00    -0.357 OA
ATOM     17  H4  UNL     1       5.243 -25.924  18.154  1.00  0.00     0.217 HD
ENDBRANCH   7  16
BRANCH   1  18
HETATM   18  C2  UNL     1       5.446 -29.626  19.217  1.00  0.00     0.295 C
HETATM   19  O2  UNL     1       5.678 -30.867  19.457  1.00  0.00    -0.259 OA
BRANCH  18  20
HETATM   20  O1  UNL     1       4.313 -29.126  19.779  1.00  0.00    -0.322 OA
HETATM   21  C1  UNL     1       3.010 -29.341  19.274  1.00  0.00     0.213 C
ENDBRANCH  18  20
ENDBRANCH   1  18
TORSDOF 6
ENDMDL