MODEL 2
REMARK VINA RESULT: -7.114376428      2.013      3.040
REMARK  6 active torsions:
REMARK  status: ('A' for Active; 'I' for Inactive)
REMARK    1  A    between atoms: C2_2  and  C3_3
REMARK    2  A    between atoms: C3_3  and  C4_4
REMARK    3  A    between atoms: C4_4  and  N1_5
REMARK    4  A    between atoms: C5_6  and  O1_7
REMARK    5  A    between atoms: C7_11  and  N2_12
REMARK    6  A    between atoms: N2_12  and  C8_14
ROOT
HETATM    1  N1  UNL     1       7.027 -27.711  17.834  1.00  0.00    -0.282 N
HETATM    2  C5  UNL     1       6.802 -26.435  18.160  1.00  0.00     0.169 A
HETATM    3  C6  UNL     1       7.428 -25.647  17.199  1.00  0.00     0.202 A
HETATM    4  O2  UNL     1       7.992 -26.450  16.351  1.00  0.00    -0.287 OA
HETATM    5  C7  UNL     1       7.778 -27.698  16.693  1.00  0.00     0.233 A
ENDROOT
BRANCH   1   6
HETATM    6  C4  UNL     1       6.621 -28.943  18.472  1.00  0.00     0.043 C
HETATM    7  C10 UNL     1       6.896 -28.920  19.965  1.00  0.00     0.031 C
HETATM    8  C11 UNL     1       8.347 -28.640  20.161  1.00  0.00     0.002 C
HETATM    9  C12 UNL     1       9.110 -29.809  19.643  1.00  0.00     0.000 C
HETATM   10  C13 UNL     1       8.620 -30.492  18.435  1.00  0.00     0.002 C
HETATM   11  C14 UNL     1       7.256 -30.181  17.931  1.00  0.00     0.031 C
BRANCH   6  12
HETATM   12  C3  UNL     1       5.133 -29.064  18.309  1.00  0.00     0.031 C
BRANCH  12  13
HETATM   13  C2  UNL     1       4.312 -28.939  19.548  1.00  0.00    -0.002 C
HETATM   14  C1  UNL     1       2.850 -29.162  19.083  1.00  0.00     0.005 C
ENDBRANCH  12  13
ENDBRANCH   6  12
ENDBRANCH   1   6
BRANCH   2  15
HETATM   15  O1  UNL     1       6.086 -25.948  19.245  1.00  0.00    -0.344 OA
ATOM     16  H1  UNL     1       5.819 -25.051  19.412  1.00  0.00     0.219 HD
ENDBRANCH   2  15
BRANCH   5  17
HETATM   17  N2  UNL     1       8.236 -28.664  16.011  1.00  0.00    -0.294 N
ATOM     18  H2  UNL     1       7.591 -29.429  15.811  1.00  0.00     0.169 HD
BRANCH  17  19
HETATM   19  C8  UNL     1       9.554 -28.791  15.496  1.00  0.00     0.321 C
HETATM   20  C9  UNL     1       9.665 -28.186  14.112  1.00  0.00     0.117 C
HETATM   21  F1  UNL     1      10.493 -28.260  16.342  1.00  0.00    -0.183 F
HETATM   22  F2  UNL     1       9.840 -30.156  15.388  1.00  0.00    -0.183 F
ENDBRANCH  17  19
ENDBRANCH   5  17
TORSDOF 6
ENDMDL