MODEL 1
REMARK VINA RESULT: -7.712501960      0.000      0.000
REMARK  7 active torsions:
REMARK  status: ('A' for Active; 'I' for Inactive)
REMARK    1  A    between atoms: C2_2  and  O1_5
REMARK    2  A    between atoms: O1_5  and  C5_6
REMARK    3  A    between atoms: C5_6  and  C6_8
REMARK    4  A    between atoms: C8_10  and  C9_11
REMARK    5  A    between atoms: C10_12  and  C11_13
REMARK    6  A    between atoms: C11_13  and  O3_14
REMARK    7  A    between atoms: N1_16  and  O4_18
ROOT
HETATM    1  C6  UNL     1       7.033 -28.288  19.186  1.00  0.00     0.082 A
HETATM    2  C7  UNL     1       7.349 -28.059  17.871  1.00  0.00     0.032 A
HETATM    3  C8  UNL     1       8.408 -28.702  17.251  1.00  0.00    -0.032 A
HETATM    4  C12 UNL     1       9.144 -29.582  17.982  1.00  0.00     0.057 A
HETATM    5  C13 UNL     1       8.866 -29.847  19.307  1.00  0.00     0.156 A
HETATM    6  F1  UNL     1       9.631 -30.730  19.981  1.00  0.00    -0.203 F
HETATM    7  C14 UNL     1       7.800 -29.183  19.888  1.00  0.00     0.171 A
HETATM    8  F2  UNL     1       7.541 -29.460  21.203  1.00  0.00    -0.202 F
ENDROOT
BRANCH   3   9
HETATM    9  C9  UNL     1       8.681 -28.398  15.834  1.00  0.00     0.016 C
HETATM   10  C10 UNL     1       9.741 -27.746  15.432  1.00  0.00     0.058 C
BRANCH  10  11
HETATM   11  C11 UNL     1      10.040 -27.432  14.067  1.00  0.00     0.159 C
HETATM   12  N1  UNL     1      10.731 -26.483  13.662  1.00  0.00    -0.248 N
ATOM     13  H1  UNL     1      10.805 -26.459  12.644  1.00  0.00     0.196 HD
BRANCH  11  14
HETATM   14  O3  UNL     1       9.479 -28.308  13.078  1.00  0.00    -0.345 OA
ATOM     15  H3  UNL     1       8.941 -27.897  12.412  1.00  0.00     0.219 HD
ENDBRANCH  11  14
BRANCH  12  16
HETATM   16  O4  UNL     1      11.393 -25.497  14.240  1.00  0.00    -0.288 OA
ATOM     17  H4  UNL     1      11.370 -25.084  15.095  1.00  0.00     0.244 HD
ENDBRANCH  12  16
ENDBRANCH  10  11
ENDBRANCH   3   9
BRANCH   1  18
HETATM   18  C5  UNL     1       5.921 -27.595  19.788  1.00  0.00     0.297 C
HETATM   19  O2  UNL     1       5.973 -26.347  19.993  1.00  0.00    -0.259 OA
BRANCH  18  20
HETATM   20  O1  UNL     1       4.744 -28.219  20.178  1.00  0.00    -0.307 OA
BRANCH  20  21
HETATM   21  C2  UNL     1       3.893 -28.912  19.292  1.00  0.00     0.060 C
HETATM   22  C1  UNL     1       4.375 -30.317  19.003  1.00  0.00     0.046 C
HETATM   23  C3  UNL     1       3.636 -28.186  18.013  1.00  0.00     0.046 C
HETATM   24  C4  UNL     1       2.545 -29.033  20.015  1.00  0.00     0.046 C
ENDBRANCH  20  21
ENDBRANCH  18  20
ENDBRANCH   1  18
TORSDOF 7
ENDMDL