MODEL 3
REMARK VINA RESULT: -6.362601281      3.255      6.061
REMARK  6 active torsions:
REMARK  status: ('A' for Active; 'I' for Inactive)
REMARK    1  A    between atoms: C2_2  and  C4_5
REMARK    2  A    between atoms: C6_7  and  O1_8
REMARK    3  A    between atoms: C7_10  and  N1_11
REMARK    4  A    between atoms: N1_11  and  C8_12
REMARK    5  A    between atoms: C8_12  and  C9_14
REMARK    6  A    between atoms: C9_14  and  C10_15
ROOT
HETATM    1  C4  UNL     1       8.763 -29.205  15.821  1.00  0.00     0.011 A
HETATM    2  C5  UNL     1       8.716 -30.121  16.816  1.00  0.00     0.057 A
HETATM    3  C6  UNL     1       8.249 -29.732  18.023  1.00  0.00     0.114 A
HETATM    4  C7  UNL     1       7.853 -28.423  18.162  1.00  0.00     0.182 A
HETATM    5  S1  UNL     1       8.163 -27.800  16.548  1.00  0.00    -0.058 SA
ENDROOT
BRANCH   4   6
HETATM    6  N1  UNL     1       7.354 -27.707  19.226  1.00  0.00    -0.387 NA
BRANCH   6   7
HETATM    7  C8  UNL     1       6.769 -27.301  20.135  1.00  0.00     0.164 C
HETATM    8 CL2  UNL     1       7.280 -25.725  20.830  1.00  0.00    -0.053 Cl
BRANCH   7   9
HETATM    9  C9  UNL     1       5.635 -27.911  20.852  1.00  0.00     0.199 C
BRANCH   9  10
HETATM   10  C10 UNL     1       4.732 -28.711  19.989  1.00  0.00     0.180 C
HETATM   11  O2  UNL     1       3.618 -28.295  19.651  1.00  0.00    -0.648 OA
HETATM   12  O3  UNL     1       5.144 -29.970  19.550  1.00  0.00    -0.648 OA
ENDBRANCH   9  10
ENDBRANCH   7   9
ENDBRANCH   6   7
ENDBRANCH   4   6
BRANCH   3  13
HETATM   13  O1  UNL     1       8.187 -30.680  19.088  1.00  0.00    -0.357 OA
ATOM     14  H1  UNL     1       7.396 -31.191  19.211  1.00  0.00     0.218 HD
ENDBRANCH   3  13
BRANCH   1  15
HETATM   15  C2  UNL     1       9.252 -29.444  14.402  1.00  0.00     0.063 C
HETATM   16  C1  UNL     1       8.053 -29.803  13.573  1.00  0.00     0.038 C
HETATM   17  C3  UNL     1       9.932 -28.176  13.962  1.00  0.00     0.038 C
HETATM   18 CL1  UNL     1      10.398 -30.774  14.511  1.00  0.00    -0.114 Cl
ENDBRANCH   1  15
TORSDOF 6
ENDMDL