MODEL 3
REMARK VINA RESULT: -6.638160205      0.960      1.125
REMARK  5 active torsions:
REMARK  status: ('A' for Active; 'I' for Inactive)
REMARK    1  A    between atoms: C2_2  and  N1_4
REMARK    2  A    between atoms: C2_2  and  C11_19
REMARK    3  A    between atoms: N1_4  and  C4_6
REMARK    4  A    between atoms: C6_8  and  C7_9
REMARK    5  A    between atoms: C7_9  and  C10_12
ROOT
HETATM    1  C4  UNL     1       6.977 -29.584  18.387  1.00  0.00     0.089 A
HETATM    2  C5  UNL     1       7.341 -29.539  17.066  1.00  0.00     0.065 A
HETATM    3  C6  UNL     1       8.663 -29.396  16.823  1.00  0.00     0.035 A
HETATM    4  N2  UNL     1       9.477 -29.312  17.875  1.00  0.00    -0.327 N
ATOM      5  H2  UNL     1      10.491 -29.202  17.874  1.00  0.00     0.174 HD
HETATM    6  S1  UNL     1       8.457 -29.428  19.200  1.00  0.00     0.003 SA
ENDROOT
BRANCH   1   7
HETATM    7  N1  UNL     1       5.631 -29.721  18.906  1.00  0.00    -0.365 N
ATOM      8  H1  UNL     1       5.186 -30.639  18.897  1.00  0.00     0.161 HD
BRANCH   7   9
HETATM    9  C2  UNL     1       4.916 -28.609  19.426  1.00  0.00     0.112 C
HETATM   10  C1  UNL     1       3.449 -28.895  19.666  1.00  0.00     0.050 C
HETATM   11  C3  UNL     1       5.579 -28.240  20.769  1.00  0.00     0.050 C
BRANCH   9  12
HETATM   12  C11 UNL     1       5.020 -27.475  18.493  1.00  0.00     0.201 C
HETATM   13  O1  UNL     1       4.263 -27.432  17.496  1.00  0.00    -0.646 OA
HETATM   14  O2  UNL     1       5.927 -26.453  18.680  1.00  0.00    -0.646 OA
ENDBRANCH   9  12
ENDBRANCH   7   9
ENDBRANCH   1   7
BRANCH   3  15
HETATM   15  C7  UNL     1       9.234 -29.329  15.413  1.00  0.00     0.093 C
HETATM   16  C8  UNL     1       8.165 -29.727  14.411  1.00  0.00     0.031 C
HETATM   17  C9  UNL     1      10.358 -30.321  15.265  1.00  0.00     0.031 C
BRANCH  15  18
HETATM   18  C10 UNL     1       9.765 -27.956  15.117  1.00  0.00     0.400 C
HETATM   19  F1  UNL     1      10.257 -27.843  13.838  1.00  0.00    -0.170 F
HETATM   20  F2  UNL     1       8.769 -26.991  15.222  1.00  0.00    -0.170 F
HETATM   21  F3  UNL     1      10.736 -27.583  16.017  1.00  0.00    -0.170 F
ENDBRANCH  15  18
ENDBRANCH   3  15
TORSDOF 5
ENDMDL