MODEL 2
REMARK VINA RESULT: -7.627602358      0.371      1.010
REMARK  4 active torsions:
REMARK  status: ('A' for Active; 'I' for Inactive)
REMARK    1  A    between atoms: C2_2  and  N1_5
REMARK       I    between atoms: N1_5  and  C5_7
REMARK       I    between atoms: C5_7  and  N2_9
REMARK    2  A    between atoms: N3_11  and  N4_13
REMARK    3  A    between atoms: N4_13  and  C6_15
REMARK    4  A    between atoms: C10_20  and  N5_21
ROOT
HETATM    1  N4  UNL     1       8.322 -27.728  17.731  1.00  0.00    -0.283 N
ATOM      2  H4  UNL     1       8.410 -26.810  17.294  1.00  0.00     0.188 HD
ENDROOT
BRANCH   1   3
HETATM    3  N3  UNL     1       9.183 -28.752  17.348  1.00  0.00    -0.238 N
HETATM    4  N2  UNL     1       9.898 -28.655  16.308  1.00  0.00    -0.237 N
HETATM    5  C5  UNL     1       9.851 -27.483  15.477  1.00  0.00     0.336 C
ATOM      6  H2  UNL     1      10.519 -29.424  16.055  1.00  0.00     0.193 HD
HETATM    7  N1  UNL     1      10.961 -26.600  15.448  1.00  0.00    -0.334 N
HETATM    8  O1  UNL     1       8.849 -27.218  14.772  1.00  0.00    -0.246 OA
ATOM      9  H1  UNL     1      11.784 -26.801  16.016  1.00  0.00     0.165 HD
ATOM     10  H3  UNL     1       9.240 -29.597  17.916  1.00  0.00     0.208 HD
BRANCH   7  11
HETATM   11  C2  UNL     1      10.931 -25.425  14.626  1.00  0.00     0.023 C
HETATM   12  C1  UNL     1       9.847 -24.453  15.047  1.00  0.00     0.037 C
HETATM   13  C3  UNL     1      12.259 -24.714  14.772  1.00  0.00     0.037 C
HETATM   14  C4  UNL     1      10.715 -25.866  13.178  1.00  0.00     0.037 C
ENDBRANCH   7  11
ENDBRANCH   1   3
BRANCH   1  15
HETATM   15  C6  UNL     1       7.324 -27.937  18.719  1.00  0.00     0.093 A
HETATM   16  C7  UNL     1       6.471 -29.014  18.612  1.00  0.00     0.076 A
HETATM   17  C8  UNL     1       5.480 -29.276  19.535  1.00  0.00     0.121 A
HETATM   18  F1  UNL     1       4.647 -30.334  19.423  1.00  0.00    -0.206 F
HETATM   19  C9  UNL     1       5.344 -28.421  20.607  1.00  0.00     0.081 A
HETATM   20  C10 UNL     1       6.184 -27.317  20.760  1.00  0.00     0.146 A
HETATM   21  C11 UNL     1       7.151 -27.109  19.807  1.00  0.00     0.177 A
HETATM   22  F2  UNL     1       7.973 -26.045  19.938  1.00  0.00    -0.201 F
BRANCH  20  23
HETATM   23  N5  UNL     1       6.013 -26.458  21.877  1.00  0.00    -0.112 N
HETATM   24  O2  UNL     1       6.464 -26.759  23.002  1.00  0.00    -0.532 OA
HETATM   25  O3  UNL     1       5.349 -25.280  21.754  1.00  0.00    -0.532 OA
ENDBRANCH  20  23
ENDBRANCH   1  15
TORSDOF 4
ENDMDL