MODEL 1
REMARK VINA RESULT: -5.814202070      0.000      0.000
REMARK  8 active torsions:
REMARK  status: ('A' for Active; 'I' for Inactive)
REMARK    1  A    between atoms: C2_2  and  C3_5
REMARK    2  A    between atoms: C3_5  and  C4_6
REMARK    3  A    between atoms: C4_6  and  C5_7
REMARK    4  A    between atoms: C5_7  and  N1_8
REMARK    5  A    between atoms: N1_8  and  C6_10
REMARK    6  A    between atoms: C6_10  and  S2_12
REMARK    7  A    between atoms: S2_12  and  S3_13
REMARK    8  A    between atoms: S3_13  and  C7_14
ROOT
HETATM    1  N1  UNL     1       8.103 -30.098  19.644  1.00  0.00    -0.375 N
ATOM      2  H1  UNL     1       8.295 -30.966  20.143  1.00  0.00     0.161 HD
ENDROOT
BRANCH   1   3
HETATM    3  C5  UNL     1       9.114 -29.495  18.799  1.00  0.00     0.121 C
BRANCH   3   4
HETATM    4  C4  UNL     1       8.882 -29.838  17.344  1.00  0.00     0.023 C
BRANCH   4   5
HETATM    5  C3  UNL     1       9.925 -29.310  16.432  1.00  0.00     0.043 C
BRANCH   5   6
HETATM    6  C2  UNL     1       9.505 -29.477  15.008  1.00  0.00     0.109 C
HETATM    7  C1  UNL     1       8.015 -29.663  14.936  1.00  0.00     0.050 C
HETATM    8 CL1  UNL     1      10.309 -30.915  14.312  1.00  0.00    -0.102 Cl
HETATM    9 CL2  UNL     1       9.962 -28.043  14.042  1.00  0.00    -0.102 Cl
ENDBRANCH   5   6
ENDBRANCH   4   5
ENDBRANCH   3   4
ENDBRANCH   1   3
BRANCH   1  10
HETATM   10  C6  UNL     1       6.847 -29.465  19.764  1.00  0.00     0.145 C
HETATM   11  S1  UNL     1       5.489 -30.163  19.153  1.00  0.00    -0.052 SA
BRANCH  10  12
HETATM   12  S2  UNL     1       6.707 -27.877  20.595  1.00  0.00    -0.019 SA
BRANCH  12  13
HETATM   13  S3  UNL     1       7.061 -26.321  19.193  1.00  0.00     0.008 SA
BRANCH  13  14
HETATM   14  C7  UNL     1       6.195 -26.734  17.713  1.00  0.00     0.303 C
HETATM   15  N2  UNL     1       4.794 -26.829  17.704  1.00  0.00    -0.050 NA
HETATM   16  O1  UNL     1       6.843 -26.945  16.667  1.00  0.00    -0.263 OA
ENDBRANCH  13  14
ENDBRANCH  12  13
ENDBRANCH  10  12
ENDBRANCH   1  10
TORSDOF 8
ENDMDL