MODEL 3
REMARK VINA RESULT: -7.824041861      1.974      3.207
REMARK  9 active torsions:
REMARK  status: ('A' for Active; 'I' for Inactive)
REMARK    1  A    between atoms: C3_3  and  C4_4
REMARK    2  A    between atoms: C4_4  and  O1_5
REMARK    3  A    between atoms: O1_5  and  N1_6
REMARK    4  A    between atoms: N1_6  and  C5_8
REMARK    5  A    between atoms: C6_9  and  C7_10
REMARK    6  A    between atoms: C7_10  and  C8_11
REMARK    7  A    between atoms: C19_22  and  C20_23
REMARK    8  A    between atoms: C20_23  and  O2_26
REMARK    9  A    between atoms: C23_28  and  O3_29
ROOT
HETATM    1  C1  UNL     1     -27.527 -12.588 -23.620  1.00  0.00     0.112 C
HETATM    2  C2  UNL     1     -28.376 -13.597 -24.216  1.00  0.00    -0.109 C
HETATM    3  C3  UNL     1     -29.083 -14.443 -24.603  1.00  0.00    -0.078 C
ENDROOT
BRANCH   3   4
HETATM    4  C4  UNL     1     -29.985 -15.581 -25.121  1.00  0.00     0.294 C
BRANCH   4   5
HETATM    5  O1  UNL     1     -31.123 -14.814 -25.341  1.00  0.00    -0.269 OA
BRANCH   5   6
HETATM    6  N1  UNL     1     -32.254 -14.736 -24.616  1.00  0.00    -0.277 N
ATOM      7  H1  UNL     1     -32.919 -15.508 -24.573  1.00  0.00     0.193 HD
BRANCH   6   8
HETATM    8  C5  UNL     1     -32.455 -13.620 -23.973  1.00  0.00     0.114 C
HETATM    9  C6  UNL     1     -32.226 -12.383 -23.552  1.00  0.00     0.019 C
BRANCH   9  10
HETATM   10  C7  UNL     1     -31.392 -11.443 -24.385  1.00  0.00     0.007 C
BRANCH  10  11
HETATM   11  C8  UNL     1     -31.100 -10.333 -23.932  1.00  0.00    -0.041 C
HETATM   12  C9  UNL     1     -30.081 -10.083 -22.944  1.00  0.00     0.038 C
HETATM   13  C10 UNL     1     -29.310  -8.913 -23.515  1.00  0.00     0.017 C
HETATM   14  C11 UNL     1     -30.034  -8.680 -24.857  1.00  0.00     0.059 C
HETATM   15  C12 UNL     1     -29.812  -7.509 -25.575  1.00  0.00    -0.064 C
HETATM   16  C23 UNL     1     -31.494  -8.997 -24.380  1.00  0.00     0.115 C
HETATM   17  C13 UNL     1     -29.206  -6.432 -24.826  1.00  0.00     0.000 C
HETATM   18  C17 UNL     1     -30.918  -7.082 -26.533  1.00  0.00     0.043 C
HETATM   19  C14 UNL     1     -29.219  -5.157 -25.133  1.00  0.00    -0.021 C
HETATM   20  C15 UNL     1     -30.027  -4.884 -26.310  1.00  0.00     0.022 A
HETATM   21  C16 UNL     1     -31.304  -5.689 -25.965  1.00  0.00     0.014 A
HETATM   22  C24 UNL     1     -31.272  -4.377 -26.563  1.00  0.00    -0.035 A
HETATM   23  C25 UNL     1     -31.754  -3.184 -25.792  1.00  0.00     0.016 C
HETATM   24  C26 UNL     1     -31.760  -4.355 -28.019  1.00  0.00     0.016 C
HETATM   25  C18 UNL     1     -32.074  -7.941 -26.418  1.00  0.00    -0.008 C
HETATM   26  C19 UNL     1     -32.455  -8.787 -25.488  1.00  0.00    -0.011 C
BRANCH  26  27
HETATM   27  C20 UNL     1     -33.712  -9.510 -25.592  1.00  0.00     0.077 C
HETATM   28  C21 UNL     1     -33.845 -10.658 -26.473  1.00  0.00     0.050 C
HETATM   29  C22 UNL     1     -34.639  -8.326 -26.323  1.00  0.00     0.050 C
BRANCH  27  30
HETATM   30  O2  UNL     1     -34.407  -9.691 -24.435  1.00  0.00    -0.386 OA
ATOM     31  H2  UNL     1     -35.087  -9.056 -24.244  1.00  0.00     0.211 HD
ENDBRANCH  27  30
ENDBRANCH  26  27
BRANCH  16  32
HETATM   32  O3  UNL     1     -31.913  -8.158 -23.328  1.00  0.00    -0.380 OA
ATOM     33  H3  UNL     1     -32.668  -7.626 -23.550  1.00  0.00     0.211 HD
ENDBRANCH  16  32
ENDBRANCH  10  11
ENDBRANCH   9  10
ENDBRANCH   6   8
ENDBRANCH   5   6
ENDBRANCH   4   5
ENDBRANCH   3   4
TORSDOF 9
ENDMDL