MODEL 3
REMARK VINA RESULT: -6.719960999      2.034      4.685
REMARK  6 active torsions:
REMARK  status: ('A' for Active; 'I' for Inactive)
REMARK    1  A    between atoms: C2_2  and  O1_5
REMARK    2  A    between atoms: O1_5  and  C5_6
REMARK    3  A    between atoms: C11_12  and  C12_13
REMARK    4  A    between atoms: C12_13  and  C13_14
REMARK    5  A    between atoms: C13_14  and  O2_15
REMARK    6  A    between atoms: C21_24  and  O3_25
ROOT
HETATM    1  C5  UNL     1     -30.127  -7.514 -26.641  1.00  0.00     0.144 C
HETATM    2  C6  UNL     1     -31.249  -8.110 -26.241  1.00  0.00    -0.024 C
HETATM    3  C7  UNL     1     -31.824  -8.024 -24.843  1.00  0.00     0.044 C
HETATM    4  C8  UNL     1     -32.442  -9.369 -24.823  1.00  0.00    -0.001 C
HETATM    5  C9  UNL     1     -33.482  -9.712 -23.875  1.00  0.00     0.006 C
HETATM    6  C10 UNL     1     -34.481 -10.543 -24.711  1.00  0.00     0.006 C
HETATM    7  C11 UNL     1     -33.778 -10.641 -26.079  1.00  0.00    -0.003 C
HETATM    8  C14 UNL     1     -33.269  -9.263 -26.154  1.00  0.00    -0.029 C
HETATM    9  C15 UNL     1     -34.270  -8.154 -25.981  1.00  0.00     0.016 C
HETATM   10  C16 UNL     1     -32.184  -8.944 -27.061  1.00  0.00     0.028 C
HETATM   11  C17 UNL     1     -32.529  -8.015 -28.210  1.00  0.00     0.012 C
HETATM   12  C18 UNL     1     -31.598  -8.292 -29.321  1.00  0.00     0.035 C
HETATM   13  C19 UNL     1     -30.200  -7.876 -29.257  1.00  0.00     0.063 C
HETATM   14  C20 UNL     1     -29.376  -8.961 -29.969  1.00  0.00     0.041 C
HETATM   15  C21 UNL     1     -29.994  -6.616 -30.106  1.00  0.00     0.215 C
HETATM   16  C22 UNL     1     -28.582  -6.163 -30.039  1.00  0.00     0.159 C
HETATM   17  O4  UNL     1     -28.238  -5.273 -30.779  1.00  0.00    -0.295 OA
HETATM   18  C23 UNL     1     -27.578  -6.743 -29.119  1.00  0.00     0.101 C
HETATM   19  C24 UNL     1     -28.141  -7.503 -27.975  1.00  0.00     0.133 C
HETATM   20  N1  UNL     1     -29.604  -7.639 -27.992  1.00  0.00    -0.349 N
ENDROOT
BRANCH   1  21
HETATM   21  O1  UNL     1     -29.438  -6.770 -25.765  1.00  0.00    -0.326 OA
BRANCH  21  22
HETATM   22  C2  UNL     1     -29.389  -5.472 -25.375  1.00  0.00     0.058 C
HETATM   23  C1  UNL     1     -28.161  -4.668 -25.806  1.00  0.00     0.045 C
HETATM   24  C3  UNL     1     -29.258  -5.481 -23.829  1.00  0.00     0.045 C
HETATM   25  C4  UNL     1     -30.546  -4.568 -25.708  1.00  0.00     0.045 C
ENDBRANCH  21  22
ENDBRANCH   1  21
BRANCH  15  26
HETATM   26  O3  UNL     1     -30.296  -6.984 -31.422  1.00  0.00    -0.386 OA
ATOM     27  H3  UNL     1     -29.463  -7.032 -31.878  1.00  0.00     0.210 HD
ENDBRANCH  15  26
BRANCH   7  28
HETATM   28  C12 UNL     1     -34.534 -11.269 -27.143  1.00  0.00     0.031 C
BRANCH  28  29
HETATM   29  C13 UNL     1     -35.526 -10.498 -27.937  1.00  0.00     0.164 C
BRANCH  29  30
HETATM   30  O2  UNL     1     -36.787 -11.126 -27.670  1.00  0.00    -0.401 OA
ATOM     31  H2  UNL     1     -37.202 -11.219 -28.520  1.00  0.00     0.209 HD
ENDBRANCH  29  30
ENDBRANCH  28  29
ENDBRANCH   7  28
TORSDOF 6
ENDMDL