MODEL 2
REMARK VINA RESULT: -7.512541574      3.454      5.304
REMARK  6 active torsions:
REMARK  status: ('A' for Active; 'I' for Inactive)
REMARK    1  A    between atoms: C2_2  and  C3_3
REMARK    2  A    between atoms: C3_3  and  C4_4
REMARK    3  A    between atoms: C4_4  and  O1_5
REMARK    4  A    between atoms: C11_13  and  O2_14
REMARK    5  A    between atoms: C11_13  and  C12_16
REMARK    6  A    between atoms: C12_16  and  N1_17
ROOT
HETATM    1  C4  UNL     1     -34.458 -11.063 -24.633  1.00  0.00     0.068 C
HETATM    2  C5  UNL     1     -35.117 -11.841 -25.749  1.00  0.00     0.039 C
HETATM    3  C6  UNL     1     -34.697 -11.014 -26.959  1.00  0.00     0.009 C
HETATM    4  C7  UNL     1     -33.294 -10.566 -26.635  1.00  0.00     0.001 C
HETATM    5  C8  UNL     1     -33.089  -9.102 -26.818  1.00  0.00    -0.005 C
HETATM    6  C9  UNL     1     -33.375  -8.677 -28.260  1.00  0.00     0.008 C
HETATM    7  C10 UNL     1     -33.480  -7.176 -28.197  1.00  0.00     0.040 C
HETATM    8  C11 UNL     1     -32.356  -6.484 -27.515  1.00  0.00     0.074 C
HETATM    9  C20 UNL     1     -31.329  -7.320 -26.855  1.00  0.00     0.044 C
HETATM   10  C21 UNL     1     -31.658  -8.752 -26.582  1.00  0.00    -0.007 C
HETATM   11  C22 UNL     1     -31.273  -9.174 -25.188  1.00  0.00     0.006 C
HETATM   12  C23 UNL     1     -32.353  -9.847 -24.412  1.00  0.00     0.013 C
HETATM   13  C24 UNL     1     -33.057 -10.923 -25.183  1.00  0.00    -0.009 C
HETATM   14  C25 UNL     1     -32.251 -12.204 -25.082  1.00  0.00     0.019 C
ENDROOT
BRANCH   8  15
HETATM   15  O2  UNL     1     -32.937  -5.620 -26.572  1.00  0.00    -0.388 OA
ATOM     16  H2  UNL     1     -32.219  -5.177 -26.137  1.00  0.00     0.210 HD
ENDBRANCH   8  15
BRANCH   8  17
HETATM   17  C12 UNL     1     -31.640  -5.667 -28.615  1.00  0.00     0.155 C
BRANCH  17  18
HETATM   18  N1  UNL     1     -30.391  -6.183 -28.998  1.00  0.00    -0.398 N
HETATM   19  C13 UNL     1     -29.281  -5.459 -28.507  1.00  0.00     0.148 C
HETATM   20  C14 UNL     1     -28.020  -5.501 -29.293  1.00  0.00     0.291 C
HETATM   21  N2  UNL     1     -28.097  -5.758 -30.679  1.00  0.00     0.088 N
HETATM   22  C15 UNL     1     -27.461  -4.759 -31.508  1.00  0.00     0.310 C
HETATM   23  C16 UNL     1     -29.366  -6.081 -31.216  1.00  0.00     0.301 C
HETATM   24  C17 UNL     1     -30.253  -6.831 -30.238  1.00  0.00     0.047 C
HETATM   25  C18 UNL     1     -29.550  -8.172 -29.982  1.00  0.00     0.039 C
HETATM   26  C19 UNL     1     -31.527  -7.145 -30.955  1.00  0.00     0.039 C
ENDBRANCH  17  18
ENDBRANCH   8  17
BRANCH   1  27
HETATM   27  C3  UNL     1     -34.539 -11.720 -23.294  1.00  0.00     0.065 C
BRANCH  27  28
HETATM   28  C2  UNL     1     -35.733 -12.645 -23.242  1.00  0.00    -0.034 C
HETATM   29  C1  UNL     1     -36.022 -13.317 -22.135  1.00  0.00     0.007 C
ENDBRANCH  27  28
ENDBRANCH   1  27
BRANCH   1  30
HETATM   30  O1  UNL     1     -35.025  -9.784 -24.623  1.00  0.00    -0.389 OA
ATOM     31  H1  UNL     1     -35.009  -9.382 -25.483  1.00  0.00     0.210 HD
ENDBRANCH   1  30
TORSDOF 6
ENDMDL