MODEL 2
REMARK VINA RESULT: -7.713476365      3.212      5.585
REMARK  5 active torsions:
REMARK  status: ('A' for Active; 'I' for Inactive)
REMARK    1  A    between atoms: C2_2  and  N1_3
REMARK       I    between atoms: N1_3  and  C3_5
REMARK    2  A    between atoms: C3_5  and  O2_7
REMARK    3  A    between atoms: O2_7  and  C4_8
REMARK    4  A    between atoms: C17_21  and  O3_22
REMARK    5  A    between atoms: O3_22  and  S1_23
ROOT
HETATM    1  C4  UNL     1     -34.169 -10.850 -25.680  1.00  0.00     0.138 C
HETATM    2  C5  UNL     1     -34.464 -11.109 -27.138  1.00  0.00     0.033 C
HETATM    3  C6  UNL     1     -34.861  -9.983 -27.980  1.00  0.00     0.007 C
HETATM    4  C7  UNL     1     -34.500  -8.598 -27.582  1.00  0.00    -0.010 C
HETATM    5  C8  UNL     1     -33.412  -7.987 -28.434  1.00  0.00     0.005 C
HETATM    6  C9  UNL     1     -33.197  -6.544 -28.282  1.00  0.00     0.005 C
HETATM    7  C10 UNL     1     -32.499  -6.016 -27.065  1.00  0.00    -0.010 C
HETATM    8  C11 UNL     1     -33.485  -5.039 -26.407  1.00  0.00     0.005 C
HETATM    9  C12 UNL     1     -34.591  -6.029 -26.021  1.00  0.00     0.006 C
HETATM   10  C13 UNL     1     -33.819  -7.229 -25.598  1.00  0.00    -0.005 C
HETATM   11  C14 UNL     1     -32.405  -7.088 -26.069  1.00  0.00     0.000 C
HETATM   12  C15 UNL     1     -31.509  -7.075 -24.920  1.00  0.00     0.017 C
HETATM   13  C16 UNL     1     -31.755  -6.099 -23.836  1.00  0.00     0.013 C
HETATM   14  C17 UNL     1     -31.394  -8.511 -24.420  1.00  0.00     0.149 C
HETATM   15  C18 UNL     1     -32.627  -9.314 -24.395  1.00  0.00     0.041 C
HETATM   16  C19 UNL     1     -33.293  -9.584 -25.688  1.00  0.00     0.022 C
HETATM   17  C20 UNL     1     -34.288  -8.533 -26.123  1.00  0.00     0.001 C
ENDROOT
BRANCH   1  18
HETATM   18  O2  UNL     1     -35.315 -10.676 -24.910  1.00  0.00    -0.298 OA
BRANCH  18  19
HETATM   19  C3  UNL     1     -35.671 -11.652 -23.990  1.00  0.00     0.360 C
HETATM   20  N1  UNL     1     -34.770 -12.679 -23.610  1.00  0.00    -0.337 N
ATOM     21  H1  UNL     1     -33.834 -12.714 -24.014  1.00  0.00     0.164 HD
HETATM   22  O1  UNL     1     -36.836 -11.591 -23.498  1.00  0.00    -0.239 OA
BRANCH  20  23
HETATM   23  C2  UNL     1     -35.181 -13.673 -22.649  1.00  0.00     0.120 C
HETATM   24  C1  UNL     1     -34.535 -13.338 -21.322  1.00  0.00     0.026 C
ENDBRANCH  20  23
ENDBRANCH  18  19
ENDBRANCH   1  18
BRANCH  14  25
HETATM   25  O3  UNL     1     -30.892  -8.429 -23.117  1.00  0.00    -0.251 OA
BRANCH  25  26
HETATM   26  S1  UNL     1     -29.762  -9.597 -22.781  1.00  0.00     0.251 S
HETATM   27  O4  UNL     1     -29.396  -9.478 -21.308  1.00  0.00    -0.572 OA
HETATM   28  O5  UNL     1     -28.510  -9.474 -23.568  1.00  0.00    -0.572 OA
HETATM   29  O6  UNL     1     -30.407 -11.155 -22.960  1.00  0.00    -0.572 OA
ENDBRANCH  25  26
ENDBRANCH  14  25
TORSDOF 5
ENDMDL