MODEL 4
REMARK VINA RESULT: -8.407237067      1.807      5.069
REMARK  7 active torsions:
REMARK  status: ('A' for Active; 'I' for Inactive)
REMARK    1  A    between atoms: C2_2  and  C3_3
REMARK    2  A    between atoms: C3_3  and  O1_4
REMARK    3  A    between atoms: C7_9  and  O2_10
REMARK    4  A    between atoms: C11_15  and  O3_16
REMARK    5  A    between atoms: O3_16  and  C12_17
REMARK    6  A    between atoms: C16_22  and  C17_23
REMARK    7  A    between atoms: C17_23  and  C18_24
ROOT
HETATM    1  C3  UNL     1     -32.674  -7.755 -28.359  1.00  0.00     0.095 C
HETATM    2  C4  UNL     1     -34.018  -7.731 -27.735  1.00  0.00     0.085 C
HETATM    3  C5  UNL     1     -34.231  -6.567 -26.819  1.00  0.00    -0.051 C
HETATM    4  C6  UNL     1     -35.115  -5.612 -27.016  1.00  0.00     0.017 C
HETATM    5  C7  UNL     1     -33.358  -6.547 -25.615  1.00  0.00     0.152 C
HETATM    6  C8  UNL     1     -32.038  -7.112 -25.993  1.00  0.00     0.037 C
HETATM    7  C9  UNL     1     -31.660  -8.431 -25.490  1.00  0.00     0.001 C
HETATM    8  C10 UNL     1     -30.363  -8.691 -26.279  1.00  0.00     0.039 C
HETATM    9  C11 UNL     1     -30.344  -7.736 -27.436  1.00  0.00     0.144 C
HETATM   10  C14 UNL     1     -31.705  -7.065 -27.472  1.00  0.00     0.025 C
HETATM   11  C15 UNL     1     -31.414  -5.614 -27.888  1.00  0.00     0.022 C
HETATM   12  C16 UNL     1     -32.527  -9.582 -25.566  1.00  0.00     0.007 C
HETATM   13  C22 UNL     1     -33.942  -9.498 -25.861  1.00  0.00     0.019 A
HETATM   14  C23 UNL     1     -34.966 -10.417 -25.129  1.00  0.00     0.048 A
HETATM   15  C24 UNL     1     -34.550 -10.815 -26.451  1.00  0.00     0.134 A
HETATM   16  O5  UNL     1     -34.624 -10.123 -27.628  1.00  0.00    -0.378 OA
HETATM   17  C25 UNL     1     -34.539  -8.894 -27.013  1.00  0.00     0.145 C
ENDROOT
BRANCH  12  18
HETATM   18  C17 UNL     1     -32.375 -10.372 -24.236  1.00  0.00     0.033 C
BRANCH  18  19
HETATM   19  C18 UNL     1     -31.581 -11.580 -24.363  1.00  0.00    -0.024 C
HETATM   20  C19 UNL     1     -30.349 -11.695 -23.876  1.00  0.00    -0.091 C
HETATM   21  C20 UNL     1     -29.566 -12.973 -24.032  1.00  0.00     0.042 C
HETATM   22  C21 UNL     1     -29.643 -10.596 -23.164  1.00  0.00     0.042 C
ENDBRANCH  18  19
ENDBRANCH  12  18
BRANCH   5  23
HETATM   23  O2  UNL     1     -33.290  -5.194 -25.223  1.00  0.00    -0.391 OA
ATOM     24  H2  UNL     1     -32.378  -4.948 -25.321  1.00  0.00     0.210 HD
ENDBRANCH   5  23
BRANCH   9  25
HETATM   25  O3  UNL     1     -30.001  -8.353 -28.653  1.00  0.00    -0.315 OA
BRANCH  25  26
HETATM   26  C12 UNL     1     -28.724  -8.216 -29.176  1.00  0.00     0.255 C
HETATM   27  C13 UNL     1     -27.894  -6.993 -28.925  1.00  0.00     0.126 C
HETATM   28  O4  UNL     1     -28.255  -9.133 -29.875  1.00  0.00    -0.266 OA
ENDBRANCH  25  26
ENDBRANCH   9  25
BRANCH   1  29
HETATM   29  C2  UNL     1     -32.679  -6.999 -29.654  1.00  0.00     0.002 C
HETATM   30  C1  UNL     1     -32.739  -7.655 -30.831  1.00  0.00     0.010 C
ENDBRANCH   1  29
BRANCH   1  31
HETATM   31  O1  UNL     1     -32.275  -9.034 -28.752  1.00  0.00    -0.384 OA
ATOM     32  H1  UNL     1     -31.337  -8.933 -28.868  1.00  0.00     0.211 HD
ENDBRANCH   1  31
TORSDOF 7
ENDMDL