MODEL 1
REMARK VINA RESULT: -7.947463363      0.000      0.000
REMARK  5 active torsions:
REMARK  status: ('A' for Active; 'I' for Inactive)
REMARK    1  A    between atoms: C2_2  and  C3_3
REMARK    2  A    between atoms: C3_3  and  O1_4
REMARK    3  A    between atoms: C3_3  and  C4_6
REMARK    4  A    between atoms: C5_7  and  C6_8
REMARK    5  A    between atoms: C18_21  and  O3_22
ROOT
HETATM    1  C6  UNL     1     -33.345 -10.168 -25.623  1.00  0.00     0.181 C
HETATM    2  C7  UNL     1     -34.015 -10.772 -26.863  1.00  0.00     0.084 C
HETATM    3  O2  UNL     1     -34.033  -8.911 -25.471  1.00  0.00    -0.341 OA
HETATM    4  C8  UNL     1     -33.335  -8.050 -26.279  1.00  0.00     0.174 C
HETATM    5  C9  UNL     1     -33.947  -6.950 -26.977  1.00  0.00    -0.043 A
HETATM    6  C10 UNL     1     -33.905  -6.884 -28.424  1.00  0.00    -0.063 A
HETATM    7  C11 UNL     1     -34.561  -5.850 -27.651  1.00  0.00     0.072 A
HETATM    8  C12 UNL     1     -33.289  -7.845 -29.292  1.00  0.00     0.033 C
HETATM    9  C13 UNL     1     -33.529  -7.292 -30.737  1.00  0.00     0.019 C
HETATM   10  C14 UNL     1     -31.894  -8.289 -29.175  1.00  0.00    -0.022 C
HETATM   11  C15 UNL     1     -30.978  -7.741 -28.181  1.00  0.00    -0.022 C
HETATM   12  C16 UNL     1     -30.459  -8.416 -27.006  1.00  0.00     0.046 C
HETATM   13  C17 UNL     1     -29.463  -7.356 -26.487  1.00  0.00     0.043 C
HETATM   14  C18 UNL     1     -30.208  -6.109 -26.129  1.00  0.00     0.120 C
HETATM   15  C19 UNL     1     -31.580  -6.318 -25.607  1.00  0.00     0.055 C
HETATM   16  C20 UNL     1     -32.110  -7.687 -25.479  1.00  0.00     0.085 C
HETATM   17  C21 UNL     1     -32.252  -7.812 -24.009  1.00  0.00     0.141 C
HETATM   18  O4  UNL     1     -33.217  -7.597 -23.301  1.00  0.00    -0.297 OA
HETATM   19  C22 UNL     1     -30.930  -8.275 -23.514  1.00  0.00     0.082 C
HETATM   20  C23 UNL     1     -30.460  -9.178 -24.618  1.00  0.00     0.047 C
HETATM   21  C24 UNL     1     -31.272  -8.867 -25.836  1.00  0.00     0.089 C
HETATM   22  O5  UNL     1     -32.055  -9.970 -26.032  1.00  0.00    -0.339 OA
ENDROOT
BRANCH   1  23
HETATM   23  C5  UNL     1     -33.594 -11.020 -24.464  1.00  0.00     0.039 C
HETATM   24  C4  UNL     1     -32.733 -12.003 -23.864  1.00  0.00     0.006 C
BRANCH  24  25
HETATM   25  C3  UNL     1     -32.236 -13.250 -24.452  1.00  0.00     0.140 C
BRANCH  25  26
HETATM   26  C2  UNL     1     -30.775 -13.437 -24.651  1.00  0.00     0.031 C
HETATM   27  C1  UNL     1     -30.398 -14.859 -25.026  1.00  0.00     0.008 C
ENDBRANCH  25  26
BRANCH  25  28
HETATM   28  O1  UNL     1     -32.779 -14.438 -23.901  1.00  0.00    -0.392 OA
ATOM     29  H1  UNL     1     -32.288 -14.667 -23.120  1.00  0.00     0.210 HD
ENDBRANCH  25  28
ENDBRANCH  24  25
ENDBRANCH   1  23
BRANCH  14  30
HETATM   30  O3  UNL     1     -29.358  -5.437 -25.204  1.00  0.00    -0.396 OA
ATOM     31  H3  UNL     1     -29.187  -4.593 -25.606  1.00  0.00     0.210 HD
ENDBRANCH  14  30
TORSDOF 5
ENDMDL