MODEL 1
REMARK VINA RESULT: -7.283362586      0.000      0.000
REMARK  7 active torsions:
REMARK  status: ('A' for Active; 'I' for Inactive)
REMARK    1  A    between atoms: O1_2  and  C2_3
REMARK    2  A    between atoms: C2_3  and  C3_5
REMARK    3  A    between atoms: C5_7  and  O3_8
REMARK    4  A    between atoms: C9_13  and  C10_14
REMARK    5  A    between atoms: C10_14  and  C12_16
REMARK    6  A    between atoms: C12_16  and  N1_17
REMARK    7  A    between atoms: C19_24  and  O4_25
ROOT
HETATM    1  C3  UNL     1     -32.584 -12.622 -23.774  1.00  0.00     0.074 C
HETATM    2  C4  UNL     1     -33.242 -13.171 -22.495  1.00  0.00     0.029 C
HETATM    3  C5  UNL     1     -31.566 -11.621 -23.292  1.00  0.00     0.137 C
HETATM    4  C6  UNL     1     -31.812 -10.334 -24.053  1.00  0.00     0.042 C
HETATM    5  C7  UNL     1     -32.792 -10.610 -25.152  1.00  0.00    -0.032 C
HETATM    6  C8  UNL     1     -31.993 -11.048 -26.347  1.00  0.00     0.016 C
HETATM    7  C9  UNL     1     -33.797  -9.562 -25.421  1.00  0.00     0.003 C
HETATM    8  C20 UNL     1     -35.050 -10.047 -26.116  1.00  0.00    -0.013 C
HETATM    9  C21 UNL     1     -34.884 -10.315 -27.583  1.00  0.00     0.010 C
HETATM   10  C22 UNL     1     -35.609 -11.318 -25.520  1.00  0.00     0.005 C
HETATM   11  C23 UNL     1     -34.528 -12.383 -25.375  1.00  0.00     0.007 C
HETATM   12  C24 UNL     1     -33.535 -11.772 -24.478  1.00  0.00     0.014 C
ENDROOT
BRANCH   7  13
HETATM   13  C10 UNL     1     -33.332  -8.307 -26.081  1.00  0.00     0.015 C
HETATM   14  C11 UNL     1     -34.256  -7.126 -25.807  1.00  0.00     0.012 C
BRANCH  13  15
HETATM   15  C12 UNL     1     -32.001  -7.778 -25.666  1.00  0.00     0.280 C
BRANCH  15  16
HETATM   16  N1  UNL     1     -31.385  -7.175 -26.835  1.00  0.00     0.118 N
HETATM   17  C13 UNL     1     -31.704  -7.930 -28.006  1.00  0.00     0.277 C
HETATM   18  C14 UNL     1     -30.362  -8.392 -28.591  1.00  0.00     0.044 C
HETATM   19  C15 UNL     1     -29.440  -7.338 -28.033  1.00  0.00     0.016 C
HETATM   20  C16 UNL     1     -29.322  -6.104 -28.899  1.00  0.00     0.014 C
HETATM   21  C18 UNL     1     -27.967  -7.590 -28.168  1.00  0.00     0.014 C
HETATM   22  C19 UNL     1     -29.969  -7.142 -26.647  1.00  0.00     0.365 C
HETATM   23  C17 UNL     1     -27.968  -6.651 -29.363  1.00  0.00     0.002 C
BRANCH  22  24
HETATM   24  O4  UNL     1     -29.584  -8.210 -25.858  1.00  0.00    -0.367 OA
ATOM     25  H4  UNL     1     -29.148  -8.860 -26.395  1.00  0.00     0.212 HD
ENDBRANCH  22  24
ENDBRANCH  15  16
ENDBRANCH  13  15
ENDBRANCH   7  13
BRANCH   3  26
HETATM   26  O3  UNL     1     -30.283 -12.126 -23.437  1.00  0.00    -0.394 OA
ATOM     27  H3  UNL     1     -29.703 -11.463 -23.793  1.00  0.00     0.210 HD
ENDBRANCH   3  26
BRANCH   1  28
HETATM   28  C2  UNL     1     -32.015 -13.779 -24.439  1.00  0.00     0.269 C
HETATM   29  O2  UNL     1     -32.576 -14.894 -24.422  1.00  0.00    -0.264 OA
BRANCH  28  30
HETATM   30  O1  UNL     1     -30.806 -13.744 -25.150  1.00  0.00    -0.326 OA
HETATM   31  C1  UNL     1     -30.068 -14.918 -25.415  1.00  0.00     0.213 C
ENDBRANCH  28  30
ENDBRANCH   1  28
TORSDOF 7
ENDMDL