MODEL 5
REMARK VINA RESULT: -6.830032676      2.642      4.342
REMARK  5 active torsions:
REMARK  status: ('A' for Active; 'I' for Inactive)
REMARK    1  A    between atoms: C5_5  and  N1_6
REMARK       I    between atoms: N1_6  and  C6_8
REMARK    2  A    between atoms: C6_8  and  C7_10
REMARK    3  A    between atoms: C15_18  and  O2_19
REMARK    4  A    between atoms: O2_19  and  C16_20
REMARK    5  A    between atoms: C16_20  and  C17_22
ROOT
HETATM    1  C7  UNL     1     -31.235  -7.218 -23.658  1.00  0.00     0.065 C
HETATM    2  C8  UNL     1     -32.334  -6.780 -22.673  1.00  0.00     0.028 C
HETATM    3  C9  UNL     1     -29.955  -7.161 -22.881  1.00  0.00     0.021 C
HETATM    4  C10 UNL     1     -29.474  -5.752 -22.883  1.00  0.00     0.002 C
HETATM    5  C11 UNL     1     -29.020  -5.481 -24.296  1.00  0.00     0.011 C
HETATM    6  C12 UNL     1     -30.069  -5.677 -25.324  1.00  0.00    -0.020 C
HETATM    7  C13 UNL     1     -29.381  -6.221 -26.562  1.00  0.00     0.017 C
HETATM    8  C14 UNL     1     -30.551  -4.268 -25.719  1.00  0.00     0.017 C
HETATM    9  C15 UNL     1     -31.267  -6.478 -24.939  1.00  0.00     0.157 C
ENDROOT
BRANCH   1  10
HETATM   10  C6  UNL     1     -31.505  -8.692 -23.834  1.00  0.00     0.230 C
HETATM   11  N1  UNL     1     -32.543  -9.147 -24.682  1.00  0.00    -0.333 N
ATOM     12  H1  UNL     1     -33.127  -8.482 -25.190  1.00  0.00     0.165 HD
HETATM   13  O1  UNL     1     -30.764  -9.469 -23.190  1.00  0.00    -0.273 OA
BRANCH  11  14
HETATM   14  C5  UNL     1     -32.763 -10.575 -24.817  1.00  0.00     0.234 C
HETATM   15  C4  UNL     1     -33.837 -10.975 -23.829  1.00  0.00     0.084 C
HETATM   16  C2  UNL     1     -34.592 -12.206 -24.286  1.00  0.00     0.029 C
HETATM   17  C1  UNL     1     -33.674 -13.380 -24.559  1.00  0.00     0.038 C
HETATM   18  C3  UNL     1     -35.603 -12.540 -23.209  1.00  0.00     0.038 C
HETATM   19  N2  UNL     1     -35.234 -11.865 -25.539  1.00  0.00    -0.353 N
HETATM   20  C21 UNL     1     -34.459 -11.136 -26.482  1.00  0.00     0.212 C
ATOM     21  H2  UNL     1     -36.197 -12.135 -25.736  1.00  0.00     0.163 HD
HETATM   22  O4  UNL     1     -33.114 -10.893 -26.152  1.00  0.00    -0.301 OA
HETATM   23  S1  UNL     1     -35.157 -10.640 -27.848  1.00  0.00    -0.033 SA
ENDBRANCH  11  14
ENDBRANCH   1  10
BRANCH   9  24
HETATM   24  O2  UNL     1     -32.442  -5.647 -24.859  1.00  0.00    -0.313 OA
BRANCH  24  25
HETATM   25  C16 UNL     1     -33.593  -5.849 -25.568  1.00  0.00     0.267 C
HETATM   26  O3  UNL     1     -34.449  -6.620 -25.064  1.00  0.00    -0.264 OA
BRANCH  25  27
HETATM   27  C17 UNL     1     -33.899  -5.228 -26.877  1.00  0.00     0.044 A
HETATM   28  C18 UNL     1     -34.684  -3.935 -26.786  1.00  0.00     0.026 C
HETATM   29  C19 UNL     1     -33.000  -5.417 -28.038  1.00  0.00     0.020 A
HETATM   30  C20 UNL     1     -34.334  -6.132 -28.009  1.00  0.00     0.020 A
ENDBRANCH  25  27
ENDBRANCH  24  25
ENDBRANCH   9  24
TORSDOF 5
ENDMDL