MODEL 3
REMARK VINA RESULT: -7.142048987      0.919      1.313
REMARK  6 active torsions:
REMARK  status: ('A' for Active; 'I' for Inactive)
REMARK    1  A    between atoms: C2_2  and  O2_4
REMARK    2  A    between atoms: O2_4  and  C3_5
REMARK    3  A    between atoms: C3_5  and  C6_8
REMARK    4  A    between atoms: C7_9  and  C8_10
REMARK    5  A    between atoms: C10_12  and  O3_13
REMARK    6  A    between atoms: C15_19  and  O4_20
ROOT
HETATM    1  C8  UNL     1     -32.508  -8.491 -26.904  1.00  0.00     0.034 C
HETATM    2  C9  UNL     1     -31.708  -8.382 -28.189  1.00  0.00     0.025 C
HETATM    3  C10 UNL     1     -33.753  -9.242 -27.192  1.00  0.00     0.164 C
HETATM    4  C11 UNL     1     -34.067 -10.333 -26.303  1.00  0.00    -0.019 C
HETATM    5  C12 UNL     1     -34.302 -11.596 -26.556  1.00  0.00    -0.013 C
HETATM    6  C13 UNL     1     -34.584 -12.355 -25.286  1.00  0.00     0.020 C
HETATM    7  C14 UNL     1     -35.303 -11.183 -24.586  1.00  0.00     0.052 C
HETATM    8  C15 UNL     1     -34.102 -10.272 -24.804  1.00  0.00     0.090 C
HETATM    9  C16 UNL     1     -32.850 -11.103 -24.568  1.00  0.00     0.061 C
HETATM   10  C17 UNL     1     -31.909 -10.314 -23.841  1.00  0.00     0.281 C
HETATM   11  N1  UNL     1     -31.846  -9.027 -24.526  1.00  0.00     0.094 N
HETATM   12  C18 UNL     1     -30.923  -8.233 -23.742  1.00  0.00     0.273 C
HETATM   13  C19 UNL     1     -29.680  -8.278 -24.641  1.00  0.00     0.032 C
HETATM   14  C20 UNL     1     -30.363  -7.982 -25.960  1.00  0.00     0.038 C
HETATM   15  C21 UNL     1     -31.564  -8.966 -25.869  1.00  0.00     0.237 C
HETATM   16  C22 UNL     1     -33.415 -12.409 -24.314  1.00  0.00    -0.032 C
HETATM   17  C23 UNL     1     -32.566 -13.587 -24.739  1.00  0.00     0.016 C
HETATM   18  C24 UNL     1     -33.866 -12.678 -22.908  1.00  0.00     0.016 C
ENDROOT
BRANCH   1  19
HETATM   19  C7  UNL     1     -32.911  -7.094 -26.599  1.00  0.00    -0.013 C
HETATM   20  C6  UNL     1     -32.465  -6.062 -27.301  1.00  0.00     0.007 C
BRANCH  20  21
HETATM   21  C3  UNL     1     -32.862  -4.679 -26.998  1.00  0.00     0.081 C
HETATM   22  C4  UNL     1     -32.639  -3.832 -28.232  1.00  0.00     0.051 C
HETATM   23  C5  UNL     1     -34.349  -4.677 -26.719  1.00  0.00     0.051 C
BRANCH  21  24
HETATM   24  O2  UNL     1     -32.121  -4.119 -25.946  1.00  0.00    -0.307 OA
BRANCH  24  25
HETATM   25  C2  UNL     1     -32.664  -3.972 -24.664  1.00  0.00     0.255 C
HETATM   26  C1  UNL     1     -33.265  -2.688 -24.258  1.00  0.00     0.126 C
HETATM   27  O1  UNL     1     -32.609  -4.966 -23.912  1.00  0.00    -0.266 OA
ENDBRANCH  24  25
ENDBRANCH  21  24
ENDBRANCH  20  21
ENDBRANCH   1  19
BRANCH   3  28
HETATM   28  O3  UNL     1     -34.862  -8.397 -27.177  1.00  0.00    -0.390 OA
ATOM     29  H3  UNL     1     -35.655  -8.869 -27.405  1.00  0.00     0.210 HD
ENDBRANCH   3  28
BRANCH   8  30
HETATM   30  O4  UNL     1     -34.207  -9.084 -24.228  1.00  0.00    -0.385 OA
ATOM     31  H4  UNL     1     -34.130  -9.035 -23.283  1.00  0.00     0.211 HD
ENDBRANCH   8  30
TORSDOF 6
ENDMDL