MODEL 1
REMARK VINA RESULT: -7.167086738      0.000      0.000
REMARK  7 active torsions:
REMARK  status: ('A' for Active; 'I' for Inactive)
REMARK    1  A    between atoms: C2_2  and  C4_4
REMARK    2  A    between atoms: C4_4  and  C5_5
REMARK    3  A    between atoms: C13_14  and  O2_15
REMARK    4  A    between atoms: O2_15  and  C14_16
REMARK    5  A    between atoms: C16_19  and  O4_20
REMARK    6  A    between atoms: C17_22  and  O5_23
REMARK    7  A    between atoms: C21_28  and  C22_29
ROOT
HETATM    1  C5  UNL     1     -32.238  -4.928 -27.879  1.00  0.00     0.198 C
HETATM    2  O1  UNL     1     -31.255  -5.113 -26.844  1.00  0.00    -0.358 OA
HETATM    3  C6  UNL     1     -30.360  -6.265 -27.023  1.00  0.00     0.091 C
HETATM    4  C7  UNL     1     -29.483  -6.215 -25.753  1.00  0.00     0.044 C
HETATM    5  C8  UNL     1     -29.688  -7.729 -25.689  1.00  0.00     0.012 C
HETATM    6  C9  UNL     1     -30.999  -7.340 -26.337  1.00  0.00     0.036 C
HETATM    7  C10 UNL     1     -31.887  -8.366 -26.854  1.00  0.00    -0.001 C
HETATM    8  C11 UNL     1     -31.324  -9.511 -27.584  1.00  0.00     0.019 C
HETATM    9  C12 UNL     1     -32.632  -9.039 -25.672  1.00  0.00     0.048 C
HETATM   10  C13 UNL     1     -33.772  -9.745 -26.363  1.00  0.00     0.164 C
HETATM   11  C16 UNL     1     -34.132  -8.814 -27.475  1.00  0.00     0.182 C
HETATM   12  C17 UNL     1     -33.101  -7.703 -27.453  1.00  0.00     0.094 C
HETATM   13  C18 UNL     1     -32.948  -7.161 -28.803  1.00  0.00     0.049 C
HETATM   14  C19 UNL     1     -32.167  -5.902 -28.958  1.00  0.00     0.033 C
HETATM   15  C20 UNL     1     -30.783  -6.256 -29.389  1.00  0.00     0.045 C
HETATM   16  C21 UNL     1     -29.741  -6.029 -28.257  1.00  0.00    -0.043 C
ENDROOT
BRANCH   1  17
HETATM   17  C4  UNL     1     -32.988  -3.951 -27.674  1.00  0.00    -0.118 C
BRANCH  17  18
HETATM   18  C2  UNL     1     -33.826  -2.861 -27.446  1.00  0.00    -0.028 C
HETATM   19  C1  UNL     1     -34.803  -3.021 -26.519  1.00  0.00     0.027 C
HETATM   20  C3  UNL     1     -33.796  -1.539 -28.077  1.00  0.00     0.056 C
ENDBRANCH  17  18
ENDBRANCH   1  17
BRANCH  16  21
HETATM   21  C22 UNL     1     -28.487  -6.425 -28.868  1.00  0.00    -0.082 C
HETATM   22  C23 UNL     1     -27.909  -5.731 -30.039  1.00  0.00     0.043 C
HETATM   23  C24 UNL     1     -28.274  -7.919 -29.069  1.00  0.00     0.043 C
ENDBRANCH  16  21
BRANCH  12  24
HETATM   24  O5  UNL     1     -33.598  -6.782 -26.522  1.00  0.00    -0.386 OA
ATOM     25  H5  UNL     1     -34.524  -6.954 -26.400  1.00  0.00     0.210 HD
ENDBRANCH  12  24
BRANCH  11  26
HETATM   26  O4  UNL     1     -34.236  -9.394 -28.722  1.00  0.00    -0.390 OA
ATOM     27  H4  UNL     1     -34.567 -10.285 -28.731  1.00  0.00     0.210 HD
ENDBRANCH  11  26
BRANCH  10  28
HETATM   28  O2  UNL     1     -34.808  -9.885 -25.397  1.00  0.00    -0.314 OA
BRANCH  28  29
HETATM   29  C14 UNL     1     -35.408 -11.101 -25.257  1.00  0.00     0.255 C
HETATM   30  C15 UNL     1     -35.772 -11.740 -23.970  1.00  0.00     0.126 C
HETATM   31  O3  UNL     1     -35.683 -11.751 -26.298  1.00  0.00    -0.266 OA
ENDBRANCH  28  29
ENDBRANCH  10  28
TORSDOF 7
ENDMDL