MODEL 3
REMARK VINA RESULT: -7.579562198      2.172      3.939
REMARK  4 active torsions:
REMARK  status: ('A' for Active; 'I' for Inactive)
REMARK    1  A    between atoms: C2_2  and  C3_3
REMARK       I    between atoms: C3_3  and  N1_5
REMARK    2  A    between atoms: N1_5  and  C4_7
REMARK    3  A    between atoms: C10_15  and  C11_16
REMARK    4  A    between atoms: C11_16  and  O4_17
ROOT
HETATM    1  C4  UNL     1       6.033  17.768 -45.493  1.00  0.00     0.126 C
HETATM    2  C5  UNL     1       7.254  18.539 -45.904  1.00  0.00     0.191 C
HETATM    3  O2  UNL     1       7.868  19.262 -44.965  1.00  0.00    -0.232 OA
HETATM    4  O3  UNL     1       7.315  20.085 -44.230  1.00  0.00    -0.233 OA
HETATM    5  C6  UNL     1       6.100  20.611 -44.390  1.00  0.00     0.181 C
HETATM    6  C7  UNL     1       5.393  20.248 -43.064  1.00  0.00     0.005 C
HETATM    7  C8  UNL     1       6.300  20.438 -41.896  1.00  0.00     0.022 C
HETATM    8  C9  UNL     1       4.130  20.955 -42.919  1.00  0.00    -0.010 C
HETATM    9  C10 UNL     1       3.403  21.217 -43.978  1.00  0.00    -0.059 C
HETATM   10  C12 UNL     1       3.856  20.801 -45.305  1.00  0.00     0.049 C
HETATM   11  C13 UNL     1       5.147  20.019 -45.341  1.00  0.00     0.004 C
HETATM   12  C14 UNL     1       5.550  20.022 -46.787  1.00  0.00     0.025 C
HETATM   13  C15 UNL     1       6.893  19.459 -47.063  1.00  0.00    -0.016 C
HETATM   14  C16 UNL     1       6.950  18.678 -48.356  1.00  0.00     0.018 C
HETATM   15  C17 UNL     1       7.888  20.585 -47.174  1.00  0.00     0.018 C
HETATM   16  C18 UNL     1       4.993  18.615 -44.816  1.00  0.00    -0.009 C
HETATM   17  C19 UNL     1       3.632  18.031 -45.096  1.00  0.00     0.018 C
HETATM   18  C20 UNL     1       5.154  18.755 -43.341  1.00  0.00     0.028 C
ENDROOT
BRANCH   1  19
HETATM   19  N1  UNL     1       6.374  16.564 -44.793  1.00  0.00    -0.353 N
HETATM   20  C3  UNL     1       5.989  15.272 -45.219  1.00  0.00     0.217 C
HETATM   21  O1  UNL     1       5.309  15.150 -46.265  1.00  0.00    -0.274 OA
ATOM     22  H1  UNL     1       6.926  16.645 -43.939  1.00  0.00     0.163 HD
BRANCH  20  23
HETATM   23  C2  UNL     1       6.386  14.093 -44.437  1.00  0.00     0.098 C
HETATM   24  C1  UNL     1       5.816  14.219 -43.049  1.00  0.00     0.014 C
ENDBRANCH  20  23
ENDBRANCH   1  19
BRANCH   9  25
HETATM   25  C11 UNL     1       2.104  21.941 -43.849  1.00  0.00     0.198 C
BRANCH  25  26
HETATM   26  O4  UNL     1       1.736  21.921 -42.484  1.00  0.00    -0.397 OA
ATOM     27  H4  UNL     1       2.302  22.531 -42.025  1.00  0.00     0.209 HD
ENDBRANCH  25  26
ENDBRANCH   9  25
TORSDOF 4
ENDMDL