MODEL 3
REMARK VINA RESULT: -6.748286036      1.593      3.991
REMARK  5 active torsions:
REMARK  status: ('A' for Active; 'I' for Inactive)
REMARK    1  A    between atoms: C2_2  and  C4_4
REMARK    2  A    between atoms: C11_11  and  O1_12
REMARK    3  A    between atoms: C14_16  and  C15_17
REMARK    4  A    between atoms: C15_17  and  O2_18
REMARK    5  A    between atoms: C16_21  and  C17_22
ROOT
HETATM    1  C4  UNL     1       4.790  15.606 -43.795  1.00  0.00     0.019 C
HETATM    2  C5  UNL     1       5.934  14.565 -43.810  1.00  0.00     0.010 C
HETATM    3  C6  UNL     1       6.113  14.060 -45.189  1.00  0.00     0.006 C
HETATM    4  C7  UNL     1       6.717  15.180 -46.008  1.00  0.00    -0.008 C
HETATM    5  C8  UNL     1       8.221  14.983 -45.897  1.00  0.00     0.011 C
HETATM    6  C9  UNL     1       6.242  16.546 -45.646  1.00  0.00    -0.009 C
HETATM    7  C10 UNL     1       7.343  17.359 -45.068  1.00  0.00     0.018 C
HETATM    8  C11 UNL     1       5.918  17.230 -46.996  1.00  0.00     0.127 C
HETATM    9  C12 UNL     1       5.449  18.616 -46.833  1.00  0.00     0.041 C
HETATM   10  C13 UNL     1       4.456  18.875 -45.739  1.00  0.00     0.032 C
HETATM   11  C14 UNL     1       4.453  20.332 -45.452  1.00  0.00     0.157 C
HETATM   12  O3  UNL     1       4.672  20.719 -44.124  1.00  0.00    -0.341 OA
HETATM   13  C16 UNL     1       5.350  19.882 -43.252  1.00  0.00     0.104 C
HETATM   14  C18 UNL     1       5.313  18.574 -43.417  1.00  0.00     0.023 C
HETATM   15  C19 UNL     1       4.546  17.985 -44.536  1.00  0.00    -0.012 C
HETATM   16  C20 UNL     1       3.109  17.988 -43.955  1.00  0.00     0.020 C
HETATM   17  C21 UNL     1       4.929  16.578 -44.894  1.00  0.00     0.017 C
ENDROOT
BRANCH   1  18
HETATM   18  C2  UNL     1       3.587  14.753 -43.749  1.00  0.00    -0.088 C
HETATM   19  C1  UNL     1       2.639  14.694 -42.856  1.00  0.00     0.014 C
HETATM   20  C3  UNL     1       3.411  13.782 -44.913  1.00  0.00     0.043 C
ENDBRANCH   1  18
BRANCH   8  21
HETATM   21  O1  UNL     1       4.948  16.491 -47.678  1.00  0.00    -0.395 OA
ATOM     22  H1  UNL     1       4.638  15.782 -47.126  1.00  0.00     0.210 HD
ENDBRANCH   8  21
BRANCH  11  23
HETATM   23  C15 UNL     1       3.143  21.012 -45.884  1.00  0.00     0.197 C
BRANCH  23  24
HETATM   24  O2  UNL     1       2.447  21.472 -44.769  1.00  0.00    -0.398 OA
ATOM     25  H2  UNL     1       1.514  21.484 -44.945  1.00  0.00     0.209 HD
ENDBRANCH  23  24
ENDBRANCH  11  23
BRANCH  13  26
HETATM   26  C17 UNL     1       6.098  20.476 -42.157  1.00  0.00     0.294 C
HETATM   27  O4  UNL     1       6.832  21.475 -42.339  1.00  0.00    -0.299 OA
ENDBRANCH  13  26
TORSDOF 5
ENDMDL