MODEL 5
REMARK VINA RESULT: -8.025043674      2.293      3.514
REMARK  3 active torsions:
REMARK  status: ('A' for Active; 'I' for Inactive)
REMARK    1  A    between atoms: C2_2  and  N1_3
REMARK    2  A    between atoms: C2_2  and  C3_7
REMARK    3  A    between atoms: C19_24  and  C20_25
ROOT
HETATM    1  C3  UNL     1       6.191  17.528 -45.402  1.00  0.00    -0.046 C
HETATM    2  C4  UNL     1       7.582  16.866 -45.315  1.00  0.00     0.037 C
HETATM    3  C5  UNL     1       8.124  16.884 -46.722  1.00  0.00     0.011 C
HETATM    4  C6  UNL     1       7.598  18.043 -47.528  1.00  0.00     0.007 C
HETATM    5  C7  UNL     1       8.560  18.250 -48.681  1.00  0.00    -0.043 C
HETATM    6  C8  UNL     1       7.818  18.736 -49.933  1.00  0.00     0.015 C
HETATM    7  C9  UNL     1       9.143  16.888 -49.098  1.00  0.00     0.015 C
HETATM    8  C10 UNL     1       9.708  19.146 -48.372  1.00  0.00     0.009 C
HETATM    9  C11 UNL     1       9.881  19.457 -46.923  1.00  0.00     0.002 C
HETATM   10  C12 UNL     1       8.647  19.753 -46.143  1.00  0.00     0.015 C
HETATM   11  C13 UNL     1       7.363  19.250 -46.690  1.00  0.00    -0.005 C
HETATM   12  C14 UNL     1       6.798  20.399 -47.536  1.00  0.00     0.093 C
HETATM   13  C15 UNL     1       6.184  21.439 -46.681  1.00  0.00     0.137 C
HETATM   14  O1  UNL     1       6.175  22.598 -47.124  1.00  0.00    -0.297 OA
HETATM   15  C16 UNL     1       5.574  21.271 -45.353  1.00  0.00     0.030 C
HETATM   16  C17 UNL     1       4.116  21.091 -45.549  1.00  0.00     0.024 C
HETATM   17  C18 UNL     1       5.802  22.496 -44.503  1.00  0.00     0.024 C
HETATM   18  C19 UNL     1       6.280  20.049 -44.715  1.00  0.00     0.132 C
HETATM   19  C21 UNL     1       6.253  18.958 -45.660  1.00  0.00    -0.051 C
ENDROOT
BRANCH   1  20
HETATM   20  C2  UNL     1       5.250  16.889 -44.473  1.00  0.00     0.208 C
HETATM   21  C1  UNL     1       3.806  16.926 -44.799  1.00  0.00     0.044 C
BRANCH  20  22
HETATM   22  N1  UNL     1       5.560  15.426 -44.528  1.00  0.00    -0.072 N
ATOM     23  H13 UNL     1       4.744  14.817 -44.585  1.00  0.00     0.275 HD
ATOM     24  H12 UNL     1       5.982  15.110 -45.401  1.00  0.00     0.275 HD
ATOM     25  H11 UNL     1       6.138  15.289 -43.699  1.00  0.00     0.275 HD
ENDBRANCH  20  22
ENDBRANCH   1  20
BRANCH  18  26
HETATM   26  C20 UNL     1       5.918  19.959 -43.321  1.00  0.00     0.182 C
HETATM   27  O2  UNL     1       6.780  20.112 -42.415  1.00  0.00    -0.647 OA
HETATM   28  O3  UNL     1       4.638  19.707 -42.841  1.00  0.00    -0.647 OA
ENDBRANCH  18  26
TORSDOF 3
ENDMDL