MODEL 3
REMARK VINA RESULT: -7.751985120      3.204      4.995
REMARK  8 active torsions:
REMARK  status: ('A' for Active; 'I' for Inactive)
REMARK    1  A    between atoms: O1_2  and  C2_3
REMARK    2  A    between atoms: C2_3  and  C3_5
REMARK    3  A    between atoms: C3_5  and  C4_6
REMARK    4  A    between atoms: C4_6  and  O3_7
REMARK    5  A    between atoms: C4_6  and  C5_9
REMARK    6  A    between atoms: C7_11  and  C8_12
REMARK    7  A    between atoms: C9_13  and  C10_14
REMARK    8  A    between atoms: C10_14  and  O4_15
ROOT
HETATM    1  C10 UNL     1       5.127  19.753 -44.846  1.00  0.00     0.128 C
HETATM    2  C11 UNL     1       4.713  19.767 -46.279  1.00  0.00     0.053 C
HETATM    3  C12 UNL     1       5.507  20.766 -47.152  1.00  0.00     0.013 C
HETATM    4  C13 UNL     1       6.885  20.498 -46.737  1.00  0.00    -0.039 C
HETATM    5  C14 UNL     1       8.151  20.669 -47.409  1.00  0.00     0.014 C
HETATM    6  C15 UNL     1       8.526  19.294 -46.839  1.00  0.00    -0.013 C
HETATM    7  C16 UNL     1       8.773  19.198 -45.398  1.00  0.00     0.005 C
HETATM    8  C17 UNL     1       7.534  18.855 -44.526  1.00  0.00     0.013 C
HETATM    9  C18 UNL     1       6.524  19.913 -44.460  1.00  0.00    -0.001 C
HETATM   10  C19 UNL     1       6.550  20.585 -43.061  1.00  0.00     0.019 C
HETATM   11  C20 UNL     1       7.047  21.024 -45.376  1.00  0.00     0.022 C
HETATM   12  C21 UNL     1       7.066  19.043 -47.028  1.00  0.00     0.014 C
ENDROOT
BRANCH   1  13
HETATM   13  C9  UNL     1       4.452  18.613 -44.211  1.00  0.00    -0.067 C
HETATM   14  C8  UNL     1       3.890  17.663 -43.712  1.00  0.00    -0.098 C
BRANCH  14  15
HETATM   15  C7  UNL     1       3.207  16.482 -43.129  1.00  0.00     0.072 A
HETATM   16  C5  UNL     1       3.076  15.349 -44.035  1.00  0.00     0.032 A
HETATM   17  C6  UNL     1       4.132  15.262 -42.972  1.00  0.00     0.026 A
BRANCH  16  18
HETATM   18  C4  UNL     1       1.932  14.379 -43.867  1.00  0.00     0.132 C
BRANCH  18  19
HETATM   19  C3  UNL     1       2.059  13.127 -44.689  1.00  0.00     0.143 C
BRANCH  19  20
HETATM   20  C2  UNL     1       0.699  12.462 -44.721  1.00  0.00     0.260 C
HETATM   21  O2  UNL     1      -0.226  12.828 -43.959  1.00  0.00    -0.265 OA
BRANCH  20  22
HETATM   22  O1  UNL     1       0.480  11.420 -45.615  1.00  0.00    -0.326 OA
HETATM   23  C1  UNL     1      -0.794  11.301 -46.215  1.00  0.00     0.213 C
ENDBRANCH  20  22
ENDBRANCH  19  20
ENDBRANCH  18  19
BRANCH  18  24
HETATM   24  O3  UNL     1       1.911  13.952 -42.525  1.00  0.00    -0.395 OA
ATOM     25  H3  UNL     1       2.215  14.694 -42.015  1.00  0.00     0.210 HD
ENDBRANCH  18  24
ENDBRANCH  16  18
ENDBRANCH  14  15
ENDBRANCH   1  13
BRANCH   1  26
HETATM   26  O4  UNL     1       4.457  20.902 -44.307  1.00  0.00    -0.377 OA
ATOM     27  H4  UNL     1       5.070  21.252 -43.672  1.00  0.00     0.211 HD
ENDBRANCH   1  26
TORSDOF 8
ENDMDL