MODEL 3
REMARK VINA RESULT: -8.286357485      1.466      2.004
REMARK  6 active torsions:
REMARK  status: ('A' for Active; 'I' for Inactive)
REMARK    1  A    between atoms: O1_2  and  C2_3
REMARK       I    between atoms: C2_3  and  N1_5
REMARK    2  A    between atoms: N1_5  and  C3_7
REMARK    3  A    between atoms: C6_10  and  C7_11
REMARK    4  A    between atoms: C7_11  and  N2_12
REMARK    5  A    between atoms: C10_15  and  O3_16
REMARK    6  A    between atoms: C13_20  and  C14_21
ROOT
HETATM    1  N2  UNL     1       4.645  17.896 -45.276  1.00  0.00     0.096 N
HETATM    2  C8  UNL     1       3.536  18.762 -44.919  1.00  0.00     0.276 C
HETATM    3  C9  UNL     1       3.182  18.328 -43.484  1.00  0.00     0.070 C
HETATM    4  C10 UNL     1       3.759  16.946 -43.359  1.00  0.00     0.090 C
HETATM    5  C11 UNL     1       2.718  15.894 -43.029  1.00  0.00     0.040 C
HETATM    6  C12 UNL     1       2.846  14.665 -43.844  1.00  0.00     0.008 C
HETATM    7  C13 UNL     1       4.233  14.300 -44.286  1.00  0.00    -0.009 C
HETATM    8  C17 UNL     1       5.003  15.455 -44.899  1.00  0.00     0.044 C
HETATM    9  C18 UNL     1       4.177  16.660 -44.782  1.00  0.00     0.257 C
ENDROOT
BRANCH   1  10
HETATM   10  C7  UNL     1       5.848  18.417 -44.746  1.00  0.00     0.277 C
BRANCH  10  11
HETATM   11  C6  UNL     1       6.800  18.815 -45.850  1.00  0.00     0.014 C
HETATM   12  C5  UNL     1       6.566  18.055 -47.131  1.00  0.00     0.008 C
HETATM   13  C4  UNL     1       7.803  18.139 -47.974  1.00  0.00     0.026 C
HETATM   14  C3  UNL     1       8.654  19.358 -47.696  1.00  0.00     0.086 C
HETATM   15  C20 UNL     1       9.137  19.393 -46.265  1.00  0.00     0.026 C
HETATM   16  C19 UNL     1       8.249  18.503 -45.450  1.00  0.00     0.008 C
BRANCH  14  17
HETATM   17  N1  UNL     1       9.822  19.247 -48.533  1.00  0.00    -0.332 N
HETATM   18  C2  UNL     1       9.889  19.906 -49.789  1.00  0.00     0.360 C
HETATM   19  O2  UNL     1       8.919  20.596 -50.182  1.00  0.00    -0.239 OA
ATOM     20  H1  UNL     1      10.614  18.687 -48.217  1.00  0.00     0.165 HD
BRANCH  18  21
HETATM   21  O1  UNL     1      11.002  19.810 -50.606  1.00  0.00    -0.309 OA
HETATM   22  C1  UNL     1      11.627  18.571 -50.767  1.00  0.00     0.215 C
ENDBRANCH  18  21
ENDBRANCH  14  17
ENDBRANCH  10  11
ENDBRANCH   1  10
BRANCH   4  23
HETATM   23  O3  UNL     1       4.747  16.844 -42.424  1.00  0.00    -0.388 OA
ATOM     24  H3  UNL     1       4.427  16.682 -41.544  1.00  0.00     0.210 HD
ENDBRANCH   4  23
BRANCH   7  25
HETATM   25  C14 UNL     1       4.060  13.144 -45.262  1.00  0.00    -0.019 C
HETATM   26  C15 UNL     1       4.852  13.311 -46.519  1.00  0.00     0.010 C
HETATM   27  C16 UNL     1       2.611  12.822 -45.514  1.00  0.00     0.010 C
ENDBRANCH   7  25
TORSDOF 6
ENDMDL