MODEL 3
REMARK VINA RESULT: -7.799622616      2.785      4.784
REMARK  5 active torsions:
REMARK  status: ('A' for Active; 'I' for Inactive)
REMARK    1  A    between atoms: C6_7  and  C8_9
REMARK    2  A    between atoms: C15_16  and  O2_17
REMARK    3  A    between atoms: C17_20  and  O3_21
REMARK    4  A    between atoms: C18_23  and  C19_24
REMARK    5  A    between atoms: C20_25  and  C21_26
ROOT
HETATM    1  C1  UNL     1       4.081  17.260 -42.405  1.00  0.00     0.015 C
HETATM    2  C2  UNL     1       3.391  17.558 -43.702  1.00  0.00     0.020 C
HETATM    3  C3  UNL     1       3.456  19.053 -44.027  1.00  0.00     0.087 C
HETATM    4  C4  UNL     1       3.940  19.315 -45.403  1.00  0.00     0.135 C
HETATM    5  O1  UNL     1       3.379  20.219 -46.046  1.00  0.00    -0.297 OA
HETATM    6  C5  UNL     1       5.025  18.621 -46.113  1.00  0.00     0.103 C
HETATM    7  C6  UNL     1       6.422  18.902 -45.688  1.00  0.00    -0.021 C
HETATM    8  C7  UNL     1       6.548  20.263 -45.057  1.00  0.00     0.016 C
HETATM    9  C16 UNL     1       6.248  17.742 -44.689  1.00  0.00     0.054 C
HETATM   10  C17 UNL     1       5.140  17.236 -45.478  1.00  0.00     0.093 C
HETATM   11  C18 UNL     1       3.824  16.817 -44.896  1.00  0.00    -0.041 C
ENDROOT
BRANCH   7  12
HETATM   12  C8  UNL     1       7.507  18.639 -46.672  1.00  0.00     0.024 C
HETATM   13  C9  UNL     1       7.378  19.588 -47.856  1.00  0.00     0.016 C
HETATM   14  C10 UNL     1       8.471  19.405 -48.853  1.00  0.00    -0.047 C
HETATM   15  C11 UNL     1       8.195  18.265 -49.822  1.00  0.00     0.015 C
HETATM   16  C12 UNL     1       8.513  20.674 -49.714  1.00  0.00     0.015 C
HETATM   17  C13 UNL     1       9.826  19.191 -48.266  1.00  0.00     0.011 C
HETATM   18  C14 UNL     1       9.805  19.617 -46.820  1.00  0.00     0.033 C
HETATM   19  C15 UNL     1       8.885  18.669 -46.060  1.00  0.00     0.123 C
BRANCH  19  20
HETATM   20  O2  UNL     1       8.920  19.039 -44.739  1.00  0.00    -0.395 OA
ATOM     21  H2  UNL     1       9.364  18.426 -44.165  1.00  0.00     0.210 HD
ENDBRANCH  19  20
ENDBRANCH   7  12
BRANCH  10  22
HETATM   22  O3  UNL     1       5.523  16.257 -46.418  1.00  0.00    -0.384 OA
ATOM     23  H3  UNL     1       6.146  16.598 -47.050  1.00  0.00     0.211 HD
ENDBRANCH  10  22
BRANCH  11  24
HETATM   24  C19 UNL     1       3.672  15.371 -44.940  1.00  0.00     0.009 C
HETATM   25  C20 UNL     1       2.673  14.630 -44.562  1.00  0.00     0.042 C
BRANCH  25  26
HETATM   26  C21 UNL     1       2.691  13.157 -44.681  1.00  0.00     0.258 C
HETATM   27  O4  UNL     1       1.824  12.542 -45.337  1.00  0.00    -0.302 OA
ENDBRANCH  25  26
ENDBRANCH  11  24
TORSDOF 5
ENDMDL