MODEL 5
REMARK VINA RESULT: -7.525779308      2.448      5.406
REMARK  5 active torsions:
REMARK  status: ('A' for Active; 'I' for Inactive)
REMARK    1  A    between atoms: C3_3  and  C4_4
REMARK    2  A    between atoms: C6_6  and  C7_7
REMARK    3  A    between atoms: C7_7  and  C9_9
REMARK    4  A    between atoms: C9_9  and  O1_10
REMARK    5  A    between atoms: C15_17  and  O2_18
ROOT
HETATM    1  C1  UNL     1       7.414  20.240 -48.163  1.00  0.00     0.012 C
HETATM    2  C2  UNL     1       6.587  19.527 -47.669  1.00  0.00    -0.116 C
HETATM    3  C3  UNL     1       5.577  18.692 -47.120  1.00  0.00     0.107 C
ENDROOT
BRANCH   3   4
HETATM    4  C4  UNL     1       5.387  18.642 -45.636  1.00  0.00    -0.003 C
HETATM    5  C5  UNL     1       4.419  19.794 -45.410  1.00  0.00     0.021 C
HETATM    6  C6  UNL     1       6.503  18.559 -44.727  1.00  0.00    -0.063 C
HETATM    7  C10 UNL     1       7.472  17.496 -45.205  1.00  0.00     0.036 C
HETATM    8  C11 UNL     1       6.863  16.216 -45.614  1.00  0.00     0.014 C
HETATM    9  C12 UNL     1       5.372  16.090 -45.597  1.00  0.00    -0.027 C
HETATM   10  C13 UNL     1       4.991  15.492 -46.976  1.00  0.00     0.016 C
HETATM   11  C14 UNL     1       4.569  17.306 -45.453  1.00  0.00     0.036 C
HETATM   12  C20 UNL     1       5.069  14.944 -44.628  1.00  0.00    -0.002 C
HETATM   13  C15 UNL     1       3.675  17.333 -44.244  1.00  0.00     0.124 C
HETATM   14  C16 UNL     1       2.817  16.051 -44.394  1.00  0.00     0.047 C
HETATM   15  C17 UNL     1       3.644  14.848 -44.197  1.00  0.00     0.099 C
HETATM   16  C18 UNL     1       3.053  13.614 -44.790  1.00  0.00     0.264 C
HETATM   17  O3  UNL     1       1.821  13.376 -44.801  1.00  0.00    -0.265 OA
HETATM   18  O4  UNL     1       4.095  12.881 -45.272  1.00  0.00    -0.320 OA
HETATM   19  C19 UNL     1       5.304  13.583 -45.276  1.00  0.00     0.189 C
HETATM   20  C21 UNL     1       5.915  14.926 -43.384  1.00  0.00     0.019 C
BRANCH   6  21
HETATM   21  C7  UNL     1       7.127  19.614 -43.985  1.00  0.00    -0.041 C
HETATM   22  C8  UNL     1       8.175  20.265 -44.570  1.00  0.00     0.021 C
BRANCH  21  23
HETATM   23  C9  UNL     1       6.746  20.211 -42.700  1.00  0.00     0.202 C
BRANCH  23  24
HETATM   24  O1  UNL     1       6.674  21.550 -42.568  1.00  0.00    -0.396 OA
ATOM     25  H1  UNL     1       6.626  22.105 -43.338  1.00  0.00     0.209 HD
ENDBRANCH  23  24
ENDBRANCH  21  23
ENDBRANCH   6  21
BRANCH  13  26
HETATM   26  O2  UNL     1       2.636  18.290 -44.352  1.00  0.00    -0.395 OA
ATOM     27  H2  UNL     1       2.784  19.056 -43.810  1.00  0.00     0.210 HD
ENDBRANCH  13  26
ENDBRANCH   3   4
TORSDOF 5
ENDMDL