MODEL 3
REMARK VINA RESULT: -8.235574416      2.048      2.597
REMARK  5 active torsions:
REMARK  status: ('A' for Active; 'I' for Inactive)
REMARK    1  A    between atoms: C2_2  and  C3_3
REMARK    2  A    between atoms: C3_3  and  C4_4
REMARK    3  A    between atoms: C4_4  and  C5_5
REMARK    4  A    between atoms: C5_5  and  O1_6
REMARK    5  A    between atoms: C16_19  and  O3_20
ROOT
HETATM    1  C4  UNL     1       5.021  15.099 -44.474  1.00  0.00    -0.015 C
HETATM    2  C6  UNL     1       4.819  15.571 -43.053  1.00  0.00     0.012 C
HETATM    3  C7  UNL     1       4.625  17.082 -43.299  1.00  0.00     0.007 C
HETATM    4  C8  UNL     1       5.922  17.280 -44.089  1.00  0.00     0.006 C
HETATM    5  C9  UNL     1       5.824  16.219 -45.134  1.00  0.00     0.001 C
HETATM    6  C10 UNL     1       5.320  16.652 -46.450  1.00  0.00     0.006 C
HETATM    7  C11 UNL     1       5.552  18.078 -46.795  1.00  0.00     0.007 C
HETATM    8  C12 UNL     1       6.611  18.768 -45.964  1.00  0.00     0.013 C
HETATM    9  C13 UNL     1       6.457  20.234 -46.323  1.00  0.00     0.072 C
HETATM   10  C14 UNL     1       7.660  21.027 -46.134  1.00  0.00     0.134 C
HETATM   11  O2  UNL     1       8.758  20.518 -46.109  1.00  0.00    -0.297 OA
HETATM   12  C15 UNL     1       7.574  22.504 -45.965  1.00  0.00     0.110 C
HETATM   13  C16 UNL     1       6.112  22.913 -45.933  1.00  0.00     0.126 C
HETATM   14  C17 UNL     1       5.352  22.037 -44.960  1.00  0.00     0.045 C
HETATM   15  C18 UNL     1       5.274  20.647 -45.500  1.00  0.00     0.070 C
HETATM   16  C19 UNL     1       5.090  19.616 -44.446  1.00  0.00     0.141 C
HETATM   17  O4  UNL     1       4.145  19.627 -43.686  1.00  0.00    -0.297 OA
HETATM   18  C20 UNL     1       6.212  18.648 -44.509  1.00  0.00     0.025 C
HETATM   19  C21 UNL     1       7.270  19.209 -43.577  1.00  0.00     0.024 C
ENDROOT
BRANCH   1  20
HETATM   20  C3  UNL     1       3.713  14.868 -45.108  1.00  0.00     0.012 C
BRANCH  20  21
HETATM   21  C2  UNL     1       2.812  14.020 -44.255  1.00  0.00    -0.004 C
HETATM   22  C1  UNL     1       2.206  12.900 -45.143  1.00  0.00     0.005 C
ENDBRANCH  20  21
ENDBRANCH   1  20
BRANCH   1  23
HETATM   23  C5  UNL     1       5.844  13.815 -44.519  1.00  0.00     0.173 C
BRANCH  23  24
HETATM   24  O1  UNL     1       5.804  13.268 -45.818  1.00  0.00    -0.400 OA
ATOM     25  H1  UNL     1       5.333  12.443 -45.805  1.00  0.00     0.209 HD
ENDBRANCH  23  24
ENDBRANCH   1  23
BRANCH  13  26
HETATM   26  O3  UNL     1       5.628  22.814 -47.219  1.00  0.00    -0.395 OA
ATOM     27  H3  UNL     1       5.532  21.891 -47.417  1.00  0.00     0.210 HD
ENDBRANCH  13  26
TORSDOF 5
ENDMDL