MODEL 4
REMARK VINA RESULT: -7.444479677      2.075      4.402
REMARK  6 active torsions:
REMARK  status: ('A' for Active; 'I' for Inactive)
REMARK    1  A    between atoms: C5_5  and  C6_6
REMARK    2  A    between atoms: C6_6  and  C8_8
REMARK    3  A    between atoms: C8_8  and  O1_9
REMARK    4  A    between atoms: C8_8  and  C9_11
REMARK    5  A    between atoms: C9_11  and  O2_12
REMARK    6  A    between atoms: C9_11  and  C10_14
ROOT
HETATM    1  C1  UNL     1       5.756  14.525 -42.927  1.00  0.00     0.015 C
HETATM    2  C2  UNL     1       5.383  15.428 -43.811  1.00  0.00    -0.076 C
HETATM    3  C3  UNL     1       4.675  16.740 -43.462  1.00  0.00     0.023 C
HETATM    4  C4  UNL     1       5.754  17.784 -43.455  1.00  0.00     0.018 C
HETATM    5  C5  UNL     1       5.717  18.698 -44.695  1.00  0.00     0.038 C
HETATM    6  C13 UNL     1       5.570  17.889 -45.909  1.00  0.00     0.167 A
HETATM    7  O3  UNL     1       4.936  18.602 -47.056  1.00  0.00    -0.296 OA
HETATM    8  C14 UNL     1       6.262  18.086 -47.177  1.00  0.00     0.296 A
HETATM    9  O4  UNL     1       7.121  18.084 -48.121  1.00  0.00    -0.262 OA
HETATM   10  C15 UNL     1       4.762  16.611 -45.714  1.00  0.00     0.052 C
HETATM   11  C16 UNL     1       5.548  15.423 -45.291  1.00  0.00    -0.017 C
HETATM   12  C17 UNL     1       5.149  14.133 -45.931  1.00  0.00     0.020 C
HETATM   13  C18 UNL     1       7.037  15.503 -45.549  1.00  0.00     0.020 C
HETATM   14  C19 UNL     1       3.742  16.768 -44.624  1.00  0.00    -0.032 C
HETATM   15  C20 UNL     1       2.764  17.861 -44.737  1.00  0.00     0.016 C
HETATM   16  C21 UNL     1       2.865  15.510 -44.485  1.00  0.00     0.016 C
ENDROOT
BRANCH   5  17
HETATM   17  C6  UNL     1       6.778  19.765 -44.598  1.00  0.00     0.020 C
HETATM   18  C7  UNL     1       8.085  19.022 -44.188  1.00  0.00     0.013 C
BRANCH  17  19
HETATM   19  C8  UNL     1       6.614  20.829 -43.633  1.00  0.00     0.151 C
BRANCH  19  20
HETATM   20  O1  UNL     1       6.874  20.455 -42.270  1.00  0.00    -0.393 OA
ATOM     21  H1  UNL     1       7.247  21.143 -41.731  1.00  0.00     0.210 HD
ENDBRANCH  19  20
BRANCH  19  22
HETATM   22  C9  UNL     1       5.394  21.653 -43.516  1.00  0.00     0.150 C
BRANCH  22  23
HETATM   23  O2  UNL     1       5.064  22.319 -44.732  1.00  0.00    -0.393 OA
ATOM     24  H2  UNL     1       4.846  23.234 -44.599  1.00  0.00     0.210 HD
ENDBRANCH  22  23
BRANCH  22  25
HETATM   25  C10 UNL     1       4.224  21.326 -42.707  1.00  0.00     0.009 C
HETATM   26  C11 UNL     1       2.963  21.238 -43.655  1.00  0.00     0.012 C
HETATM   27  C12 UNL     1       3.834  22.561 -41.863  1.00  0.00     0.012 C
ENDBRANCH  22  25
ENDBRANCH  19  22
ENDBRANCH  17  19
ENDBRANCH   5  17
TORSDOF 6
ENDMDL