MODEL 5
REMARK VINA RESULT: -7.107469999      1.983      3.682
REMARK  5 active torsions:
REMARK  status: ('A' for Active; 'I' for Inactive)
REMARK    1  A    between atoms: O1_2  and  C2_3
REMARK    2  A    between atoms: C7_8  and  O2_10
REMARK    3  A    between atoms: C12_15  and  C13_16
REMARK    4  A    between atoms: C13_16  and  O3_17
REMARK    5  A    between atoms: C17_22  and  C19_24
ROOT
HETATM    1  C2  UNL     1       5.713  17.600 -45.412  1.00  0.00     0.072 C
HETATM    2  C3  UNL     1       5.124  17.915 -44.095  1.00  0.00     0.040 C
HETATM    3  C4  UNL     1       4.864  19.351 -43.920  1.00  0.00     0.016 C
HETATM    4  C5  UNL     1       6.043  20.259 -44.217  1.00  0.00    -0.003 C
HETATM    5  C6  UNL     1       6.949  20.100 -42.981  1.00  0.00     0.019 C
HETATM    6  C7  UNL     1       5.428  21.631 -44.168  1.00  0.00     0.062 C
HETATM    7  C8  UNL     1       5.438  22.174 -42.725  1.00  0.00     0.046 C
HETATM    8  C9  UNL     1       6.010  22.700 -45.001  1.00  0.00     0.038 C
HETATM    9  C10 UNL     1       6.543  22.268 -46.321  1.00  0.00     0.004 C
HETATM   10  C11 UNL     1       6.436  20.810 -46.531  1.00  0.00     0.013 C
HETATM   11  C12 UNL     1       6.862  19.915 -45.389  1.00  0.00    -0.002 C
HETATM   12  C14 UNL     1       6.764  18.504 -45.914  1.00  0.00     0.036 C
HETATM   13  C15 UNL     1       8.028  17.686 -45.740  1.00  0.00     0.044 C
HETATM   14  C16 UNL     1       7.464  16.293 -46.098  1.00  0.00    -0.064 C
HETATM   15  C17 UNL     1       7.974  15.635 -47.074  1.00  0.00    -0.021 C
HETATM   16  C18 UNL     1       9.145  16.298 -47.845  1.00  0.00     0.052 C
HETATM   17  C20 UNL     1       6.462  16.232 -45.099  1.00  0.00     0.046 C
HETATM   18  C21 UNL     1       5.471  15.160 -44.967  1.00  0.00     0.018 C
ENDROOT
BRANCH  15  19
HETATM   19  C19 UNL     1       7.641  14.330 -47.596  1.00  0.00     0.265 C
HETATM   20  O4  UNL     1       8.106  13.774 -48.588  1.00  0.00    -0.302 OA
ENDBRANCH  15  19
BRANCH   1  21
HETATM   21  O1  UNL     1       4.868  17.140 -46.376  1.00  0.00    -0.384 OA
HETATM   22  C1  UNL     1       4.279  17.944 -47.260  1.00  0.00     0.202 C
ENDBRANCH   1  21
BRANCH  11  23
HETATM   23  C13 UNL     1       8.352  20.131 -45.217  1.00  0.00     0.175 C
BRANCH  23  24
HETATM   24  O3  UNL     1       9.037  20.694 -46.249  1.00  0.00    -0.400 OA
ATOM     25  H3  UNL     1       9.747  21.289 -46.039  1.00  0.00     0.209 HD
ENDBRANCH  23  24
ENDBRANCH  11  23
BRANCH   6  26
HETATM   26  O2  UNL     1       4.036  21.606 -44.467  1.00  0.00    -0.389 OA
ATOM     27  H2  UNL     1       3.681  22.478 -44.589  1.00  0.00     0.210 HD
ENDBRANCH   6  26
TORSDOF 5
ENDMDL