MODEL 4
REMARK VINA RESULT: -7.494884694      5.352     11.017
REMARK  8 active torsions:
REMARK  status: ('A' for Active; 'I' for Inactive)
REMARK    1  A    between atoms: N1_2  and  C2_4
REMARK    2  A    between atoms: C2_4  and  N2_6
REMARK    3  A    between atoms: C3_7  and  C4_8
REMARK    4  A    between atoms: C7_14  and  C8_15
REMARK    5  A    between atoms: C12_20  and  C13_21
REMARK    6  A    between atoms: C16_24  and  N3_25
REMARK       I    between atoms: N3_25  and  C17_27
REMARK    7  A    between atoms: C17_27  and  C18_29
REMARK    8  A    between atoms: C18_29  and  N4_31
ROOT
HETATM    1  N2  UNL     1       4.541 -16.186  43.653  1.00  0.00    -0.309 N
HETATM    2  C3  UNL     1       3.306 -15.940  42.833  1.00  0.00     0.193 C
HETATM    3  C5  UNL     1       2.648 -17.187  42.372  1.00  0.00     0.071 C
HETATM    4  C6  UNL     1       2.495 -18.225  43.449  1.00  0.00     0.156 C
HETATM    5  O3  UNL     1       3.273 -17.823  44.526  1.00  0.00    -0.350 OA
HETATM    6  C7  UNL     1       4.609 -17.548  44.083  1.00  0.00     0.164 C
HETATM    7  C11 UNL     1       5.047 -18.413  42.941  1.00  0.00     0.230 C
HETATM    8  O4  UNL     1       4.209 -19.284  42.355  1.00  0.00    -0.378 OA
HETATM    9  C12 UNL     1       3.069 -19.563  43.044  1.00  0.00     0.154 C
ENDROOT
BRANCH   9  10
HETATM   10  C13 UNL     1       2.124 -20.495  42.387  1.00  0.00     0.017 C
HETATM   11  C14 UNL     1       2.579 -21.912  42.773  1.00  0.00     0.009 C
HETATM   12  C15 UNL     1       1.965 -22.900  41.836  1.00  0.00     0.026 C
HETATM   13  C16 UNL     1       0.596 -22.356  41.425  1.00  0.00     0.084 C
HETATM   14  C21 UNL     1       0.796 -21.206  40.449  1.00  0.00     0.026 C
HETATM   15  C22 UNL     1       2.004 -20.401  40.908  1.00  0.00     0.009 C
BRANCH  13  16
HETATM   16  N3  UNL     1      -0.109 -23.426  40.775  1.00  0.00    -0.355 N
HETATM   17  C17 UNL     1      -1.037 -24.201  41.493  1.00  0.00     0.248 C
HETATM   18  O5  UNL     1      -1.244 -23.953  42.705  1.00  0.00    -0.271 OA
ATOM     19  H3  UNL     1       0.065 -23.624  39.790  1.00  0.00     0.162 HD
BRANCH  17  20
HETATM   20  C18 UNL     1      -1.776 -25.314  40.828  1.00  0.00     0.272 C
HETATM   21  C19 UNL     1      -1.029 -26.598  41.117  1.00  0.00     0.050 C
BRANCH  20  22
HETATM   22  N4  UNL     1      -3.153 -25.366  41.240  1.00  0.00    -0.067 N
HETATM   23  C20 UNL     1      -3.638 -26.720  41.191  1.00  0.00     0.267 C
ATOM     24  H42 UNL     1      -3.292 -24.944  42.158  1.00  0.00     0.277 HD
ATOM     25  H41 UNL     1      -3.737 -24.732  40.694  1.00  0.00     0.277 HD
ENDBRANCH  20  22
ENDBRANCH  17  20
ENDBRANCH  13  16
ENDBRANCH   9  10
BRANCH   2  26
HETATM   26  C4  UNL     1       2.340 -15.135  43.644  1.00  0.00     0.197 C
HETATM   27  O1  UNL     1       1.132 -15.097  43.323  1.00  0.00    -0.646 OA
HETATM   28  O2  UNL     1       2.732 -14.416  44.759  1.00  0.00    -0.646 OA
ENDBRANCH   2  26
BRANCH   6  29
HETATM   29  C8  UNL     1       5.443 -17.924  45.259  1.00  0.00     0.036 C
HETATM   30  C9  UNL     1       6.921 -18.050  44.993  1.00  0.00     0.014 C
HETATM   31  C10 UNL     1       4.874 -18.854  46.264  1.00  0.00     0.014 C
ENDBRANCH   6  29
BRANCH   1  32
HETATM   32  C2  UNL     1       5.336 -15.065  43.805  1.00  0.00     0.172 C
HETATM   33  S1  UNL     1       6.290 -14.692  42.454  1.00  0.00    -0.041 SA
BRANCH  32  34
HETATM   34  N1  UNL     1       5.545 -14.162  44.855  1.00  0.00    -0.371 N
HETATM   35  C1  UNL     1       5.943 -14.747  46.173  1.00  0.00     0.148 C
ATOM     36  H1  UNL     1       5.431 -13.157  44.727  1.00  0.00     0.161 HD
ENDBRANCH  32  34
ENDBRANCH   1  32
TORSDOF 8
ENDMDL