MODEL 2
REMARK VINA RESULT: -8.839190973      1.535      1.870
REMARK  9 active torsions:
REMARK  status: ('A' for Active; 'I' for Inactive)
REMARK    1  A    between atoms: C2_2  and  C3_3
REMARK    2  A    between atoms: C6_6  and  C7_7
REMARK    3  A    between atoms: C6_6  and  C16_29
REMARK    4  A    between atoms: C7_7  and  S1_8
REMARK    5  A    between atoms: S1_8  and  C8_11
REMARK    6  A    between atoms: C8_11  and  C9_12
REMARK    7  A    between atoms: C9_12  and  O3_13
REMARK    8  A    between atoms: N1_15  and  O4_17
REMARK       I    between atoms: N2_21  and  C12_22
REMARK       I    between atoms: C12_22  and  N3_24
REMARK       I    between atoms: C16_29  and  N4_31
REMARK    9  A    between atoms: N4_31  and  C17_33
ROOT
HETATM    1  S1  UNL     1       5.569 -19.418  45.447  1.00  0.00     0.162 S
HETATM    2  O1  UNL     1       6.645 -19.203  44.394  1.00  0.00    -0.227 OA
HETATM    3  O2  UNL     1       6.115 -20.137  46.633  1.00  0.00    -0.227 OA
ENDROOT
BRANCH   1   4
HETATM    4  C7  UNL     1       4.808 -17.902  45.850  1.00  0.00     0.161 C
BRANCH   4   5
HETATM    5  C6  UNL     1       5.534 -16.665  45.417  1.00  0.00     0.057 C
HETATM    6  C5  UNL     1       5.437 -16.345  43.960  1.00  0.00     0.048 C
HETATM    7  C4  UNL     1       4.068 -15.966  43.549  1.00  0.00    -0.018 C
HETATM    8  C3  UNL     1       3.501 -14.987  44.259  1.00  0.00    -0.063 C
HETATM    9  C21 UNL     1       4.331 -14.437  45.346  1.00  0.00     0.039 C
HETATM   10  C20 UNL     1       4.939 -15.518  46.208  1.00  0.00     0.025 C
BRANCH   8  11
HETATM   11  C2  UNL     1       2.162 -14.509  43.972  1.00  0.00    -0.004 C
HETATM   12  C1  UNL     1       1.444 -14.984  42.994  1.00  0.00     0.012 C
ENDBRANCH   8  11
BRANCH   5  13
HETATM   13  C16 UNL     1       6.989 -16.712  45.777  1.00  0.00     0.228 C
HETATM   14  O6  UNL     1       7.821 -16.084  45.062  1.00  0.00    -0.273 OA
HETATM   15  N4  UNL     1       7.458 -17.438  46.890  1.00  0.00    -0.356 N
ATOM     16  H4  UNL     1       6.801 -17.952  47.477  1.00  0.00     0.162 HD
BRANCH  15  17
HETATM   17  C17 UNL     1       8.868 -17.454  47.199  1.00  0.00     0.076 C
HETATM   18  C18 UNL     1       9.131 -17.034  48.634  1.00  0.00     0.032 C
HETATM   19  C19 UNL     1       9.400 -18.881  47.070  1.00  0.00     0.032 C
ENDBRANCH  15  17
ENDBRANCH   5  13
ENDBRANCH   4   5
ENDBRANCH   1   4
BRANCH   1  20
HETATM   20  C8  UNL     1       4.383 -20.509  44.675  1.00  0.00     0.133 C
HETATM   21  C10 UNL     1       5.041 -21.209  43.509  1.00  0.00     0.054 C
HETATM   22  C11 UNL     1       4.117 -22.052  42.721  1.00  0.00     0.129 C
HETATM   23  N2  UNL     1       2.728 -21.693  42.762  1.00  0.00    -0.334 N
HETATM   24  C12 UNL     1       1.831 -22.420  41.952  1.00  0.00     0.317 C
HETATM   25  C14 UNL     1       2.197 -20.627  43.587  1.00  0.00     0.129 C
HETATM   26  O5  UNL     1       0.612 -22.136  41.959  1.00  0.00    -0.247 OA
HETATM   27  N3  UNL     1       2.265 -23.471  41.120  1.00  0.00    -0.347 N
HETATM   28  C13 UNL     1       1.353 -24.221  40.286  1.00  0.00     0.151 C
ATOM     29  H3  UNL     1       3.257 -23.712  41.106  1.00  0.00     0.163 HD
HETATM   30  C15 UNL     1       3.242 -19.681  44.065  1.00  0.00     0.054 C
BRANCH  20  31
HETATM   31  C9  UNL     1       3.763 -21.445  45.620  1.00  0.00     0.159 C
HETATM   32  N1  UNL     1       4.425 -22.500  46.012  1.00  0.00    -0.250 N
ATOM     33  H1  UNL     1       5.367 -22.653  45.652  1.00  0.00     0.196 HD
BRANCH  31  34
HETATM   34  O3  UNL     1       2.503 -21.276  46.125  1.00  0.00    -0.347 OA
ATOM     35  H3  UNL     1       1.814 -21.923  46.034  1.00  0.00     0.219 HD
ENDBRANCH  31  34
BRANCH  32  36
HETATM   36  O4  UNL     1       3.896 -23.409  46.893  1.00  0.00    -0.288 OA
ATOM     37  H4  UNL     1       4.315 -24.243  47.072  1.00  0.00     0.244 HD
ENDBRANCH  32  36
ENDBRANCH  20  31
ENDBRANCH   1  20
TORSDOF 9
ENDMDL