MODEL 4
REMARK VINA RESULT: -7.561260538      6.302      8.921
REMARK  12 active torsions:
REMARK  status: ('A' for Active; 'I' for Inactive)
REMARK    1  A    between atoms: C2_2  and  C4_4
REMARK    2  A    between atoms: C4_4  and  C5_5
REMARK    3  A    between atoms: C4_4  and  N3_19
REMARK    4  A    between atoms: C5_5  and  O1_6
REMARK    5  A    between atoms: C5_5  and  N1_8
REMARK    6  A    between atoms: C8_11  and  C9_12
REMARK    7  A    between atoms: C9_12  and  N2_13
REMARK       I    between atoms: N3_19  and  C13_21
REMARK       I    between atoms: C13_21  and  N4_23
REMARK    8  A    between atoms: N4_23  and  C14_25
REMARK    9  A    between atoms: C14_25  and  C15_26
REMARK   10  A    between atoms: C17_30  and  N5_31
REMARK       I    between atoms: N5_31  and  C18_33
REMARK   11  A    between atoms: C18_33  and  O6_35
REMARK   12  A    between atoms: O6_35  and  C19_36
ROOT
HETATM    1  N3  UNL     1       5.165 -20.373  44.924  1.00  0.00    -0.303 N
HETATM    2  C12 UNL     1       3.891 -20.422  45.632  1.00  0.00     0.161 C
HETATM    3  C13 UNL     1       6.337 -20.609  45.727  1.00  0.00     0.323 C
HETATM    4  O2  UNL     1       7.442 -20.567  45.150  1.00  0.00    -0.247 OA
HETATM    5  N4  UNL     1       6.282 -20.879  47.106  1.00  0.00    -0.321 N
ATOM      6  H4  UNL     1       5.383 -20.913  47.588  1.00  0.00     0.165 HD
ENDROOT
BRANCH   1   7
HETATM    7  C4  UNL     1       5.326 -20.120  43.528  1.00  0.00     0.070 C
BRANCH   7   8
HETATM    8  C2  UNL     1       4.946 -21.279  42.633  1.00  0.00     0.032 C
HETATM    9  C1  UNL     1       4.685 -22.535  43.450  1.00  0.00     0.016 C
HETATM   10  C3  UNL     1       6.121 -21.660  41.719  1.00  0.00     0.016 C
ENDBRANCH   7   8
BRANCH   7  11
HETATM   11  C5  UNL     1       4.923 -18.821  43.021  1.00  0.00     0.162 C
BRANCH  11  12
HETATM   12  O1  UNL     1       4.147 -18.882  41.963  1.00  0.00    -0.345 OA
ATOM     13  H1  UNL     1       3.309 -18.448  42.076  1.00  0.00     0.219 HD
ENDBRANCH  11  12
BRANCH  11  14
HETATM   14  N1  UNL     1       5.185 -17.517  43.419  1.00  0.00    -0.360 N
HETATM   15  C6  UNL     1       5.534 -16.981  44.698  1.00  0.00     0.125 C
HETATM   16  C7  UNL     1       4.359 -16.168  45.199  1.00  0.00     0.026 C
HETATM   17  C8  UNL     1       4.144 -15.031  44.235  1.00  0.00     0.014 C
HETATM   18  C10 UNL     1       4.056 -15.433  42.802  1.00  0.00     0.026 C
HETATM   19  C11 UNL     1       5.077 -16.460  42.384  1.00  0.00     0.125 C
BRANCH  17  20
HETATM   20  C9  UNL     1       2.888 -14.304  44.660  1.00  0.00     0.234 C
BRANCH  20  21
HETATM   21  N2  UNL     1       1.745 -14.626  43.859  1.00  0.00    -0.079 N
ATOM     22  H23 UNL     1       1.965 -15.368  43.195  1.00  0.00     0.274 HD
ATOM     23  H22 UNL     1       1.036 -15.104  44.416  1.00  0.00     0.274 HD
ATOM     24  H21 UNL     1       1.345 -13.819  43.381  1.00  0.00     0.274 HD
ENDBRANCH  20  21
ENDBRANCH  17  20
ENDBRANCH  11  14
ENDBRANCH   7  11
ENDBRANCH   1   7
BRANCH   5  25
HETATM   25  C14 UNL     1       7.518 -21.109  47.839  1.00  0.00     0.145 A
HETATM   26  C16 UNL     1       7.489 -20.684  49.318  1.00  0.00     0.073 A
HETATM   27  C17 UNL     1       8.208 -19.889  48.267  1.00  0.00     0.128 A
BRANCH  25  28
HETATM   28  C15 UNL     1       8.228 -22.382  47.634  1.00  0.00     0.204 C
HETATM   29  O3  UNL     1       9.455 -22.488  47.385  1.00  0.00    -0.646 OA
HETATM   30  O4  UNL     1       7.442 -23.562  47.733  1.00  0.00    -0.646 OA
ENDBRANCH  25  28
BRANCH  27  31
HETATM   31  N5  UNL     1       9.634 -19.798  48.335  1.00  0.00    -0.329 N
HETATM   32  C18 UNL     1      10.253 -18.534  48.005  1.00  0.00     0.361 C
HETATM   33  O5  UNL     1       9.537 -17.585  47.679  1.00  0.00    -0.238 OA
ATOM     34  H5  UNL     1      10.198 -20.602  48.609  1.00  0.00     0.165 HD
BRANCH  32  35
HETATM   35  O6  UNL     1      11.628 -18.358  48.046  1.00  0.00    -0.294 OA
BRANCH  35  36
HETATM   36  C19 UNL     1      12.384 -18.316  49.233  1.00  0.00     0.061 C
HETATM   37  C20 UNL     1      12.998 -19.657  49.572  1.00  0.00     0.046 C
HETATM   38  C21 UNL     1      13.522 -17.342  49.024  1.00  0.00     0.046 C
HETATM   39  C22 UNL     1      11.565 -17.870  50.430  1.00  0.00     0.046 C
ENDBRANCH  35  36
ENDBRANCH  32  35
ENDBRANCH  27  31
ENDBRANCH   5  25
TORSDOF 12
ENDMDL