MODEL 4
REMARK VINA RESULT: -7.980696379      1.382      1.982
REMARK  9 active torsions:
REMARK  status: ('A' for Active; 'I' for Inactive)
REMARK    1  A    between atoms: C2_2  and  C4_4
REMARK    2  A    between atoms: C4_4  and  C5_5
REMARK    3  A    between atoms: C6_8  and  O1_9
REMARK    4  A    between atoms: C9_13  and  O2_14
REMARK    5  A    between atoms: C13_21  and  O3_22
REMARK    6  A    between atoms: O3_22  and  C14_23
REMARK    7  A    between atoms: C14_23  and  C15_24
REMARK    8  A    between atoms: C15_24  and  N3_25
REMARK    9  A    between atoms: C21_34  and  C22_35
ROOT
HETATM    1  C5  UNL     1       9.070 -17.787  47.826  1.00  0.00     0.155 C
HETATM    2  N1  UNL     1       8.309 -18.538  48.745  1.00  0.00    -0.362 N
ATOM      3  H1  UNL     1       8.035 -17.986  49.558  1.00  0.00     0.162 HD
HETATM    4  C6  UNL     1       7.838 -19.847  48.819  1.00  0.00     0.123 C
HETATM    5  C7  UNL     1       7.632 -20.885  47.802  1.00  0.00     0.130 C
HETATM    6  C8  UNL     1       8.055 -22.222  48.488  1.00  0.00     0.027 C
HETATM    7  C9  UNL     1       8.391 -20.759  46.549  1.00  0.00     0.127 C
HETATM    8  N2  UNL     1       8.073 -20.379  45.273  1.00  0.00    -0.339 N
ATOM      9  H2  UNL     1       8.891 -20.080  44.741  1.00  0.00     0.168 HD
HETATM   10  C10 UNL     1       6.850 -20.302  44.501  1.00  0.00     0.049 A
HETATM   11  C11 UNL     1       6.831 -21.035  43.291  1.00  0.00     0.033 A
HETATM   12  C12 UNL     1       5.774 -21.111  42.430  1.00  0.00     0.039 A
HETATM   13  C13 UNL     1       4.624 -20.424  42.751  1.00  0.00     0.070 A
HETATM   14  C18 UNL     1       4.624 -19.705  43.920  1.00  0.00     0.056 A
HETATM   15  C19 UNL     1       5.714 -19.625  44.807  1.00  0.00     0.061 A
HETATM   16  C20 UNL     1       5.468 -18.751  45.971  1.00  0.00     0.254 C
HETATM   17  O4  UNL     1       4.329 -18.993  46.535  1.00  0.00    -0.268 OA
HETATM   18  N4  UNL     1       6.213 -17.746  46.553  1.00  0.00    -0.345 N
ATOM     19  H4  UNL     1       5.939 -17.513  47.506  1.00  0.00     0.163 HD
HETATM   20  C21 UNL     1       7.320 -16.967  46.036  1.00  0.00     0.160 C
HETATM   21  C25 UNL     1       8.283 -16.710  47.139  1.00  0.00     0.172 C
HETATM   22  O5  UNL     1       8.459 -15.575  47.522  1.00  0.00    -0.293 OA
ENDROOT
BRANCH  13  23
HETATM   23  O3  UNL     1       3.500 -20.455  41.923  1.00  0.00    -0.349 OA
BRANCH  23  24
HETATM   24  C14 UNL     1       2.427 -19.576  42.197  1.00  0.00     0.206 C
BRANCH  24  25
HETATM   25  C15 UNL     1       2.817 -18.138  41.922  1.00  0.00     0.297 C
BRANCH  25  26
HETATM   26  N3  UNL     1       2.126 -17.196  42.751  1.00  0.00     0.082 N
HETATM   27  C16 UNL     1       2.854 -16.761  43.905  1.00  0.00     0.309 C
HETATM   28  C17 UNL     1       1.511 -16.119  42.013  1.00  0.00     0.309 C
ENDBRANCH  25  26
ENDBRANCH  24  25
ENDBRANCH  23  24
ENDBRANCH  13  23
BRANCH   7  29
HETATM   29  O2  UNL     1       9.643 -21.103  46.769  1.00  0.00    -0.349 OA
ATOM     30  H2  UNL     1      10.217 -20.473  46.349  1.00  0.00     0.219 HD
ENDBRANCH   7  29
BRANCH  20  31
HETATM   31  C22 UNL     1       6.718 -15.659  45.510  1.00  0.00     0.007 C
HETATM   32  C23 UNL     1       5.485 -15.263  46.329  1.00  0.00     0.012 C
HETATM   33  C24 UNL     1       6.393 -15.694  44.059  1.00  0.00     0.012 C
ENDBRANCH  20  31
BRANCH   4  34
HETATM   34  O1  UNL     1       7.493 -20.299  50.004  1.00  0.00    -0.349 OA
ATOM     35  H1  UNL     1       6.648 -20.029  50.345  1.00  0.00     0.219 HD
ENDBRANCH   4  34
BRANCH   1  36
HETATM   36  C4  UNL     1      10.272 -17.146  48.473  1.00  0.00     0.037 C
BRANCH  36  37
HETATM   37  C2  UNL     1      11.360 -18.050  48.944  1.00  0.00    -0.020 C
HETATM   38  C1  UNL     1      11.404 -18.328  50.391  1.00  0.00     0.009 C
HETATM   39  C3  UNL     1      12.677 -17.343  48.575  1.00  0.00     0.009 C
ENDBRANCH  36  37
ENDBRANCH   1  36
TORSDOF 9
ENDMDL