MODEL 4
REMARK VINA RESULT: -7.972656769      1.306      1.433
REMARK  9 active torsions:
REMARK  status: ('A' for Active; 'I' for Inactive)
REMARK    1  A    between atoms: C2_2  and  O1_4
REMARK    2  A    between atoms: O1_4  and  C4_5
REMARK       I    between atoms: C4_5  and  N1_7
REMARK    3  A    between atoms: C7_10  and  N2_11
REMARK       I    between atoms: N2_11  and  C8_12
REMARK    4  A    between atoms: C8_12  and  C9_14
REMARK    5  A    between atoms: C9_14  and  C10_15
REMARK    6  A    between atoms: C9_14  and  N6_25
REMARK    7  A    between atoms: C10_15  and  C11_16
REMARK    8  A    between atoms: C11_16  and  C12_17
REMARK    9  A    between atoms: C12_17  and  N3_18
REMARK       I    between atoms: N3_18  and  C13_20
ROOT
HETATM    1  C9  UNL     1       7.450 -17.235  45.617  1.00  0.00     0.190 C
ENDROOT
BRANCH   1   2
HETATM    2  C8  UNL     1       7.417 -18.617  44.984  1.00  0.00     0.309 C
HETATM    3  N2  UNL     1       6.234 -19.378  44.835  1.00  0.00    -0.408 NA
HETATM    4  O3  UNL     1       8.533 -19.017  44.616  1.00  0.00    -0.255 OA
BRANCH   3   5
HETATM    5  C7  UNL     1       5.142 -20.094  44.691  1.00  0.00     0.170 C
HETATM    6  C6  UNL     1       3.977 -19.801  45.658  1.00  0.00     0.059 C
HETATM    7  C5  UNL     1       2.726 -20.257  44.929  1.00  0.00     0.131 C
HETATM    8  N1  UNL     1       3.102 -21.550  44.338  1.00  0.00    -0.328 N
HETATM    9  C4  UNL     1       2.401 -21.981  43.191  1.00  0.00     0.363 C
HETATM   10  C23 UNL     1       4.155 -22.339  44.931  1.00  0.00     0.131 C
HETATM   11  O2  UNL     1       1.461 -21.313  42.706  1.00  0.00    -0.238 OA
HETATM   12  C22 UNL     1       5.452 -21.606  44.820  1.00  0.00     0.059 C
BRANCH   9  13
HETATM   13  O1  UNL     1       2.707 -23.171  42.526  1.00  0.00    -0.299 OA
BRANCH  13  14
HETATM   14  C2  UNL     1       3.352 -23.165  41.260  1.00  0.00     0.125 C
HETATM   15  C1  UNL     1       4.824 -22.862  41.401  1.00  0.00     0.040 C
HETATM   16  C3  UNL     1       3.162 -24.420  40.487  1.00  0.00     0.040 C
ENDBRANCH  13  14
ENDBRANCH   9  13
ENDBRANCH   3   5
ENDBRANCH   1   2
BRANCH   1  17
HETATM   17  C10 UNL     1       7.685 -17.451  47.045  1.00  0.00     0.038 C
BRANCH  17  18
HETATM   18  C11 UNL     1       9.097 -17.576  47.531  1.00  0.00     0.022 C
BRANCH  18  19
HETATM   19  C12 UNL     1       9.189 -18.938  48.191  1.00  0.00     0.122 C
BRANCH  19  20
HETATM   20  N3  UNL     1       8.102 -19.228  49.055  1.00  0.00    -0.365 N
HETATM   21  C13 UNL     1       7.475 -20.490  48.941  1.00  0.00     0.181 C
HETATM   22  N4  UNL     1       6.639 -20.766  47.994  1.00  0.00    -0.374 N
HETATM   23  N5  UNL     1       7.751 -21.497  49.892  1.00  0.00    -0.064 NA
ATOM     24  H42 UNL     1       6.440 -20.038  47.308  1.00  0.00     0.158 HD
ATOM     25  H41 UNL     1       6.187 -21.677  47.911  1.00  0.00     0.158 HD
ATOM     26  H3  UNL     1       7.781 -18.544  49.741  1.00  0.00     0.162 HD
ENDBRANCH  19  20
ENDBRANCH  18  19
ENDBRANCH  17  18
ENDBRANCH   1  17
BRANCH   1  27
HETATM   27  N6  UNL     1       6.448 -16.395  45.149  1.00  0.00    -0.376 N
HETATM   28  C14 UNL     1       6.633 -15.894  43.828  1.00  0.00     0.142 C
HETATM   29  C15 UNL     1       5.444 -16.089  42.972  1.00  0.00     0.137 C
HETATM   30  N7  UNL     1       4.230 -16.390  43.630  1.00  0.00    -0.402 N
HETATM   31  C16 UNL     1       3.099 -16.432  42.782  1.00  0.00     0.117 C
HETATM   32  C20 UNL     1       4.013 -15.938  44.933  1.00  0.00     0.117 C
HETATM   33  C17 UNL     1       1.991 -15.509  43.096  1.00  0.00     0.019 C
HETATM   34  C18 UNL     1       2.224 -14.489  44.139  1.00  0.00     0.004 C
HETATM   35  C19 UNL     1       3.512 -14.517  44.868  1.00  0.00     0.030 C
HETATM   36  C21 UNL     1       5.258 -16.113  45.784  1.00  0.00     0.084 C
ENDBRANCH   1  27
TORSDOF 9
ENDMDL