MODEL 5
REMARK VINA RESULT: -6.785094628      3.075      5.459
REMARK  8 active torsions:
REMARK  status: ('A' for Active; 'I' for Inactive)
REMARK    1  A    between atoms: C2_2  and  N2_4
REMARK    2  A    between atoms: N2_4  and  C3_5
REMARK    3  A    between atoms: C3_5  and  C4_6
REMARK    4  A    between atoms: C10_15  and  C11_16
REMARK       I    between atoms: N3_19  and  C12_20
REMARK    5  A    between atoms: C12_20  and  C13_22
REMARK    6  A    between atoms: C13_22  and  C15_24
REMARK    7  A    between atoms: C13_22  and  C19_32
REMARK    8  A    between atoms: C15_24  and  C16_25
ROOT
HETATM    1  C3  UNL     1       6.632 -22.681  45.722  1.00  0.00     0.219 C
HETATM    2  C5  UNL     1       6.810 -22.029  44.431  1.00  0.00     0.159 A
HETATM    3  C6  UNL     1       6.797 -23.008  43.280  1.00  0.00     0.108 A
HETATM    4  S1  UNL     1       6.448 -24.577  44.075  1.00  0.00    -0.146 SA
HETATM    5  C7  UNL     1       7.309 -24.100  45.633  1.00  0.00     0.051 C
HETATM    6  C8  UNL     1       6.920 -24.948  46.777  1.00  0.00     0.031 C
HETATM    7  C9  UNL     1       8.752 -23.913  45.424  1.00  0.00     0.031 C
HETATM    8  C10 UNL     1       5.783 -22.225  42.621  1.00  0.00     0.204 A
HETATM    9  N3  UNL     1       5.890 -21.212  43.721  1.00  0.00    -0.325 N
HETATM   10  C12 UNL     1       5.288 -19.946  43.688  1.00  0.00     0.230 C
HETATM   11  O5  UNL     1       4.381 -19.737  42.799  1.00  0.00    -0.272 OA
ENDROOT
BRANCH   8  12
HETATM   12  C11 UNL     1       4.480 -22.681  42.241  1.00  0.00     0.198 C
HETATM   13  O3  UNL     1       4.352 -23.105  41.026  1.00  0.00    -0.646 OA
HETATM   14  O4  UNL     1       3.314 -22.742  42.968  1.00  0.00    -0.646 OA
ENDBRANCH   8  12
BRANCH  10  15
HETATM   15  C13 UNL     1       5.538 -18.744  44.542  1.00  0.00     0.045 C
HETATM   16  C14 UNL     1       5.134 -19.105  45.966  1.00  0.00     0.026 C
BRANCH  15  17
HETATM   17  C15 UNL     1       7.032 -18.487  44.494  1.00  0.00     0.077 C
BRANCH  17  18
HETATM   18  C16 UNL     1       7.665 -17.810  45.609  1.00  0.00     0.026 A
HETATM   19  C17 UNL     1       7.543 -16.482  45.980  1.00  0.00     0.114 A
HETATM   20  N4  UNL     1       8.300 -16.267  47.056  1.00  0.00    -0.360 N
HETATM   21  C18 UNL     1       8.894 -17.427  47.371  1.00  0.00     0.180 A
ATOM     22  H4  UNL     1       8.408 -15.381  47.549  1.00  0.00     0.166 HD
HETATM   23  N5  UNL     1       8.507 -18.350  46.497  1.00  0.00    -0.355 N
ATOM     24  H5  UNL     1       8.808 -19.324  46.503  1.00  0.00     0.166 HD
ENDBRANCH  17  18
ENDBRANCH  15  17
BRANCH  15  25
HETATM   25  C19 UNL     1       4.686 -17.631  44.050  1.00  0.00    -0.005 C
HETATM   26  C20 UNL     1       5.362 -16.747  43.023  1.00  0.00     0.011 C
HETATM   27  C21 UNL     1       4.011 -16.784  45.066  1.00  0.00     0.011 C
ENDBRANCH  15  25
ENDBRANCH  10  15
BRANCH   1  28
HETATM   28  N2  UNL     1       7.334 -22.025  46.715  1.00  0.00    -0.411 NA
BRANCH  28  29
HETATM   29  C2  UNL     1       7.915 -21.456  47.544  1.00  0.00     0.157 C
HETATM   30  C1  UNL     1       7.278 -20.885  48.799  1.00  0.00     0.101 C
HETATM   31  N1  UNL     1       9.351 -21.193  47.518  1.00  0.00    -0.073 NA
ENDBRANCH  28  29
ENDBRANCH   1  28
BRANCH   1  32
HETATM   32  C4  UNL     1       5.231 -23.027  46.153  1.00  0.00     0.220 C
HETATM   33  O1  UNL     1       4.722 -22.438  47.143  1.00  0.00    -0.645 OA
HETATM   34  O2  UNL     1       4.427 -23.965  45.552  1.00  0.00    -0.645 OA
ENDBRANCH   1  32
TORSDOF 8
ENDMDL