MODEL 5
REMARK VINA RESULT: -8.236426997      5.278      9.731
REMARK  8 active torsions:
REMARK  status: ('A' for Active; 'I' for Inactive)
REMARK    1  A    between atoms: C4_6  and  N2_7
REMARK    2  A    between atoms: N2_7  and  C5_9
REMARK    3  A    between atoms: C8_12  and  C9_13
REMARK    4  A    between atoms: C9_13  and  N3_16
REMARK    5  A    between atoms: C14_22  and  C15_23
REMARK    6  A    between atoms: N5_27  and  C17_29
REMARK    7  A    between atoms: C17_29  and  C18_30
REMARK    8  A    between atoms: N6_33  and  S1_34
ROOT
HETATM    1  C1  UNL     1       9.265 -16.384  47.842  1.00  0.00     0.052 C
HETATM    2  C2  UNL     1       8.909 -17.706  47.211  1.00  0.00    -0.019 A
HETATM    3  C3  UNL     1       9.712 -18.797  47.477  1.00  0.00     0.098 A
HETATM    4  N1  UNL     1       9.489 -20.009  46.954  1.00  0.00    -0.351 N
ATOM      5  H1  UNL     1      10.118 -20.777  47.190  1.00  0.00     0.166 HD
HETATM    6  C4  UNL     1       8.438 -20.242  46.111  1.00  0.00     0.119 A
HETATM    7  C14 UNL     1       7.625 -19.179  45.828  1.00  0.00     0.100 A
HETATM    8  C16 UNL     1       7.843 -17.886  46.375  1.00  0.00     0.058 A
HETATM    9  N5  UNL     1       7.041 -17.007  46.068  1.00  0.00    -0.368 N
ATOM     10  H5  UNL     1       6.357 -17.422  45.436  1.00  0.00     0.165 HD
ENDROOT
BRANCH   6  11
HETATM   11  N2  UNL     1       8.253 -21.584  45.650  1.00  0.00    -0.371 N
ATOM     12  H2  UNL     1       8.580 -21.832  44.717  1.00  0.00     0.161 HD
BRANCH  11  13
HETATM   13  C5  UNL     1       7.613 -22.607  46.466  1.00  0.00     0.083 C
HETATM   14  C6  UNL     1       8.589 -23.679  46.815  1.00  0.00     0.025 C
HETATM   15  C7  UNL     1       7.879 -24.798  47.596  1.00  0.00     0.009 C
HETATM   16  C8  UNL     1       6.886 -25.379  46.594  1.00  0.00     0.020 C
HETATM   17  C12 UNL     1       5.826 -24.352  46.354  1.00  0.00     0.009 C
HETATM   18  C13 UNL     1       6.441 -23.154  45.661  1.00  0.00     0.025 C
BRANCH  16  19
HETATM   19  C9  UNL     1       6.318 -26.691  47.095  1.00  0.00     0.120 C
HETATM   20  C10 UNL     1       4.813 -26.664  47.153  1.00  0.00     0.046 C
HETATM   21  C11 UNL     1       6.715 -27.844  46.202  1.00  0.00     0.046 C
BRANCH  19  22
HETATM   22  N3  UNL     1       6.810 -26.968  48.413  1.00  0.00    -0.071 N
ATOM     23  H33 UNL     1       7.828 -26.924  48.458  1.00  0.00     0.275 HD
ATOM     24  H32 UNL     1       6.599 -26.214  49.066  1.00  0.00     0.275 HD
ATOM     25  H31 UNL     1       6.452 -27.866  48.739  1.00  0.00     0.275 HD
ENDBRANCH  19  22
ENDBRANCH  16  19
ENDBRANCH  11  13
ENDBRANCH   6  11
BRANCH   7  26
HETATM   26  C15 UNL     1       6.519 -19.358  44.895  1.00  0.00     0.271 C
HETATM   27  N4  UNL     1       6.787 -19.840  43.552  1.00  0.00    -0.057 NA
HETATM   28  O1  UNL     1       5.311 -19.143  45.112  1.00  0.00    -0.271 OA
ENDBRANCH   7  26
BRANCH   9  29
HETATM   29  C17 UNL     1       6.700 -15.689  46.238  1.00  0.00     0.066 C
BRANCH  29  30
HETATM   30  C18 UNL     1       5.735 -15.035  45.289  1.00  0.00     0.033 C
HETATM   31  C19 UNL     1       4.355 -14.874  45.865  1.00  0.00     0.056 C
HETATM   32  C20 UNL     1       3.357 -14.407  44.877  1.00  0.00     0.079 C
HETATM   33  N6  UNL     1       3.481 -14.852  43.558  1.00  0.00    -0.291 N
HETATM   34  C22 UNL     1       4.715 -15.342  43.109  1.00  0.00     0.079 C
HETATM   35  C23 UNL     1       5.571 -16.025  44.122  1.00  0.00     0.056 C
BRANCH  33  36
HETATM   36  S1  UNL     1       2.075 -15.365  42.750  1.00  0.00     0.115 S
HETATM   37  C21 UNL     1       1.939 -17.117  42.502  1.00  0.00     0.153 C
HETATM   38  O2  UNL     1       0.845 -14.734  43.332  1.00  0.00    -0.235 OA
ENDBRANCH  33  36
ENDBRANCH  29  30
ENDBRANCH   9  29
TORSDOF 8
ENDMDL