MODEL 3
REMARK VINA RESULT: -9.142655097      1.105      1.515
REMARK  7 active torsions:
REMARK  status: ('A' for Active; 'I' for Inactive)
REMARK    1  A    between atoms: C2_2  and  N1_4
REMARK       I    between atoms: N1_4  and  C4_6
REMARK    2  A    between atoms: C4_6  and  C5_8
REMARK    3  A    between atoms: C5_8  and  N2_9
REMARK    4  A    between atoms: N2_9  and  C6_11
REMARK    5  A    between atoms: C11_16  and  C12_17
REMARK    6  A    between atoms: C15_22  and  O4_23
REMARK    7  A    between atoms: O4_23  and  C16_24
ROOT
HETATM    1  C6  UNL     1       5.119 -15.956  45.623  1.00  0.00     0.022 C
HETATM    2  C7  UNL     1       5.023 -14.603  44.959  1.00  0.00     0.036 C
HETATM    3  C8  UNL     1       5.897 -14.489  43.730  1.00  0.00     0.015 C
HETATM    4  C9  UNL     1       5.501 -15.578  42.794  1.00  0.00    -0.009 C
HETATM    5  C10 UNL     1       4.081 -15.474  42.320  1.00  0.00     0.025 C
HETATM    6  C11 UNL     1       3.216 -15.593  43.572  1.00  0.00     0.052 C
HETATM    7  C13 UNL     1       3.576 -14.459  44.472  1.00  0.00     0.031 C
HETATM    8  C14 UNL     1       3.476 -16.939  44.153  1.00  0.00     0.065 C
HETATM    9  C15 UNL     1       4.930 -17.096  44.659  1.00  0.00     0.103 C
HETATM   10  C23 UNL     1       5.770 -16.929  43.411  1.00  0.00     0.049 C
ENDROOT
BRANCH   9  11
HETATM   11  O4  UNL     1       4.960 -18.316  45.198  1.00  0.00    -0.350 OA
BRANCH  11  12
HETATM   12  C16 UNL     1       4.074 -19.293  45.006  1.00  0.00     0.217 C
HETATM   13  C17 UNL     1       3.819 -20.049  46.286  1.00  0.00     0.055 C
HETATM   14  C18 UNL     1       4.642 -21.277  46.462  1.00  0.00     0.028 C
HETATM   15  C19 UNL     1       4.416 -22.362  45.491  1.00  0.00     0.050 A
HETATM   16  C20 UNL     1       5.400 -22.299  44.379  1.00  0.00     0.043 C
HETATM   17  C22 UNL     1       3.104 -23.067  45.358  1.00  0.00     0.132 A
HETATM   18  S1  UNL     1       4.234 -24.024  46.154  1.00  0.00     0.026 S
HETATM   19  C21 UNL     1       5.716 -20.847  44.101  1.00  0.00     0.118 C
HETATM   20  N3  UNL     1       4.498 -20.156  43.927  1.00  0.00    -0.397 N
ATOM     21  H3  UNL     1       3.942 -20.261  43.078  1.00  0.00     0.155 HD
HETATM   22  O5  UNL     1       5.066 -25.270  45.435  1.00  0.00    -0.257 OA
ENDBRANCH  11  12
ENDBRANCH   9  11
BRANCH   1  23
HETATM   23  N2  UNL     1       6.148 -16.096  46.586  1.00  0.00    -0.385 N
ATOM     24  H2  UNL     1       5.987 -15.963  47.585  1.00  0.00     0.159 HD
BRANCH  23  25
HETATM   25  C5  UNL     1       7.446 -16.443  46.044  1.00  0.00     0.222 C
BRANCH  25  26
HETATM   26  C4  UNL     1       8.115 -17.492  46.847  1.00  0.00     0.235 C
HETATM   27  N1  UNL     1       7.588 -18.798  46.902  1.00  0.00    -0.356 N
ATOM     28  H1  UNL     1       6.735 -18.997  46.379  1.00  0.00     0.162 HD
HETATM   29  O1  UNL     1       9.155 -17.198  47.472  1.00  0.00    -0.272 OA
BRANCH  27  30
HETATM   30  C2  UNL     1       8.190 -19.875  47.662  1.00  0.00     0.076 C
HETATM   31  C1  UNL     1       8.321 -21.134  46.795  1.00  0.00     0.032 C
HETATM   32  C3  UNL     1       7.251 -20.238  48.789  1.00  0.00     0.032 C
ENDBRANCH  27  30
ENDBRANCH  25  26
ENDBRANCH  23  25
ENDBRANCH   1  23
BRANCH   6  33
HETATM   33  C12 UNL     1       1.779 -15.524  43.228  1.00  0.00     0.182 C
HETATM   34  O2  UNL     1       1.041 -14.671  43.782  1.00  0.00    -0.647 OA
HETATM   35  O3  UNL     1       1.187 -16.372  42.303  1.00  0.00    -0.647 OA
ENDBRANCH   6  33
TORSDOF 7
ENDMDL