MODEL 1
REMARK VINA RESULT: -9.953543292      0.000      0.000
REMARK  8 active torsions:
REMARK  status: ('A' for Active; 'I' for Inactive)
REMARK    1  A    between atoms: C5_6  and  O2_7
REMARK    2  A    between atoms: C5_6  and  O3_9
REMARK    3  A    between atoms: O3_9  and  C6_10
REMARK    4  A    between atoms: C6_10  and  C7_11
REMARK    5  A    between atoms: C11_19  and  N2_20
REMARK       I    between atoms: N2_20  and  C12_22
REMARK    6  A    between atoms: C12_22  and  C13_24
REMARK    7  A    between atoms: C13_24  and  C14_25
REMARK    8  A    between atoms: C14_25  and  C15_26
ROOT
HETATM    1  O1  UNL     1      12.362 -17.612  49.191  1.00  0.00    -0.273 OA
HETATM    2  C1  UNL     1      11.197 -17.897  48.806  1.00  0.00     0.221 C
HETATM    3  C2  UNL     1      11.014 -19.333  48.652  1.00  0.00     0.103 C
HETATM    4  C3  UNL     1      10.276 -19.829  47.477  1.00  0.00     0.014 C
HETATM    5  C4  UNL     1       9.428 -18.870  46.726  1.00  0.00     0.071 C
HETATM    6  C5  UNL     1       8.162 -18.449  47.451  1.00  0.00     0.187 C
HETATM    7  C11 UNL     1       8.074 -16.994  47.672  1.00  0.00     0.185 C
HETATM    8  C25 UNL     1       9.411 -16.275  47.728  1.00  0.00     0.094 C
HETATM    9  N3  UNL     1      10.375 -16.754  48.625  1.00  0.00    -0.339 N
ATOM     10  H3  UNL     1      10.535 -16.079  49.372  1.00  0.00     0.167 HD
ENDROOT
BRANCH   7  11
HETATM   11  N2  UNL     1       7.340 -16.297  46.649  1.00  0.00    -0.347 N
HETATM   12  C12 UNL     1       6.871 -14.967  46.823  1.00  0.00     0.218 C
HETATM   13  O5  UNL     1       7.081 -14.339  47.888  1.00  0.00    -0.274 OA
ATOM     14  H2  UNL     1       7.150 -16.774  45.768  1.00  0.00     0.163 HD
BRANCH  12  15
HETATM   15  C13 UNL     1       6.120 -14.289  45.738  1.00  0.00     0.103 C
BRANCH  15  16
HETATM   16  C14 UNL     1       4.640 -14.589  45.862  1.00  0.00     0.018 C
BRANCH  16  17
HETATM   17  C15 UNL     1       4.099 -15.275  44.649  1.00  0.00    -0.039 C
HETATM   18  C16 UNL     1       4.997 -15.063  43.445  1.00  0.00     0.014 C
HETATM   19  C17 UNL     1       4.491 -15.873  42.284  1.00  0.00    -0.013 C
HETATM   20  C18 UNL     1       3.090 -15.409  41.896  1.00  0.00     0.009 C
HETATM   21  C22 UNL     1       4.415 -17.344  42.568  1.00  0.00     0.009 C
HETATM   22  C19 UNL     1       2.202 -15.562  43.104  1.00  0.00    -0.013 C
HETATM   23  C20 UNL     1       2.135 -17.049  43.416  1.00  0.00     0.009 C
HETATM   24  C24 UNL     1       2.720 -14.765  44.281  1.00  0.00     0.014 C
HETATM   25  C21 UNL     1       3.513 -17.532  43.776  1.00  0.00    -0.013 C
HETATM   26  C23 UNL     1       4.062 -16.765  44.941  1.00  0.00     0.014 C
ENDBRANCH  16  17
ENDBRANCH  15  16
ENDBRANCH  12  15
ENDBRANCH   7  11
BRANCH   6  27
HETATM   27  O2  UNL     1       8.362 -18.960  48.799  1.00  0.00    -0.363 OA
ATOM     28  H2  UNL     1       7.782 -18.423  49.325  1.00  0.00     0.213 HD
ENDBRANCH   6  27
BRANCH   6  29
HETATM   29  O3  UNL     1       7.066 -19.101  47.083  1.00  0.00    -0.350 OA
BRANCH  29  30
HETATM   30  C6  UNL     1       6.588 -20.248  47.473  1.00  0.00     0.205 C
BRANCH  30  31
HETATM   31  C7  UNL     1       6.511 -21.173  46.226  1.00  0.00     0.170 C
HETATM   32  C8  UNL     1       5.528 -22.284  46.481  1.00  0.00     0.266 C
HETATM   33  N1  UNL     1       4.219 -21.681  46.714  1.00  0.00    -0.071 N
HETATM   34  C9  UNL     1       3.842 -20.782  45.648  1.00  0.00     0.258 C
ATOM     35  H12 UNL     1       3.505 -22.392  46.868  1.00  0.00     0.277 HD
ATOM     36  H11 UNL     1       4.182 -21.216  47.621  1.00  0.00     0.277 HD
HETATM   37  C10 UNL     1       4.930 -20.743  44.621  1.00  0.00     0.196 C
HETATM   38  O4  UNL     1       6.155 -20.396  45.131  1.00  0.00    -0.380 OA
ENDBRANCH  30  31
ENDBRANCH  29  30
ENDBRANCH   6  29
TORSDOF 8
ENDMDL