MODEL 5
REMARK VINA RESULT: -8.386754890      1.604      1.980
REMARK  7 active torsions:
REMARK  status: ('A' for Active; 'I' for Inactive)
REMARK    1  A    between atoms: C2_2  and  C3_3
REMARK    2  A    between atoms: C3_3  and  N1_4
REMARK    3  A    between atoms: C3_3  and  C18_27
REMARK       I    between atoms: N1_4  and  C4_6
REMARK    4  A    between atoms: C4_6  and  C5_8
REMARK       I    between atoms: N2_12  and  C9_13
REMARK    5  A    between atoms: C9_13  and  C10_15
REMARK    6  A    between atoms: C10_15  and  N3_16
REMARK    7  A    between atoms: C10_15  and  C12_21
ROOT
HETATM    1  C5  UNL     1       4.131 -21.152  45.574  1.00  0.00     0.179 C
HETATM    2  C6  UNL     1       3.554 -21.886  44.409  1.00  0.00     0.037 C
HETATM    3  C7  UNL     1       4.197 -21.255  43.171  1.00  0.00     0.022 C
HETATM    4  C8  UNL     1       5.326 -20.427  43.769  1.00  0.00     0.127 C
HETATM    5  N2  UNL     1       4.714 -19.947  44.972  1.00  0.00    -0.337 N
HETATM    6  C9  UNL     1       4.629 -18.664  45.569  1.00  0.00     0.243 C
HETATM    7  O2  UNL     1       4.054 -18.560  46.679  1.00  0.00    -0.271 OA
ENDROOT
BRANCH   1   8
HETATM    8  C4  UNL     1       5.145 -21.943  46.312  1.00  0.00     0.241 C
HETATM    9  N1  UNL     1       6.455 -21.444  46.539  1.00  0.00    -0.352 N
ATOM     10  H1  UNL     1       6.688 -20.518  46.179  1.00  0.00     0.163 HD
HETATM   11  O1  UNL     1       4.833 -23.082  46.744  1.00  0.00    -0.271 OA
BRANCH   9  12
HETATM   12  C3  UNL     1       7.477 -22.176  47.251  1.00  0.00     0.116 C
BRANCH  12  13
HETATM   13  C2  UNL     1       8.186 -21.315  48.269  1.00  0.00     0.051 C
HETATM   14  C1  UNL     1       7.062 -20.550  48.992  1.00  0.00     0.041 C
HETATM   15  C21 UNL     1       9.001 -20.255  47.565  1.00  0.00     0.106 C
HETATM   16  S1  UNL     1       9.782 -19.212  48.860  1.00  0.00    -0.165 SA
HETATM   17  C22 UNL     1      10.601 -20.392  49.976  1.00  0.00     0.093 C
HETATM   18  C23 UNL     1      10.293 -21.771  49.378  1.00  0.00     0.124 C
HETATM   19  N6  UNL     1       8.893 -22.018  49.273  1.00  0.00    -0.410 N
ATOM     20  H6  UNL     1       8.421 -22.674  49.895  1.00  0.00     0.154 HD
ENDBRANCH  12  13
BRANCH  12  21
HETATM   21  C18 UNL     1       8.392 -22.917  46.325  1.00  0.00     0.011 A
HETATM   22  C19 UNL     1       8.257 -24.410  46.129  1.00  0.00     0.007 A
HETATM   23  C20 UNL     1       7.958 -23.463  45.022  1.00  0.00     0.007 A
ENDBRANCH  12  21
ENDBRANCH   9  12
ENDBRANCH   1   8
BRANCH   6  24
HETATM   24  C10 UNL     1       5.183 -17.443  44.951  1.00  0.00     0.180 C
BRANCH  24  25
HETATM   25  N3  UNL     1       6.058 -16.689  45.672  1.00  0.00    -0.353 N
HETATM   26  C11 UNL     1       7.114 -16.388  46.136  1.00  0.00     0.197 C
HETATM   27  N4  UNL     1       7.223 -15.196  46.960  1.00  0.00    -0.067 NA
HETATM   28  N5  UNL     1       8.335 -17.079  45.976  1.00  0.00    -0.067 NA
ATOM     29  H3  UNL     1       5.455 -15.943  46.020  1.00  0.00     0.162 HD
ENDBRANCH  24  25
BRANCH  24  30
HETATM   30  C12 UNL     1       4.039 -16.518  44.481  1.00  0.00     0.017 C
HETATM   31  C13 UNL     1       4.383 -16.168  43.045  1.00  0.00     0.007 C
HETATM   32  C14 UNL     1       3.161 -15.591  42.396  1.00  0.00     0.000 C
HETATM   33  C15 UNL     1       2.274 -15.015  43.477  1.00  0.00     0.000 C
HETATM   34  C16 UNL     1       3.023 -14.316  44.570  1.00  0.00     0.000 C
HETATM   35  C17 UNL     1       4.000 -15.235  45.274  1.00  0.00     0.007 C
ENDBRANCH  24  30
ENDBRANCH   6  24
TORSDOF 7
ENDMDL