MODEL 5
REMARK VINA RESULT: -7.925940031      1.658      2.658
REMARK  10 active torsions:
REMARK  status: ('A' for Active; 'I' for Inactive)
REMARK    1  A    between atoms: C4_4  and  O1_5
REMARK    2  A    between atoms: C5_7  and  O2_8
REMARK    3  A    between atoms: O2_8  and  C6_9
REMARK    4  A    between atoms: C6_9  and  C7_11
REMARK    5  A    between atoms: C7_11  and  C8_12
REMARK    6  A    between atoms: C8_12  and  C9_13
REMARK    7  A    between atoms: C9_13  and  C10_14
REMARK    8  A    between atoms: C10_14  and  C11_16
REMARK    9  A    between atoms: C11_16  and  O5_17
REMARK   10  A    between atoms: C19_27  and  O7_28
ROOT
HETATM    1  C1  UNL     1       7.140 -27.401 -10.867  1.00  0.00     0.010 C
HETATM    2  C2  UNL     1       6.379 -28.068 -11.952  1.00  0.00    -0.011 C
HETATM    3  C3  UNL     1       5.856 -29.443 -11.630  1.00  0.00     0.039 C
HETATM    4  C4  UNL     1       4.343 -29.415 -11.483  1.00  0.00     0.148 C
HETATM    5  C5  UNL     1       3.930 -28.117 -10.808  1.00  0.00     0.165 C
HETATM    6  C12 UNL     1       4.176 -26.889 -11.604  1.00  0.00     0.031 C
HETATM    7  C13 UNL     1       5.294 -27.233 -12.599  1.00  0.00     0.004 C
HETATM    8  C14 UNL     1       5.969 -26.014 -13.160  1.00  0.00     0.083 C
HETATM    9  C15 UNL     1       5.204 -25.601 -14.357  1.00  0.00     0.127 C
HETATM   10  O6  UNL     1       5.881 -25.265 -15.328  1.00  0.00    -0.298 OA
HETATM   11  C16 UNL     1       3.760 -25.513 -14.619  1.00  0.00     0.083 C
HETATM   12  C17 UNL     1       2.874 -26.278 -13.687  1.00  0.00     0.003 C
HETATM   13  C18 UNL     1       1.463 -26.132 -14.179  1.00  0.00     0.037 C
HETATM   14  C19 UNL     1       0.649 -25.092 -13.516  1.00  0.00     0.118 C
HETATM   15  C20 UNL     1       0.671 -25.341 -12.060  1.00  0.00     0.032 C
HETATM   16  C21 UNL     1       1.729 -26.289 -11.562  1.00  0.00     0.012 C
HETATM   17  C22 UNL     1       3.096 -26.089 -12.224  1.00  0.00    -0.033 C
HETATM   18  C23 UNL     1       3.377 -24.590 -11.979  1.00  0.00     0.016 C
ENDROOT
BRANCH   5  19
HETATM   19  O2  UNL     1       2.814 -28.215 -10.026  1.00  0.00    -0.313 OA
BRANCH  19  20
HETATM   20  C6  UNL     1       2.483 -29.239  -9.211  1.00  0.00     0.259 C
HETATM   21  O3  UNL     1       3.334 -29.526  -8.358  1.00  0.00    -0.265 OA
BRANCH  20  22
HETATM   22  C7  UNL     1       1.222 -30.032  -9.245  1.00  0.00     0.111 C
BRANCH  22  23
HETATM   23  C8  UNL     1       0.914 -30.348 -10.682  1.00  0.00     0.017 C
BRANCH  23  24
HETATM   24  C9  UNL     1      -0.189 -29.513 -11.261  1.00  0.00     0.081 C
BRANCH  24  25
HETATM   25  C10 UNL     1       0.010 -29.285 -12.696  1.00  0.00     0.150 C
HETATM   26  O4  UNL     1       1.097 -29.461 -13.205  1.00  0.00    -0.296 OA
BRANCH  25  27
HETATM   27  C11 UNL     1      -1.149 -28.831 -13.527  1.00  0.00     0.242 C
BRANCH  27  28
HETATM   28  O5  UNL     1      -0.736 -28.791 -14.852  1.00  0.00    -0.394 OA
ATOM     29  H5  UNL     1       0.114 -28.367 -14.882  1.00  0.00     0.209 HD
ENDBRANCH  27  28
ENDBRANCH  25  27
ENDBRANCH  24  25
ENDBRANCH  23  24
ENDBRANCH  22  23
ENDBRANCH  20  22
ENDBRANCH  19  20
ENDBRANCH   5  19
BRANCH   4  30
HETATM   30  O1  UNL     1       3.765 -29.814 -12.598  1.00  0.00    -0.393 OA
ATOM     31  H1  UNL     1       4.353 -29.703 -13.336  1.00  0.00     0.210 HD
ENDBRANCH   4  30
BRANCH  14  32
HETATM   32  O7  UNL     1       0.991 -23.774 -13.884  1.00  0.00    -0.396 OA
ATOM     33  H7  UNL     1       0.315 -23.133 -13.699  1.00  0.00     0.210 HD
ENDBRANCH  14  32
TORSDOF 10
ENDMDL