MODEL 5
REMARK VINA RESULT: -8.205429823      4.355      8.532
REMARK  10 active torsions:
REMARK  status: ('A' for Active; 'I' for Inactive)
REMARK    1  A    between atoms: O1_1  and  C1_3
REMARK    2  A    between atoms: C1_3  and  N1_4
REMARK    3  A    between atoms: C1_3  and  O3_25
REMARK    4  A    between atoms: N1_4  and  C2_6
REMARK    5  A    between atoms: C2_6  and  C3_7
REMARK    6  A    between atoms: C2_6  and  C10_14
REMARK    7  A    between atoms: C10_14  and  O2_15
REMARK    8  A    between atoms: C10_14  and  N2_17
REMARK    9  A    between atoms: N2_17  and  C11_19
REMARK   10  A    between atoms: O3_25  and  C17_26
ROOT
HETATM    1  C2  UNL     1       3.259 -26.372 -13.864  1.00  0.00     0.164 C
ENDROOT
BRANCH   1   2
HETATM    2  N1  UNL     1       2.157 -26.735 -14.796  1.00  0.00    -0.338 N
ATOM      3  H1  UNL     1       2.145 -27.656 -15.235  1.00  0.00     0.164 HD
BRANCH   2   4
HETATM    4  C1  UNL     1       1.130 -25.807 -15.075  1.00  0.00     0.259 C
BRANCH   4   5
HETATM    5  O1  UNL     1       0.001 -26.352 -15.483  1.00  0.00    -0.327 OA
ATOM      6  H1  UNL     1      -0.598 -26.585 -14.783  1.00  0.00     0.221 HD
ENDBRANCH   4   5
BRANCH   4   7
HETATM    7  O3  UNL     1       1.095 -24.459 -15.008  1.00  0.00    -0.308 OA
BRANCH   7   8
HETATM    8  C17 UNL     1      -0.099 -23.708 -15.109  1.00  0.00     0.172 C
HETATM    9  C18 UNL     1      -0.429 -22.855 -13.929  1.00  0.00     0.204 C
HETATM   10  O4  UNL     1      -0.275 -21.540 -14.296  1.00  0.00    -0.358 OA
HETATM   11  C19 UNL     1      -0.342 -21.424 -15.653  1.00  0.00     0.274 C
HETATM   12  O5  UNL     1      -1.566 -20.973 -16.078  1.00  0.00    -0.353 OA
HETATM   13  C22 UNL     1      -0.096 -22.781 -16.274  1.00  0.00     0.144 C
HETATM   14  C20 UNL     1      -1.764 -21.522 -17.363  1.00  0.00     0.250 C
HETATM   15  C21 UNL     1      -1.295 -22.911 -17.136  1.00  0.00     0.162 C
HETATM   16  O6  UNL     1      -1.804 -23.913 -17.577  1.00  0.00    -0.295 OA
ENDBRANCH   7   8
ENDBRANCH   4   7
ENDBRANCH   2   4
ENDBRANCH   1   2
BRANCH   1  17
HETATM   17  C3  UNL     1       3.462 -27.612 -12.988  1.00  0.00     0.016 C
HETATM   18  C4  UNL     1       3.203 -27.383 -11.573  1.00  0.00     0.007 C
HETATM   19  C5  UNL     1       4.087 -28.282 -10.661  1.00  0.00     0.000 C
HETATM   20  C6  UNL     1       4.130 -29.642 -11.240  1.00  0.00     0.000 C
HETATM   21  C7  UNL     1       2.730 -30.091 -11.556  1.00  0.00     0.000 C
HETATM   22  C8  UNL     1       2.362 -29.919 -12.976  1.00  0.00     0.000 C
HETATM   23  C9  UNL     1       2.514 -28.625 -13.617  1.00  0.00     0.007 C
ENDBRANCH   1  17
BRANCH   1  24
HETATM   24  C10 UNL     1       4.435 -25.801 -14.498  1.00  0.00     0.135 C
BRANCH  24  25
HETATM   25  O2  UNL     1       4.190 -24.981 -15.586  1.00  0.00    -0.348 OA
ATOM     26  H2  UNL     1       4.539 -24.100 -15.524  1.00  0.00     0.219 HD
ENDBRANCH  24  25
BRANCH  24  27
HETATM   27  N2  UNL     1       5.544 -26.630 -14.746  1.00  0.00    -0.368 N
ATOM     28  H2  UNL     1       5.457 -27.413 -15.394  1.00  0.00     0.161 HD
BRANCH  27  29
HETATM   29  C11 UNL     1       6.778 -26.382 -14.102  1.00  0.00     0.083 C
HETATM   30  C12 UNL     1       6.834 -25.030 -13.439  1.00  0.00     0.025 C
HETATM   31  C13 UNL     1       8.233 -24.837 -12.876  1.00  0.00     0.002 C
HETATM   32  C14 UNL     1       8.596 -25.909 -11.918  1.00  0.00     0.000 C
HETATM   33  C15 UNL     1       8.372 -27.296 -12.500  1.00  0.00     0.002 C
HETATM   34  C16 UNL     1       6.925 -27.389 -12.914  1.00  0.00     0.025 C
ENDBRANCH  27  29
ENDBRANCH  24  27
ENDBRANCH   1  24
TORSDOF 10
ENDMDL