MODEL 5
REMARK VINA RESULT: -9.256580569      4.651      6.772
REMARK  9 active torsions:
REMARK  status: ('A' for Active; 'I' for Inactive)
REMARK    1  A    between atoms: C3_3  and  C11_11
REMARK    2  A    between atoms: C4_4  and  C5_5
REMARK    3  A    between atoms: C5_5  and  C6_6
REMARK    4  A    between atoms: C6_6  and  C7_7
REMARK    5  A    between atoms: C16_17  and  O1_18
REMARK    6  A    between atoms: O1_18  and  C17_19
REMARK    7  A    between atoms: C18_20  and  O2_21
REMARK    8  A    between atoms: C20_25  and  O4_26
REMARK    9  A    between atoms: C23_30  and  O5_31
ROOT
HETATM    1  C1  UNL     1       3.878 -26.109 -14.213  1.00  0.00     0.017 C
HETATM    2  C2  UNL     1       4.244 -26.975 -13.466  1.00  0.00    -0.082 C
HETATM    3  C3  UNL     1       4.668 -28.039 -12.541  1.00  0.00    -0.003 C
HETATM    4  C4  UNL     1       5.930 -28.352 -12.581  1.00  0.00    -0.010 C
ENDROOT
BRANCH   3   5
HETATM    5  C11 UNL     1       3.668 -28.653 -11.645  1.00  0.00     0.056 C
HETATM    6  C12 UNL     1       4.285 -29.734 -10.843  1.00  0.00     0.017 C
HETATM    7  C13 UNL     1       3.234 -30.760 -10.487  1.00  0.00    -0.006 C
HETATM    8  C14 UNL     1       3.773 -31.550  -9.322  1.00  0.00     0.015 C
HETATM    9  C21 UNL     1       1.958 -30.050 -10.199  1.00  0.00     0.031 C
HETATM   10  C15 UNL     1       3.495 -30.907  -7.987  1.00  0.00     0.077 C
HETATM   11  S1  UNL     1       1.678 -31.036  -7.742  1.00  0.00    -0.137 SA
HETATM   12  C16 UNL     1       0.972 -30.816  -9.401  1.00  0.00     0.188 C
HETATM   13  C22 UNL     1       1.359 -29.544 -11.491  1.00  0.00     0.041 C
HETATM   14  C23 UNL     1       2.471 -29.093 -12.443  1.00  0.00     0.127 C
BRANCH  12  15
HETATM   15  O1  UNL     1      -0.247 -30.218  -9.397  1.00  0.00    -0.362 OA
BRANCH  15  16
HETATM   16  C17 UNL     1      -1.319 -31.020  -9.704  1.00  0.00     0.208 C
HETATM   17  C18 UNL     1      -2.259 -30.264 -10.611  1.00  0.00     0.175 C
HETATM   18  C19 UNL     1      -3.589 -30.886 -10.252  1.00  0.00     0.205 C
HETATM   19  O3  UNL     1      -3.510 -31.352  -8.974  1.00  0.00    -0.356 OA
HETATM   20  C20 UNL     1      -2.238 -31.222  -8.495  1.00  0.00     0.288 C
BRANCH  17  21
HETATM   21  O2  UNL     1      -2.303 -28.914 -10.265  1.00  0.00    -0.391 OA
ATOM     22  H2  UNL     1      -1.462 -28.499 -10.414  1.00  0.00     0.210 HD
ENDBRANCH  17  21
BRANCH  20  23
HETATM   23  O4  UNL     1      -1.844 -32.395  -7.846  1.00  0.00    -0.369 OA
ATOM     24  H4  UNL     1      -1.416 -32.953  -8.485  1.00  0.00     0.212 HD
ENDBRANCH  20  23
ENDBRANCH  15  16
ENDBRANCH  12  15
BRANCH  14  25
HETATM   25  O5  UNL     1       2.773 -30.116 -13.334  1.00  0.00    -0.395 OA
ATOM     26  H5  UNL     1       2.022 -30.377 -13.856  1.00  0.00     0.210 HD
ENDBRANCH  14  25
ENDBRANCH   3   5
BRANCH   4  27
HETATM   27  C5  UNL     1       6.860 -27.671 -13.502  1.00  0.00     0.032 C
BRANCH  27  28
HETATM   28  C6  UNL     1       7.764 -26.796 -12.640  1.00  0.00     0.037 C
BRANCH  28  29
HETATM   29  C7  UNL     1       7.913 -25.459 -13.256  1.00  0.00    -0.088 C
HETATM   30  C8  UNL     1       8.647 -24.419 -12.478  1.00  0.00     0.043 C
HETATM   31  C9  UNL     1       7.404 -25.231 -14.446  1.00  0.00    -0.029 C
HETATM   32  C10 UNL     1       7.550 -23.894 -15.065  1.00  0.00     0.036 C
ENDBRANCH  28  29
ENDBRANCH  27  28
ENDBRANCH   4  27
TORSDOF 9
ENDMDL