MODEL 5
REMARK VINA RESULT: -9.181810872      1.824      2.148
REMARK  9 active torsions:
REMARK  status: ('A' for Active; 'I' for Inactive)
REMARK    1  A    between atoms: C2_2  and  C3_4
REMARK    2  A    between atoms: C4_5  and  O1_6
REMARK    3  A    between atoms: C6_9  and  O2_10
REMARK    4  A    between atoms: O2_10  and  C7_11
REMARK    5  A    between atoms: C15_20  and  C16_21
REMARK    6  A    between atoms: C17_22  and  C18_23
REMARK    7  A    between atoms: C18_23  and  O4_24
REMARK    8  A    between atoms: O4_24  and  C19_25
REMARK    9  A    between atoms: C19_25  and  C20_27
ROOT
HETATM    1  C7  UNL     1       4.260 -27.489 -13.035  1.00  0.00     0.280 C
HETATM    2  O3  UNL     1       5.085 -27.550 -14.152  1.00  0.00    -0.331 OA
HETATM    3  C8  UNL     1       5.826 -26.460 -14.617  1.00  0.00     0.145 C
HETATM    4  C9  UNL     1       6.506 -25.845 -13.632  1.00  0.00    -0.029 C
HETATM    5  C10 UNL     1       7.366 -24.662 -13.872  1.00  0.00     0.041 C
HETATM    6  C11 UNL     1       8.429 -24.558 -12.796  1.00  0.00     0.008 C
HETATM    7  C12 UNL     1       8.677 -25.876 -12.103  1.00  0.00     0.028 C
HETATM    8  C13 UNL     1       7.440 -26.448 -11.514  1.00  0.00    -0.018 C
HETATM    9  C14 UNL     1       6.352 -26.421 -12.310  1.00  0.00    -0.041 C
HETATM   10  C15 UNL     1       5.052 -26.933 -11.880  1.00  0.00     0.097 C
ENDROOT
BRANCH   1  11
HETATM   11  O2  UNL     1       3.091 -26.896 -13.104  1.00  0.00    -0.330 OA
BRANCH  11  12
HETATM   12  C6  UNL     1       1.917 -27.376 -13.427  1.00  0.00     0.265 C
HETATM   13  C5  UNL     1       1.143 -28.229 -12.481  1.00  0.00     0.093 C
HETATM   14  C4  UNL     1       0.269 -27.408 -11.551  1.00  0.00     0.136 C
HETATM   15  C3  UNL     1      -0.820 -26.786 -12.397  1.00  0.00     0.104 C
HETATM   16  C21 UNL     1      -0.270 -26.724 -13.821  1.00  0.00     0.133 C
HETATM   17  O8  UNL     1       1.066 -26.330 -13.807  1.00  0.00    -0.355 OA
HETATM   18  C22 UNL     1      -1.039 -25.574 -14.489  1.00  0.00     0.040 C
BRANCH  14  19
HETATM   19  O1  UNL     1       0.976 -26.341 -10.991  1.00  0.00    -0.395 OA
ATOM     20  H1  UNL     1       1.879 -26.630 -10.929  1.00  0.00     0.210 HD
ENDBRANCH  14  19
BRANCH  15  21
HETATM   21  C2  UNL     1      -2.056 -27.595 -12.311  1.00  0.00     0.093 C
HETATM   22  C1  UNL     1      -2.753 -27.673 -11.198  1.00  0.00     0.052 C
HETATM   23  F1  UNL     1      -2.492 -28.276 -13.398  1.00  0.00    -0.211 F
ENDBRANCH  15  21
ENDBRANCH  11  12
ENDBRANCH   1  11
BRANCH  10  24
HETATM   24  C16 UNL     1       5.179 -27.929 -10.775  1.00  0.00    -0.014 C
HETATM   25  C17 UNL     1       5.121 -29.221 -11.092  1.00  0.00    -0.004 C
BRANCH  25  26
HETATM   26  C18 UNL     1       5.241 -30.268 -10.037  1.00  0.00     0.206 C
BRANCH  26  27
HETATM   27  O4  UNL     1       4.018 -30.651  -9.511  1.00  0.00    -0.309 OA
BRANCH  27  28
HETATM   28  C19 UNL     1       3.527 -30.196  -8.309  1.00  0.00     0.360 C
HETATM   29  O5  UNL     1       4.226 -30.331  -7.280  1.00  0.00    -0.252 OA
BRANCH  28  30
HETATM   30  C20 UNL     1       2.209 -29.558  -8.212  1.00  0.00     0.277 C
HETATM   31  O6  UNL     1       1.295 -30.081  -7.524  1.00  0.00    -0.640 OA
HETATM   32  O7  UNL     1       1.936 -28.375  -8.867  1.00  0.00    -0.640 OA
ENDBRANCH  28  30
ENDBRANCH  27  28
ENDBRANCH  26  27
ENDBRANCH  25  26
ENDBRANCH  10  24
TORSDOF 9
ENDMDL