MODEL 3
REMARK VINA RESULT: -8.544218122      2.010      2.665
REMARK  11 active torsions:
REMARK  status: ('A' for Active; 'I' for Inactive)
REMARK       I    between atoms: C1_2  and  N2_4
REMARK    1  A    between atoms: N2_4  and  C2_6
REMARK    2  A    between atoms: C2_6  and  O2_7
REMARK    3  A    between atoms: C2_6  and  C3_9
REMARK    4  A    between atoms: C3_9  and  O3_10
REMARK    5  A    between atoms: C3_9  and  C4_12
REMARK    6  A    between atoms: C4_12  and  C5_13
REMARK    7  A    between atoms: C16_25  and  O5_26
REMARK    8  A    between atoms: O5_26  and  C17_27
REMARK    9  A    between atoms: C17_27  and  C18_29
REMARK   10  A    between atoms: C18_29  and  C19_30
REMARK   11  A    between atoms: C19_30  and  N3_31
ROOT
HETATM    1  C5  UNL     1       3.104 -27.123 -13.300  1.00  0.00     0.025 C
HETATM    2  C6  UNL     1       4.437 -26.902 -13.896  1.00  0.00     0.007 C
HETATM    3  C7  UNL     1       4.613 -25.833 -14.924  1.00  0.00     0.000 C
HETATM    4  C8  UNL     1       5.711 -24.881 -14.419  1.00  0.00     0.000 C
HETATM    5  C9  UNL     1       7.084 -25.328 -14.642  1.00  0.00     0.000 C
HETATM    6  C10 UNL     1       7.685 -26.396 -13.831  1.00  0.00     0.000 C
HETATM    7  C11 UNL     1       8.062 -26.082 -12.427  1.00  0.00     0.000 C
HETATM    8  C12 UNL     1       8.183 -27.221 -11.498  1.00  0.00     0.000 C
HETATM    9  C13 UNL     1       7.104 -28.216 -11.425  1.00  0.00     0.007 C
HETATM   10  C14 UNL     1       5.818 -27.776 -10.805  1.00  0.00     0.081 C
HETATM   11  C15 UNL     1       4.674 -28.200 -11.663  1.00  0.00     0.156 C
HETATM   12  O4  UNL     1       4.836 -29.242 -12.281  1.00  0.00    -0.295 OA
HETATM   13  C16 UNL     1       3.405 -27.479 -11.816  1.00  0.00     0.205 C
ENDROOT
BRANCH   1  14
HETATM   14  C4  UNL     1       2.262 -28.228 -13.792  1.00  0.00     0.047 C
BRANCH  14  15
HETATM   15  C3  UNL     1       0.992 -27.857 -14.526  1.00  0.00     0.193 C
BRANCH  15  16
HETATM   16  C2  UNL     1      -0.178 -28.474 -13.925  1.00  0.00     0.148 C
BRANCH  16  17
HETATM   17  N2  UNL     1      -0.500 -28.709 -12.611  1.00  0.00    -0.293 N
HETATM   18  C1  UNL     1      -1.228 -29.733 -11.975  1.00  0.00     0.334 C
HETATM   19  N1  UNL     1      -1.403 -29.685 -10.530  1.00  0.00    -0.040 NA
HETATM   20  O1  UNL     1      -1.759 -30.706 -12.501  1.00  0.00    -0.251 OA
ATOM     21  H2  UNL     1      -0.140 -28.003 -11.969  1.00  0.00     0.172 HD
ENDBRANCH  16  17
BRANCH  16  22
HETATM   22  O2  UNL     1      -1.062 -28.868 -14.801  1.00  0.00    -0.347 OA
ATOM     23  H2  UNL     1      -1.827 -29.306 -14.445  1.00  0.00     0.219 HD
ENDBRANCH  16  22
ENDBRANCH  15  16
BRANCH  15  24
HETATM   24  O3  UNL     1       1.135 -28.275 -15.833  1.00  0.00    -0.387 OA
ATOM     25  H3  UNL     1       0.815 -29.164 -15.930  1.00  0.00     0.210 HD
ENDBRANCH  15  24
ENDBRANCH  14  15
ENDBRANCH   1  14
BRANCH  13  26
HETATM   26  O5  UNL     1       2.338 -28.257 -11.306  1.00  0.00    -0.308 OA
BRANCH  26  27
HETATM   27  C17 UNL     1       1.776 -28.065 -10.057  1.00  0.00     0.261 C
HETATM   28  O6  UNL     1       0.796 -27.299  -9.961  1.00  0.00    -0.265 OA
BRANCH  27  29
HETATM   29  C18 UNL     1       2.326 -28.757  -8.838  1.00  0.00     0.137 C
BRANCH  29  30
HETATM   30  C19 UNL     1       2.747 -30.157  -9.223  1.00  0.00     0.211 C
BRANCH  30  31
HETATM   31  N3  UNL     1       4.012 -30.423  -8.539  1.00  0.00    -0.155 N
HETATM   32  O7  UNL     1       4.122 -30.309  -7.302  1.00  0.00    -0.537 OA
HETATM   33  O8  UNL     1       5.127 -30.810  -9.235  1.00  0.00    -0.537 OA
ENDBRANCH  30  31
ENDBRANCH  29  30
ENDBRANCH  27  29
ENDBRANCH  26  27
ENDBRANCH  13  26
TORSDOF 11
ENDMDL