MODEL 2
REMARK VINA RESULT: -7.957603559      1.954      4.641
REMARK  10 active torsions:
REMARK  status: ('A' for Active; 'I' for Inactive)
REMARK    1  A    between atoms: C2_2  and  C3_3
REMARK    2  A    between atoms: C3_3  and  O1_4
REMARK    3  A    between atoms: C4_6  and  O2_7
REMARK    4  A    between atoms: C6_10  and  O3_11
REMARK    5  A    between atoms: O3_11  and  C7_12
REMARK    6  A    between atoms: C7_12  and  C8_14
REMARK    7  A    between atoms: C12_19  and  O6_20
REMARK    8  A    between atoms: C15_24  and  C16_25
REMARK    9  A    between atoms: C16_25  and  C17_26
REMARK   10  A    between atoms: C17_26  and  O7_27
ROOT
HETATM    1  C3  UNL     1       3.093 -29.584  -9.608  1.00  0.00     0.109 C
HETATM    2  C4  UNL     1       4.543 -29.475  -9.384  1.00  0.00     0.159 C
HETATM    3  C5  UNL     1       5.365 -30.024 -10.497  1.00  0.00     0.070 C
HETATM    4  C6  UNL     1       5.484 -29.285 -11.742  1.00  0.00     0.164 C
HETATM    5  C12 UNL     1       4.347 -28.565 -12.319  1.00  0.00     0.161 C
HETATM    6  C13 UNL     1       3.334 -27.895 -11.488  1.00  0.00     0.018 C
HETATM    7  C14 UNL     1       3.977 -26.774 -10.659  1.00  0.00     0.024 C
HETATM    8  C15 UNL     1       2.451 -27.085 -12.421  1.00  0.00    -0.070 C
HETATM    9  C19 UNL     1       1.231 -26.732 -12.084  1.00  0.00    -0.023 C
HETATM   10  C20 UNL     1       0.564 -27.068 -10.795  1.00  0.00     0.028 C
HETATM   11  C21 UNL     1       1.425 -27.910  -9.938  1.00  0.00     0.017 C
HETATM   12  C22 UNL     1       2.448 -28.765 -10.682  1.00  0.00     0.007 C
HETATM   13  C23 UNL     1       1.614 -29.632 -11.615  1.00  0.00     0.020 C
ENDROOT
BRANCH   4  14
HETATM   14  O3  UNL     1       6.600 -28.410 -11.682  1.00  0.00    -0.311 OA
BRANCH  14  15
HETATM   15  C7  UNL     1       7.147 -27.709 -12.706  1.00  0.00     0.288 C
HETATM   16  O4  UNL     1       7.671 -28.374 -13.647  1.00  0.00    -0.262 OA
BRANCH  15  17
HETATM   17  C8  UNL     1       7.192 -26.243 -12.826  1.00  0.00     0.221 C
HETATM   18  C9  UNL     1       6.787 -25.871 -14.235  1.00  0.00     0.044 C
HETATM   19  C10 UNL     1       7.404 -24.498 -14.384  1.00  0.00     0.029 C
HETATM   20  C11 UNL     1       8.218 -24.369 -13.099  1.00  0.00     0.169 C
HETATM   21  O5  UNL     1       8.449 -25.711 -12.713  1.00  0.00    -0.376 OA
ENDBRANCH  15  17
ENDBRANCH  14  15
ENDBRANCH   4  14
BRANCH   5  22
HETATM   22  O6  UNL     1       3.751 -29.533 -13.187  1.00  0.00    -0.392 OA
ATOM     23  H6  UNL     1       4.492 -29.880 -13.668  1.00  0.00     0.210 HD
ENDBRANCH   5  22
BRANCH   2  24
HETATM   24  O2  UNL     1       4.797 -30.420  -8.324  1.00  0.00    -0.392 OA
ATOM     25  H2  UNL     1       4.768 -29.888  -7.537  1.00  0.00     0.210 HD
ENDBRANCH   2  24
BRANCH   1  26
HETATM   26  C2  UNL     1       2.397 -29.547  -8.292  1.00  0.00     0.004 C
HETATM   27  C1  UNL     1       1.628 -30.508  -7.803  1.00  0.00     0.010 C
ENDBRANCH   1  26
BRANCH   1  28
HETATM   28  O1  UNL     1       2.917 -30.950 -10.001  1.00  0.00    -0.382 OA
ATOM     29  H1  UNL     1       2.473 -30.860 -10.837  1.00  0.00     0.211 HD
ENDBRANCH   1  28
BRANCH   8  30
HETATM   30  C16 UNL     1       2.986 -26.665 -13.729  1.00  0.00     0.061 C
BRANCH  30  31
HETATM   31  C17 UNL     1       2.018 -26.085 -14.701  1.00  0.00     0.171 C
BRANCH  31  32
HETATM   32  O7  UNL     1       2.191 -24.724 -14.947  1.00  0.00    -0.396 OA
HETATM   33  C18 UNL     1       0.986 -24.054 -14.842  1.00  0.00     0.201 C
ENDBRANCH  31  32
ENDBRANCH  30  31
ENDBRANCH   8  30
TORSDOF 10
ENDMDL