MODEL 5
REMARK VINA RESULT: -8.035790387      4.211      8.112
REMARK  14 active torsions:
REMARK  status: ('A' for Active; 'I' for Inactive)
REMARK    1  A    between atoms: C2_2  and  C3_3
REMARK    2  A    between atoms: C3_3  and  C4_4
REMARK    3  A    between atoms: C4_4  and  C5_5
REMARK    4  A    between atoms: C6_6  and  C7_7
REMARK    5  A    between atoms: C8_8  and  C9_9
REMARK    6  A    between atoms: C9_9  and  C10_10
REMARK    7  A    between atoms: C10_10  and  C11_11
REMARK    8  A    between atoms: C11_11  and  C12_12
REMARK    9  A    between atoms: C13_13  and  C14_14
REMARK   10  A    between atoms: N1_16  and  C16_17
REMARK   11  A    between atoms: C17_19  and  C18_20
REMARK   12  A    between atoms: C18_20  and  O2_21
REMARK   13  A    between atoms: C19_23  and  O3_24
REMARK   14  A    between atoms: C20_26  and  O4_27
ROOT
HETATM    1  C14 UNL     1       1.642 -26.601 -11.809  1.00  0.00     0.062 A
HETATM    2  C15 UNL     1       0.477 -25.912 -12.054  1.00  0.00     0.117 A
HETATM    3  N1  UNL     1       0.668 -25.222 -13.191  1.00  0.00    -0.323 N
HETATM    4  C21 UNL     1       1.902 -25.441 -13.678  1.00  0.00     0.080 A
HETATM    5  C22 UNL     1       2.590 -24.985 -14.797  1.00  0.00     0.121 A
HETATM    6  N2  UNL     1       3.846 -25.430 -14.970  1.00  0.00    -0.360 N
ATOM      7  H2  UNL     1       4.357 -25.101 -15.789  1.00  0.00     0.166 HD
HETATM    8  C23 UNL     1       4.465 -26.266 -14.149  1.00  0.00     0.180 A
HETATM    9  N3  UNL     1       3.810 -26.712 -13.067  1.00  0.00    -0.349 N
ATOM     10  H3  UNL     1       4.265 -27.358 -12.422  1.00  0.00     0.166 HD
HETATM   11  C24 UNL     1       2.529 -26.297 -12.835  1.00  0.00     0.082 A
ENDROOT
BRANCH   1  12
HETATM   12  C13 UNL     1       1.907 -27.485 -10.687  1.00  0.00    -0.063 C
HETATM   13  C12 UNL     1       2.138 -28.232  -9.767  1.00  0.00    -0.101 C
BRANCH  13  14
HETATM   14  C11 UNL     1       2.429 -29.155  -8.669  1.00  0.00     0.095 C
BRANCH  14  15
HETATM   15  C10 UNL     1       2.571 -30.587  -9.203  1.00  0.00     0.024 C
BRANCH  15  16
HETATM   16  C9  UNL     1       4.041 -31.007  -9.067  1.00  0.00     0.096 C
BRANCH  16  17
HETATM   17  C8  UNL     1       4.886 -30.196  -9.946  1.00  0.00    -0.092 C
HETATM   18  C7  UNL     1       5.579 -29.508 -10.661  1.00  0.00    -0.015 C
BRANCH  18  19
HETATM   19  C6  UNL     1       6.393 -28.680 -11.486  1.00  0.00    -0.015 C
HETATM   20  C5  UNL     1       7.099 -27.974 -12.174  1.00  0.00    -0.092 C
BRANCH  20  21
HETATM   21  C4  UNL     1       7.961 -27.112 -12.983  1.00  0.00     0.095 C
BRANCH  21  22
HETATM   22  C3  UNL     1       8.533 -25.975 -12.165  1.00  0.00     0.012 C
BRANCH  22  23
HETATM   23  C2  UNL     1       8.328 -24.640 -12.817  1.00  0.00    -0.004 C
HETATM   24  C1  UNL     1       7.666 -24.742 -14.167  1.00  0.00     0.005 C
ENDBRANCH  22  23
ENDBRANCH  21  22
ENDBRANCH  20  21
ENDBRANCH  18  19
ENDBRANCH  16  17
ENDBRANCH  15  16
ENDBRANCH  14  15
ENDBRANCH  13  14
ENDBRANCH   1  12
BRANCH   3  25
HETATM   25  C16 UNL     1      -0.310 -24.365 -13.804  1.00  0.00     0.259 C
HETATM   26  O1  UNL     1       0.198 -23.119 -14.160  1.00  0.00    -0.353 OA
HETATM   27  C17 UNL     1      -0.834 -22.601 -14.932  1.00  0.00     0.179 C
HETATM   28  C19 UNL     1      -1.104 -23.709 -15.912  1.00  0.00     0.182 C
HETATM   29  C20 UNL     1      -0.925 -24.949 -15.046  1.00  0.00     0.198 C
BRANCH  27  30
HETATM   30  C18 UNL     1      -0.425 -21.319 -15.625  1.00  0.00     0.198 C
BRANCH  30  31
HETATM   31  O2  UNL     1       0.020 -20.438 -14.616  1.00  0.00    -0.398 OA
ATOM     32  H2  UNL     1      -0.674 -19.804 -14.483  1.00  0.00     0.209 HD
ENDBRANCH  30  31
ENDBRANCH  27  30
BRANCH  28  33
HETATM   33  O3  UNL     1      -2.407 -23.603 -16.397  1.00  0.00    -0.390 OA
ATOM     34  H3  UNL     1      -2.393 -23.528 -17.343  1.00  0.00     0.210 HD
ENDBRANCH  28  33
BRANCH  29  35
HETATM   35  O4  UNL     1      -2.196 -25.464 -14.813  1.00  0.00    -0.388 OA
ATOM     36  H4  UNL     1      -2.678 -25.613 -15.619  1.00  0.00     0.210 HD
ENDBRANCH  29  35
ENDBRANCH   3  25
TORSDOF 14
ENDMDL