MODEL 4
REMARK VINA RESULT: -7.934592329      2.147      4.476
REMARK  8 active torsions:
REMARK  status: ('A' for Active; 'I' for Inactive)
REMARK    1  A    between atoms: C2_2  and  O1_3
REMARK    2  A    between atoms: O1_3  and  C3_4
REMARK    3  A    between atoms: C3_4  and  C4_6
REMARK    4  A    between atoms: C4_6  and  C5_7
REMARK    5  A    between atoms: C5_7  and  N1_8
REMARK       I    between atoms: N1_8  and  C6_10
REMARK    6  A    between atoms: C6_10  and  O4_12
REMARK    7  A    between atoms: O4_12  and  C7_13
REMARK    8  A    between atoms: C17_24  and  N2_25
REMARK       I    between atoms: N2_25  and  C18_27
ROOT
HETATM    1  C7  UNL     1       2.067 -28.486 -11.192  1.00  0.00     0.103 C
HETATM    2  C8  UNL     1       2.314 -27.958  -9.818  1.00  0.00     0.073 C
HETATM    3  C9  UNL     1       2.757 -28.914  -8.778  1.00  0.00     0.124 C
HETATM    4  C10 UNL     1       3.696 -29.911  -9.311  1.00  0.00     0.037 C
HETATM    5  C11 UNL     1       3.344 -30.471 -10.649  1.00  0.00    -0.001 C
HETATM    6  C12 UNL     1       2.168 -31.353 -10.685  1.00  0.00     0.012 C
HETATM    7  C13 UNL     1       0.848 -30.654 -10.572  1.00  0.00     0.017 C
HETATM    8  C14 UNL     1       0.329 -30.838  -9.179  1.00  0.00     0.011 C
HETATM    9  C15 UNL     1      -0.151 -32.290  -9.000  1.00  0.00     0.012 C
HETATM   10  C16 UNL     1       1.316 -30.621  -8.078  1.00  0.00     0.172 C
HETATM   11  O5  UNL     1       1.693 -29.337  -8.055  1.00  0.00    -0.385 OA
HETATM   12  C17 UNL     1       0.745 -29.330 -11.166  1.00  0.00     0.128 C
HETATM   13  C19 UNL     1       3.132 -29.362 -11.676  1.00  0.00    -0.010 C
HETATM   14  C20 UNL     1       4.501 -28.788 -11.875  1.00  0.00     0.018 C
HETATM   15  C21 UNL     1       2.829 -30.025 -13.013  1.00  0.00     0.018 C
ENDROOT
BRANCH   1  16
HETATM   16  O4  UNL     1       1.696 -27.535 -12.109  1.00  0.00    -0.290 OA
BRANCH  16  17
HETATM   17  C6  UNL     1       2.252 -26.477 -12.684  1.00  0.00     0.361 C
HETATM   18  N1  UNL     1       2.809 -26.541 -13.992  1.00  0.00    -0.336 N
ATOM     19  H1  UNL     1       2.783 -27.421 -14.506  1.00  0.00     0.164 HD
HETATM   20  O3  UNL     1       2.251 -25.454 -12.014  1.00  0.00    -0.238 OA
BRANCH  18  21
HETATM   21  C5  UNL     1       3.412 -25.376 -14.604  1.00  0.00     0.134 C
BRANCH  21  22
HETATM   22  C4  UNL     1       4.838 -25.672 -15.003  1.00  0.00     0.131 C
BRANCH  22  23
HETATM   23  C3  UNL     1       5.777 -25.171 -13.963  1.00  0.00     0.260 C
HETATM   24  O2  UNL     1       5.346 -24.603 -12.926  1.00  0.00    -0.265 OA
BRANCH  23  25
HETATM   25  O1  UNL     1       7.142 -25.308 -14.090  1.00  0.00    -0.322 OA
BRANCH  25  26
HETATM   26  C2  UNL     1       8.078 -24.825 -13.160  1.00  0.00     0.174 C
HETATM   27  C1  UNL     1       8.499 -25.889 -12.182  1.00  0.00     0.034 C
ENDBRANCH  25  26
ENDBRANCH  23  25
ENDBRANCH  22  23
ENDBRANCH  21  22
ENDBRANCH  18  21
ENDBRANCH  16  17
ENDBRANCH   1  16
BRANCH  12  28
HETATM   28  N2  UNL     1      -0.348 -28.529 -10.703  1.00  0.00    -0.327 N
HETATM   29  C18 UNL     1      -1.535 -28.387 -11.423  1.00  0.00     0.283 C
HETATM   30  O6  UNL     1      -1.714 -28.956 -12.526  1.00  0.00    -0.630 OA
HETATM   31  O7  UNL     1      -2.570 -27.607 -10.948  1.00  0.00    -0.630 OA
ATOM     32  H2  UNL     1      -0.255 -28.043  -9.811  1.00  0.00     0.166 HD
ENDBRANCH  12  28
TORSDOF 8
ENDMDL