MODEL 4
REMARK VINA RESULT: -9.336842810      4.590      6.456
REMARK  10 active torsions:
REMARK  status: ('A' for Active; 'I' for Inactive)
REMARK    1  A    between atoms: C2_2  and  O2_4
REMARK    2  A    between atoms: O2_4  and  C3_5
REMARK    3  A    between atoms: C3_5  and  C4_6
REMARK    4  A    between atoms: C3_5  and  C20_35
REMARK    5  A    between atoms: C5_7  and  C6_8
REMARK    6  A    between atoms: C10_12  and  C11_13
REMARK    7  A    between atoms: N1_14  and  N2_16
REMARK       I    between atoms: C12_18  and  N4_20
REMARK    8  A    between atoms: N4_20  and  O3_22
REMARK    9  A    between atoms: C14_25  and  O4_26
REMARK   10  A    between atoms: C16_29  and  O5_30
ROOT
HETATM    1  C6  UNL     1       4.111 -29.181 -11.812  1.00  0.00     0.024 C
HETATM    2  C7  UNL     1       4.368 -29.231 -10.321  1.00  0.00     0.044 C
HETATM    3  C8  UNL     1       3.774 -30.614  -9.932  1.00  0.00    -0.071 C
HETATM    4  C9  UNL     1       4.651 -31.593  -9.319  1.00  0.00     0.044 C
HETATM    5  C10 UNL     1       2.516 -30.767 -10.227  1.00  0.00    -0.012 C
HETATM    6  C13 UNL     1       1.891 -29.581 -10.879  1.00  0.00    -0.030 C
HETATM    7  C14 UNL     1       0.426 -29.683 -11.155  1.00  0.00     0.151 C
HETATM    8  C15 UNL     1      -0.092 -28.327 -11.474  1.00  0.00     0.068 C
HETATM    9  C16 UNL     1       0.860 -27.217 -11.639  1.00  0.00     0.122 C
HETATM   10  C17 UNL     1       2.272 -27.487 -11.952  1.00  0.00     0.046 C
HETATM   11  C18 UNL     1       2.610 -28.964 -12.008  1.00  0.00    -0.008 C
HETATM   12  C19 UNL     1       2.323 -29.425 -13.393  1.00  0.00     0.021 C
ENDROOT
BRANCH   5  13
HETATM   13  C11 UNL     1       1.791 -31.975  -9.960  1.00  0.00     0.119 C
HETATM   14  N1  UNL     1       0.774 -32.389  -9.448  1.00  0.00    -0.309 N
ATOM     15  H1  UNL     1       0.796 -33.402  -9.568  1.00  0.00     0.186 HD
BRANCH  14  16
HETATM   16  N2  UNL     1      -0.350 -32.129  -8.806  1.00  0.00    -0.272 N
HETATM   17  C12 UNL     1      -1.483 -32.338  -9.481  1.00  0.00     0.227 C
HETATM   18  N3  UNL     1      -2.643 -32.026  -8.688  1.00  0.00    -0.060 NA
HETATM   19  N4  UNL     1      -1.462 -32.809 -10.764  1.00  0.00    -0.240 N
ATOM     20  H4  UNL     1      -0.760 -33.506 -11.013  1.00  0.00     0.197 HD
ATOM     21  H2  UNL     1      -0.353 -31.788  -7.846  1.00  0.00     0.189 HD
BRANCH  19  22
HETATM   22  O3  UNL     1      -2.251 -32.435 -11.640  1.00  0.00    -0.287 OA
ATOM     23  H3  UNL     1      -2.071 -31.715 -12.233  1.00  0.00     0.244 HD
ENDBRANCH  19  22
ENDBRANCH  14  16
ENDBRANCH   5  13
BRANCH   7  24
HETATM   24  O4  UNL     1       0.074 -30.572 -12.164  1.00  0.00    -0.391 OA
ATOM     25  H4  UNL     1      -0.776 -30.418 -12.561  1.00  0.00     0.210 HD
ENDBRANCH   7  24
BRANCH   1  26
HETATM   26  C5  UNL     1       4.899 -28.168 -12.499  1.00  0.00    -0.022 C
HETATM   27  C4  UNL     1       5.959 -27.553 -11.983  1.00  0.00     0.002 C
BRANCH  27  28
HETATM   28  C3  UNL     1       6.656 -26.529 -12.811  1.00  0.00     0.157 C
BRANCH  28  29
HETATM   29  O2  UNL     1       6.331 -26.579 -14.149  1.00  0.00    -0.312 OA
BRANCH  29  30
HETATM   30  C2  UNL     1       5.685 -25.542 -14.883  1.00  0.00     0.255 C
HETATM   31  C1  UNL     1       4.244 -25.622 -15.129  1.00  0.00     0.126 C
HETATM   32  O1  UNL     1       6.382 -24.610 -15.268  1.00  0.00    -0.266 OA
ENDBRANCH  29  30
ENDBRANCH  28  29
BRANCH  28  33
HETATM   33  C20 UNL     1       8.141 -26.443 -12.586  1.00  0.00     0.011 C
HETATM   34  C21 UNL     1       8.518 -24.961 -12.571  1.00  0.00     0.012 C
HETATM   35  C22 UNL     1       8.527 -27.113 -11.274  1.00  0.00     0.012 C
ENDBRANCH  28  33
ENDBRANCH  27  28
ENDBRANCH   1  26
BRANCH   9  36
HETATM   36  O5  UNL     1       0.811 -26.462 -10.437  1.00  0.00    -0.395 OA
ATOM     37  H5  UNL     1       1.590 -25.918 -10.427  1.00  0.00     0.210 HD
ENDBRANCH   9  36
TORSDOF 10
ENDMDL