MODEL 2
REMARK VINA RESULT: -8.353444634      1.542      2.031
REMARK  9 active torsions:
REMARK  status: ('A' for Active; 'I' for Inactive)
REMARK    1  A    between atoms: S1_3  and  C2_4
REMARK    2  A    between atoms: C2_4  and  C3_5
REMARK    3  A    between atoms: C3_5  and  O1_6
REMARK    4  A    between atoms: C3_5  and  C4_8
REMARK    5  A    between atoms: C4_8  and  N2_9
REMARK    6  A    between atoms: C7_12  and  O2_13
REMARK    7  A    between atoms: O2_13  and  C8_14
REMARK       I    between atoms: C8_14  and  N3_16
REMARK    8  A    between atoms: N3_16  and  C9_18
REMARK    9  A    between atoms: C17_26  and  O4_27
ROOT
HETATM    1  N1  UNL     1       6.721 -30.186 -10.032  1.00  0.00    -0.184 NA
HETATM    2  C1  UNL     1       5.632 -30.013 -10.394  1.00  0.00     0.133 C
HETATM    3  S1  UNL     1       3.962 -29.772 -10.944  1.00  0.00    -0.048 SA
ENDROOT
BRANCH   3   4
HETATM    4  C2  UNL     1       3.291 -28.355 -10.070  1.00  0.00     0.123 C
BRANCH   4   5
HETATM    5  C3  UNL     1       1.858 -28.527  -9.665  1.00  0.00     0.156 C
BRANCH   5   6
HETATM    6  O1  UNL     1       1.811 -29.003  -8.370  1.00  0.00    -0.393 OA
ATOM      7  H1  UNL     1       2.493 -29.655  -8.255  1.00  0.00     0.210 HD
ENDBRANCH   5   6
BRANCH   5   8
HETATM    8  C4  UNL     1       1.122 -29.450 -10.585  1.00  0.00     0.304 C
BRANCH   8   9
HETATM    9  N2  UNL     1       0.108 -28.799 -11.364  1.00  0.00     0.091 N
HETATM   10  C5  UNL     1       0.032 -27.372 -11.118  1.00  0.00     0.275 C
HETATM   11  C6  UNL     1      -0.445 -26.644 -12.384  1.00  0.00     0.063 C
HETATM   12  C7  UNL     1       0.626 -26.738 -13.460  1.00  0.00     0.137 C
HETATM   13  C20 UNL     1       1.350 -28.040 -13.267  1.00  0.00     0.063 C
HETATM   14  C21 UNL     1       0.337 -29.056 -12.783  1.00  0.00     0.275 C
BRANCH  12  15
HETATM   15  O2  UNL     1       1.450 -25.615 -13.466  1.00  0.00    -0.299 OA
BRANCH  15  16
HETATM   16  C8  UNL     1       2.661 -25.452 -12.859  1.00  0.00     0.361 C
HETATM   17  O3  UNL     1       2.614 -25.058 -11.648  1.00  0.00    -0.238 OA
HETATM   18  N3  UNL     1       3.911 -25.680 -13.460  1.00  0.00    -0.332 N
ATOM     19  H3  UNL     1       3.928 -25.995 -14.430  1.00  0.00     0.165 HD
BRANCH  18  20
HETATM   20  C9  UNL     1       5.181 -25.493 -12.780  1.00  0.00     0.091 C
HETATM   21  C10 UNL     1       6.016 -24.571 -13.562  1.00  0.00     0.030 C
HETATM   22  C11 UNL     1       7.436 -24.935 -13.803  1.00  0.00    -0.009 C
HETATM   23  C12 UNL     1       8.254 -25.082 -12.553  1.00  0.00     0.009 C
HETATM   24  C19 UNL     1       7.545 -26.083 -14.751  1.00  0.00     0.042 C
HETATM   25  C13 UNL     1       8.228 -26.483 -12.000  1.00  0.00    -0.011 C
HETATM   26  C14 UNL     1       6.881 -26.745 -11.416  1.00  0.00     0.011 C
HETATM   27  C18 UNL     1       8.540 -27.513 -13.041  1.00  0.00     0.042 C
HETATM   28  C15 UNL     1       5.773 -26.833 -12.438  1.00  0.00     0.012 C
HETATM   29  C16 UNL     1       6.116 -27.682 -13.623  1.00  0.00     0.044 C
HETATM   30  C17 UNL     1       7.515 -27.438 -14.131  1.00  0.00     0.059 C
BRANCH  30  31
HETATM   31  O4  UNL     1       7.819 -28.384 -15.092  1.00  0.00    -0.390 OA
ATOM     32  H4  UNL     1       8.547 -28.071 -15.616  1.00  0.00     0.210 HD
ENDBRANCH  30  31
ENDBRANCH  18  20
ENDBRANCH  15  16
ENDBRANCH  12  15
ENDBRANCH   8   9
ENDBRANCH   5   8
ENDBRANCH   4   5
ENDBRANCH   3   4
TORSDOF 9
ENDMDL