MODEL 4
REMARK VINA RESULT: -8.223650478      2.939      6.008
REMARK  11 active torsions:
REMARK  status: ('A' for Active; 'I' for Inactive)
REMARK    1  A    between atoms: O1_2  and  C2_3
REMARK    2  A    between atoms: C2_3  and  C3_4
REMARK    3  A    between atoms: C2_3  and  C25_36
REMARK    4  A    between atoms: C3_4  and  C4_5
REMARK    5  A    between atoms: C5_6  and  C6_7
REMARK    6  A    between atoms: C6_7  and  C7_8
REMARK    7  A    between atoms: C7_8  and  O2_9
REMARK    8  A    between atoms: C7_8  and  C8_11
REMARK    9  A    between atoms: C8_11  and  O3_12
REMARK   10  A    between atoms: C8_11  and  C9_14
REMARK   11  A    between atoms: C18_23  and  S1_24
ROOT
HETATM    1  C9  UNL     1      -6.633 103.185 274.182  1.00  0.00     0.025 C
HETATM    2  C10 UNL     1      -5.925 102.519 273.055  1.00  0.00     0.008 C
HETATM    3  C11 UNL     1      -5.112 103.623 272.358  1.00  0.00     0.006 C
HETATM    4  C12 UNL     1      -5.594 104.868 273.055  1.00  0.00     0.001 C
HETATM    5  C13 UNL     1      -4.703 106.041 272.960  1.00  0.00     0.027 C
HETATM    6  C14 UNL     1      -5.065 106.786 271.664  1.00  0.00     0.008 C
HETATM    7  C15 UNL     1      -6.361 107.476 271.979  1.00  0.00     0.007 C
HETATM    8  C16 UNL     1      -6.330 107.708 273.469  1.00  0.00     0.025 C
HETATM    9  C17 UNL     1      -6.142 109.184 273.708  1.00  0.00     0.056 C
HETATM   10  C18 UNL     1      -4.651 109.338 273.598  1.00  0.00     0.307 C
HETATM   11  N1  UNL     1      -4.067 108.125 274.075  1.00  0.00    -0.048 N
ATOM     12  H11 UNL     1      -3.679 108.217 275.013  1.00  0.00     0.279 HD
ATOM     13  H12 UNL     1      -3.201 107.886 273.592  1.00  0.00     0.279 HD
HETATM   14  C20 UNL     1      -5.070 107.077 273.982  1.00  0.00     0.135 C
HETATM   15  C21 UNL     1      -5.272 106.532 275.366  1.00  0.00     0.040 C
HETATM   16  C22 UNL     1      -6.266 105.371 275.369  1.00  0.00     0.012 C
HETATM   17  C23 UNL     1      -5.703 104.309 274.501  1.00  0.00    -0.034 C
HETATM   18  C24 UNL     1      -4.327 103.894 274.947  1.00  0.00     0.016 C
ENDROOT
BRANCH   1  19
HETATM   19  C8  UNL     1      -7.175 102.395 275.272  1.00  0.00     0.152 C
BRANCH  19  20
HETATM   20  C7  UNL     1      -7.938 103.004 276.365  1.00  0.00     0.150 C
BRANCH  20  21
HETATM   21  C6  UNL     1      -9.068 103.844 275.842  1.00  0.00     0.061 C
BRANCH  21  22
HETATM   22  C5  UNL     1     -10.057 104.321 276.795  1.00  0.00    -0.028 C
HETATM   23  C4  UNL     1      -9.922 105.396 277.550  1.00  0.00    -0.027 C
BRANCH  23  24
HETATM   24  C3  UNL     1      -8.753 106.294 277.561  1.00  0.00     0.070 C
BRANCH  24  25
HETATM   25  C2  UNL     1      -9.186 107.756 277.365  1.00  0.00     0.224 C
BRANCH  25  26
HETATM   26  O1  UNL     1     -10.383 108.007 278.005  1.00  0.00    -0.380 OA
HETATM   27  C1  UNL     1     -11.120 108.867 277.195  1.00  0.00     0.202 C
ENDBRANCH  25  26
BRANCH  25  28
HETATM   28  C25 UNL     1      -8.132 108.590 278.000  1.00  0.00     0.203 C
HETATM   29  O6  UNL     1      -7.013 108.695 277.422  1.00  0.00    -0.646 OA
HETATM   30  O7  UNL     1      -8.325 109.252 279.189  1.00  0.00    -0.646 OA
ENDBRANCH  25  28
ENDBRANCH  24  25
ENDBRANCH  23  24
ENDBRANCH  21  22
ENDBRANCH  20  21
BRANCH  20  31
HETATM   31  O2  UNL     1      -8.388 102.034 277.277  1.00  0.00    -0.393 OA
ATOM     32  H2  UNL     1      -8.267 102.315 278.177  1.00  0.00     0.210 HD
ENDBRANCH  20  31
ENDBRANCH  19  20
BRANCH  19  33
HETATM   33  O3  UNL     1      -6.146 101.593 275.841  1.00  0.00    -0.393 OA
ATOM     34  H3  UNL     1      -5.311 102.005 275.656  1.00  0.00     0.210 HD
ENDBRANCH  19  33
ENDBRANCH   1  19
BRANCH  10  35
HETATM   35  S1  UNL     1      -4.185 110.753 274.569  1.00  0.00     0.170 S
HETATM   36  C19 UNL     1      -4.943 112.177 273.774  1.00  0.00     0.163 C
HETATM   37  O4  UNL     1      -4.701 110.684 275.961  1.00  0.00    -0.226 OA
HETATM   38  O5  UNL     1      -2.695 110.861 274.551  1.00  0.00    -0.226 OA
ENDBRANCH  10  35
TORSDOF 11
ENDMDL