MODEL 2
REMARK VINA RESULT: -8.781653467      4.224      6.511
REMARK  10 active torsions:
REMARK  status: ('A' for Active; 'I' for Inactive)
REMARK    1  A    between atoms: O1_2  and  C2_3
REMARK    2  A    between atoms: C4_5  and  C5_6
REMARK    3  A    between atoms: C5_6  and  O2_7
REMARK    4  A    between atoms: C13_19  and  C15_21
REMARK    5  A    between atoms: C15_21  and  C16_22
REMARK    6  A    between atoms: C17_23  and  C19_25
REMARK    7  A    between atoms: C19_25  and  C20_26
REMARK    8  A    between atoms: C20_26  and  C21_27
REMARK    9  A    between atoms: C25_31  and  O6_33
REMARK   10  A    between atoms: C28_37  and  O8_38
ROOT
HETATM    1  C2  UNL     1     -11.403 111.504 277.901  1.00  0.00     0.115 C
HETATM    2  C3  UNL     1     -12.112 111.483 276.568  1.00  0.00     0.052 C
HETATM    3  C4  UNL     1      -9.914 111.712 277.704  1.00  0.00     0.189 C
HETATM    4  O3  UNL     1      -9.338 110.654 276.966  1.00  0.00    -0.337 OA
HETATM    5  C6  UNL     1      -9.643 109.358 277.320  1.00  0.00     0.113 A
HETATM    6  C7  UNL     1     -10.737 109.104 278.094  1.00  0.00     0.010 A
HETATM    7  C8  UNL     1     -11.046 107.795 278.450  1.00  0.00     0.014 A
HETATM    8  C9  UNL     1     -10.263 106.741 278.033  1.00  0.00     0.019 A
HETATM    9  C10 UNL     1      -9.145 106.972 277.244  1.00  0.00     0.052 A
HETATM   10  C11 UNL     1      -8.859 108.277 276.904  1.00  0.00     0.121 A
HETATM   11  O4  UNL     1      -7.714 108.292 276.120  1.00  0.00    -0.300 OA
HETATM   12  C12 UNL     1      -7.195 107.016 275.951  1.00  0.00     0.272 A
HETATM   13  O5  UNL     1      -5.848 106.847 276.237  1.00  0.00    -0.331 OA
HETATM   14  C13 UNL     1      -5.401 106.667 274.920  1.00  0.00     0.101 C
HETATM   15  C14 UNL     1      -4.743 107.850 274.304  1.00  0.00     0.050 C
HETATM   16  C25 UNL     1      -6.887 106.603 274.533  1.00  0.00     0.150 C
HETATM   17  C26 UNL     1      -7.301 107.556 273.470  1.00  0.00     0.055 C
HETATM   18  C27 UNL     1      -8.125 106.126 276.641  1.00  0.00     0.228 A
HETATM   19  O7  UNL     1      -8.103 104.849 276.732  1.00  0.00    -0.286 OA
HETATM   20  C28 UNL     1     -11.603 110.182 278.568  1.00  0.00     0.191 C
ENDROOT
BRANCH  16  21
HETATM   21  O6  UNL     1      -7.360 105.332 274.291  1.00  0.00    -0.381 OA
ATOM     22  H6  UNL     1      -8.129 105.366 273.734  1.00  0.00     0.211 HD
ENDBRANCH  16  21
BRANCH  14  23
HETATM   23  C15 UNL     1      -4.795 105.322 274.740  1.00  0.00     0.068 C
BRANCH  23  24
HETATM   24  C16 UNL     1      -3.882 105.149 273.624  1.00  0.00    -0.021 C
HETATM   25  C17 UNL     1      -3.998 104.564 272.480  1.00  0.00    -0.087 C
HETATM   26  C18 UNL     1      -2.861 104.550 271.517  1.00  0.00     0.043 C
BRANCH  25  27
HETATM   27  C19 UNL     1      -5.241 103.904 272.053  1.00  0.00     0.037 C
BRANCH  27  28
HETATM   28  C20 UNL     1      -5.282 102.412 272.255  1.00  0.00     0.031 C
BRANCH  28  29
HETATM   29  C21 UNL     1      -5.952 101.980 273.495  1.00  0.00    -0.024 C
HETATM   30  C22 UNL     1      -5.253 101.583 274.527  1.00  0.00    -0.091 C
HETATM   31  C23 UNL     1      -5.992 101.151 275.776  1.00  0.00     0.042 C
HETATM   32  C24 UNL     1      -3.780 101.496 274.605  1.00  0.00     0.042 C
ENDBRANCH  28  29
ENDBRANCH  27  28
ENDBRANCH  25  27
ENDBRANCH  23  24
ENDBRANCH  14  23
BRANCH   3  33
HETATM   33  C5  UNL     1      -9.598 113.060 277.107  1.00  0.00     0.199 C
BRANCH  33  34
HETATM   34  O2  UNL     1      -9.408 113.978 278.137  1.00  0.00    -0.398 OA
ATOM     35  H2  UNL     1     -10.128 114.598 278.135  1.00  0.00     0.209 HD
ENDBRANCH  33  34
ENDBRANCH   3  33
BRANCH  20  36
HETATM   36  O8  UNL     1     -11.409 110.268 279.965  1.00  0.00    -0.388 OA
ATOM     37  H8  UNL     1     -10.948 109.509 280.302  1.00  0.00     0.210 HD
ENDBRANCH  20  36
BRANCH   1  38
HETATM   38  O1  UNL     1     -11.854 112.501 278.743  1.00  0.00    -0.380 OA
HETATM   39  C1  UNL     1     -13.096 112.996 278.438  1.00  0.00     0.202 C
ENDBRANCH   1  38
TORSDOF 10
ENDMDL