MODEL 5
REMARK VINA RESULT: -7.653766979      2.084      7.806
REMARK  14 active torsions:
REMARK  status: ('A' for Active; 'I' for Inactive)
REMARK    1  A    between atoms: C4_5  and  O2_6
REMARK    2  A    between atoms: C10_13  and  C11_14
REMARK    3  A    between atoms: C11_14  and  O3_15
REMARK    4  A    between atoms: C14_19  and  C15_20
REMARK    5  A    between atoms: C15_20  and  O4_21
REMARK    6  A    between atoms: C15_20  and  C16_23
REMARK    7  A    between atoms: C16_23  and  C17_24
REMARK    8  A    between atoms: C17_24  and  C19_26
REMARK    9  A    between atoms: C19_26  and  C20_27
REMARK   10  A    between atoms: C20_27  and  O5_28
REMARK   11  A    between atoms: C20_27  and  C21_30
REMARK   12  A    between atoms: C21_30  and  C22_31
REMARK   13  A    between atoms: C22_31  and  O7_33
REMARK   14  A    between atoms: C27_38  and  O8_39
ROOT
HETATM    1  C1  UNL     1      -6.859 109.126 276.163  1.00  0.00     0.018 C
HETATM    2  C2  UNL     1      -5.736 109.038 275.502  1.00  0.00    -0.041 A
HETATM    3  C3  UNL     1      -4.614 107.933 275.681  1.00  0.00     0.174 A
HETATM    4  O1  UNL     1      -4.838 106.684 275.361  1.00  0.00    -0.350 OA
HETATM    5  C4  UNL     1      -5.303 105.507 275.106  1.00  0.00     0.265 C
HETATM    6  C5  UNL     1      -6.673 105.032 274.747  1.00  0.00     0.002 C
HETATM    7  C6  UNL     1      -6.711 103.477 274.776  1.00  0.00     0.020 C
HETATM    8  C7  UNL     1      -7.667 105.355 275.852  1.00  0.00     0.020 C
HETATM    9  C8  UNL     1      -7.156 105.396 273.403  1.00  0.00     0.018 C
HETATM   10  C9  UNL     1      -6.656 106.649 272.758  1.00  0.00     0.037 C
HETATM   11  C10 UNL     1      -5.213 106.614 272.413  1.00  0.00    -0.056 C
HETATM   12  C12 UNL     1      -4.289 107.522 272.656  1.00  0.00     0.009 C
HETATM   13  C13 UNL     1      -4.313 108.825 273.308  1.00  0.00    -0.054 C
HETATM   14  C14 UNL     1      -5.027 109.914 272.457  1.00  0.00     0.048 C
HETATM   15  C24 UNL     1      -5.052 111.224 273.110  1.00  0.00    -0.005 C
HETATM   16  C25 UNL     1      -6.504 111.741 272.999  1.00  0.00     0.011 C
HETATM   17  C26 UNL     1      -4.518 111.394 274.486  1.00  0.00     0.038 C
HETATM   18  C27 UNL     1      -3.722 110.305 275.085  1.00  0.00     0.138 C
HETATM   19  C28 UNL     1      -4.499 108.989 274.735  1.00  0.00     0.065 A
ENDROOT
BRANCH  14  20
HETATM   20  C15 UNL     1      -4.278 109.999 271.105  1.00  0.00     0.127 C
BRANCH  20  21
HETATM   21  O4  UNL     1      -5.192 110.039 270.038  1.00  0.00    -0.395 OA
ATOM     22  H4  UNL     1      -5.365 110.937 269.782  1.00  0.00     0.210 HD
ENDBRANCH  20  21
BRANCH  20  23
HETATM   23  C16 UNL     1      -3.306 111.110 271.029  1.00  0.00     0.037 C
BRANCH  23  24
HETATM   24  C17 UNL     1      -1.887 110.517 271.162  1.00  0.00    -0.014 C
HETATM   25  C18 UNL     1      -1.000 111.312 272.053  1.00  0.00     0.010 C
BRANCH  24  26
HETATM   26  C19 UNL     1      -1.278 110.319 269.817  1.00  0.00     0.036 C
BRANCH  26  27
HETATM   27  C20 UNL     1      -1.507 111.473 268.890  1.00  0.00     0.127 C
BRANCH  27  28
HETATM   28  O5  UNL     1      -1.833 111.136 267.594  1.00  0.00    -0.395 OA
ATOM     29  H5  UNL     1      -2.287 111.809 267.100  1.00  0.00     0.210 HD
ENDBRANCH  27  28
BRANCH  27  30
HETATM   30  C21 UNL     1      -0.253 112.341 268.930  1.00  0.00     0.142 C
BRANCH  30  31
HETATM   31  C22 UNL     1       0.323 112.387 267.566  1.00  0.00     0.260 C
HETATM   32  O6  UNL     1       0.070 113.378 266.822  1.00  0.00    -0.265 OA
BRANCH  31  33
HETATM   33  O7  UNL     1       1.129 111.354 267.121  1.00  0.00    -0.326 OA
HETATM   34  C23 UNL     1       2.026 110.704 267.993  1.00  0.00     0.213 C
ENDBRANCH  31  33
ENDBRANCH  30  31
ENDBRANCH  27  30
ENDBRANCH  26  27
ENDBRANCH  24  26
ENDBRANCH  23  24
ENDBRANCH  20  23
ENDBRANCH  14  20
BRANCH  11  35
HETATM   35  C11 UNL     1      -4.819 105.356 271.651  1.00  0.00     0.198 C
BRANCH  35  36
HETATM   36  O3  UNL     1      -3.690 104.761 272.161  1.00  0.00    -0.397 OA
ATOM     37  H3  UNL     1      -3.060 105.393 272.486  1.00  0.00     0.209 HD
ENDBRANCH  35  36
ENDBRANCH  11  35
BRANCH  18  38
HETATM   38  O8  UNL     1      -2.430 110.181 274.665  1.00  0.00    -0.394 OA
ATOM     39  H8  UNL     1      -2.257 109.533 273.992  1.00  0.00     0.210 HD
ENDBRANCH  18  38
BRANCH   5  40
HETATM   40  O2  UNL     1      -4.439 104.532 275.166  1.00  0.00    -0.370 OA
ATOM     41  H2  UNL     1      -4.279 104.175 276.032  1.00  0.00     0.212 HD
ENDBRANCH   5  40
TORSDOF 14
ENDMDL