MODEL 1
REMARK VINA RESULT: -8.415367473      0.000      0.000
REMARK  13 active torsions:
REMARK  status: ('A' for Active; 'I' for Inactive)
REMARK    1  A    between atoms: C10_10  and  C11_11
REMARK    2  A    between atoms: C11_11  and  C13_13
REMARK    3  A    between atoms: C13_13  and  C15_15
REMARK    4  A    between atoms: C15_15  and  C16_16
REMARK    5  A    between atoms: C16_16  and  C17_17
REMARK    6  A    between atoms: C17_17  and  O1_18
REMARK    7  A    between atoms: C17_17  and  C18_20
REMARK    8  A    between atoms: C18_20  and  C20_22
REMARK    9  A    between atoms: C20_22  and  O3_24
REMARK   10  A    between atoms: C23_29  and  C24_30
REMARK   11  A    between atoms: C24_30  and  O6_31
REMARK   12  A    between atoms: C26_34  and  O7_35
REMARK   13  A    between atoms: C27_37  and  O8_38
ROOT
HETATM    1  C1  UNL     1      -5.460 112.025 272.921  1.00  0.00     0.017 C
HETATM    2  C2  UNL     1      -5.214 110.852 272.426  1.00  0.00    -0.058 C
HETATM    3  C3  UNL     1      -6.045 109.666 272.870  1.00  0.00     0.042 C
HETATM    4  C4  UNL     1      -5.471 109.157 274.140  1.00  0.00     0.015 C
HETATM    5  C5  UNL     1      -4.078 108.639 274.055  1.00  0.00    -0.006 C
HETATM    6  C6  UNL     1      -3.946 107.184 273.830  1.00  0.00     0.006 C
HETATM    7  C7  UNL     1      -4.846 106.311 274.704  1.00  0.00     0.013 C
HETATM    8  C8  UNL     1      -6.229 106.770 274.658  1.00  0.00     0.003 C
HETATM    9  C9  UNL     1      -6.688 106.721 273.184  1.00  0.00     0.019 C
HETATM   10  C10 UNL     1      -7.310 106.206 275.437  1.00  0.00     0.145 C
HETATM   11  O4  UNL     1      -8.020 107.383 275.930  1.00  0.00    -0.314 OA
HETATM   12  C22 UNL     1      -7.679 108.452 275.114  1.00  0.00     0.271 C
HETATM   13  O5  UNL     1      -8.497 109.263 274.657  1.00  0.00    -0.264 OA
HETATM   14  C23 UNL     1      -6.246 108.288 275.021  1.00  0.00     0.083 C
HETATM   15  C25 UNL     1      -3.132 109.420 273.195  1.00  0.00     0.039 C
HETATM   16  C26 UNL     1      -3.355 109.428 271.739  1.00  0.00     0.151 C
HETATM   17  C27 UNL     1      -4.089 110.759 271.420  1.00  0.00     0.175 C
ENDROOT
BRANCH  10  18
HETATM   18  C11 UNL     1      -7.389 105.068 276.312  1.00  0.00     0.015 C
HETATM   19  C12 UNL     1      -8.493 105.451 277.403  1.00  0.00     0.013 C
BRANCH  18  20
HETATM   20  C13 UNL     1      -8.053 103.779 275.804  1.00  0.00    -0.012 C
HETATM   21  C14 UNL     1      -8.804 103.812 274.558  1.00  0.00     0.010 C
BRANCH  20  22
HETATM   22  C15 UNL     1      -7.009 102.670 275.773  1.00  0.00     0.007 C
BRANCH  22  23
HETATM   23  C16 UNL     1      -6.089 102.837 274.624  1.00  0.00     0.033 C
BRANCH  23  24
HETATM   24  C17 UNL     1      -4.658 102.490 274.825  1.00  0.00     0.131 C
BRANCH  24  25
HETATM   25  O1  UNL     1      -4.456 101.690 275.966  1.00  0.00    -0.395 OA
ATOM     26  H1  UNL     1      -5.150 101.052 276.087  1.00  0.00     0.210 HD
ENDBRANCH  24  25
BRANCH  24  27
HETATM   27  C18 UNL     1      -3.836 102.043 273.695  1.00  0.00     0.110 C
HETATM   28  C19 UNL     1      -2.553 101.321 273.995  1.00  0.00     0.023 C
BRANCH  27  29
HETATM   29  C20 UNL     1      -3.431 103.255 272.884  1.00  0.00     0.264 C
HETATM   30  O2  UNL     1      -2.474 103.965 273.273  1.00  0.00    -0.265 OA
BRANCH  29  31
HETATM   31  O3  UNL     1      -4.089 103.597 271.731  1.00  0.00    -0.326 OA
HETATM   32  C21 UNL     1      -3.920 104.823 271.058  1.00  0.00     0.213 C
ENDBRANCH  29  31
ENDBRANCH  27  29
ENDBRANCH  24  27
ENDBRANCH  23  24
ENDBRANCH  22  23
ENDBRANCH  20  22
ENDBRANCH  18  20
ENDBRANCH  10  18
BRANCH  14  33
HETATM   33  C24 UNL     1      -5.723 108.514 276.439  1.00  0.00     0.185 C
BRANCH  33  34
HETATM   34  O6  UNL     1      -6.607 109.210 277.258  1.00  0.00    -0.400 OA
ATOM     35  H6  UNL     1      -6.825 108.752 278.062  1.00  0.00     0.209 HD
ENDBRANCH  33  34
ENDBRANCH  14  33
BRANCH  16  36
HETATM   36  O7  UNL     1      -2.125 109.531 271.075  1.00  0.00    -0.393 OA
ATOM     37  H7  UNL     1      -2.231 109.277 270.166  1.00  0.00     0.210 HD
ENDBRANCH  16  36
BRANCH  17  38
HETATM   38  O8  UNL     1      -4.653 110.573 270.162  1.00  0.00    -0.389 OA
ATOM     39  H8  UNL     1      -5.420 111.130 270.099  1.00  0.00     0.210 HD
ENDBRANCH  17  38
TORSDOF 13
ENDMDL