MODEL 5
REMARK VINA RESULT: -8.237502112      0.820      1.130
REMARK  12 active torsions:
REMARK  status: ('A' for Active; 'I' for Inactive)
REMARK    1  A    between atoms: C2_2  and  C3_3
REMARK    2  A    between atoms: C3_3  and  O1_4
REMARK    3  A    between atoms: O1_4  and  C4_5
REMARK    4  A    between atoms: C6_7  and  N1_8
REMARK    5  A    between atoms: C9_13  and  N3_14
REMARK    6  A    between atoms: N3_14  and  C10_16
REMARK    7  A    between atoms: C17_25  and  N5_26
REMARK    8  A    between atoms: N5_26  and  C18_28
REMARK    9  A    between atoms: C18_28  and  C19_29
REMARK   10  A    between atoms: C19_29  and  O2_31
REMARK   11  A    between atoms: C24_39  and  C25_40
REMARK   12  A    between atoms: C25_40  and  O4_42
ROOT
HETATM    1  N1  UNL     1      -7.620 107.621 276.463  1.00  0.00    -0.320 N
HETATM    2  C7  UNL     1      -8.204 106.415 276.468  1.00  0.00     0.185 A
HETATM    3  N2  UNL     1      -7.348 105.493 275.965  1.00  0.00    -0.346 N
ATOM      4  H2  UNL     1      -7.555 104.499 275.861  1.00  0.00     0.167 HD
HETATM    5  C8  UNL     1      -6.205 106.067 275.626  1.00  0.00     0.123 A
HETATM    6  C9  UNL     1      -5.022 105.636 275.085  1.00  0.00     0.148 A
HETATM    7  N4  UNL     1      -4.040 106.561 274.871  1.00  0.00    -0.175 N
ATOM      8  H4  UNL     1      -3.156 106.252 274.468  1.00  0.00     0.186 HD
HETATM    9  C17 UNL     1      -4.192 107.858 275.169  1.00  0.00     0.681 A
HETATM   10  N6  UNL     1      -5.359 108.260 275.699  1.00  0.00    -0.174 N
ATOM     11  H6  UNL     1      -5.472 109.247 275.925  1.00  0.00     0.186 HD
HETATM   12  C21 UNL     1      -6.394 107.422 275.948  1.00  0.00     0.155 A
ENDROOT
BRANCH   1  13
HETATM   13  C6  UNL     1      -8.117 108.922 276.896  1.00  0.00     0.123 C
HETATM   14  C5  UNL     1      -8.567 108.938 278.316  1.00  0.00     0.063 C
HETATM   15  C4  UNL     1     -10.005 109.264 278.546  1.00  0.00     0.154 C
HETATM   16  C24 UNL     1     -10.643 110.090 277.451  1.00  0.00     0.179 C
HETATM   17  O3  UNL     1      -9.762 110.538 276.495  1.00  0.00    -0.374 OA
HETATM   18  C22 UNL     1      -9.170 109.407 275.928  1.00  0.00     0.141 C
HETATM   19  C23 UNL     1      -8.532 109.799 274.629  1.00  0.00     0.041 C
BRANCH  15  20
HETATM   20  O1  UNL     1     -10.751 108.124 278.829  1.00  0.00    -0.383 OA
BRANCH  20  21
HETATM   21  C3  UNL     1     -11.606 107.873 277.771  1.00  0.00     0.168 C
BRANCH  21  22
HETATM   22  C2  UNL     1     -12.385 106.589 277.962  1.00  0.00     0.022 C
HETATM   23  C1  UNL     1     -11.470 105.402 277.954  1.00  0.00     0.007 C
ENDBRANCH  21  22
ENDBRANCH  20  21
ENDBRANCH  15  20
BRANCH  16  24
HETATM   24  C25 UNL     1     -11.401 111.284 277.993  1.00  0.00     0.145 C
HETATM   25  C26 UNL     1     -10.502 112.495 277.782  1.00  0.00     0.042 C
BRANCH  24  26
HETATM   26  O4  UNL     1     -11.542 111.119 279.369  1.00  0.00    -0.393 OA
ATOM     27  H4  UNL     1     -11.437 111.968 279.780  1.00  0.00     0.210 HD
ENDBRANCH  24  26
ENDBRANCH  16  24
ENDBRANCH   1  13
BRANCH   6  28
HETATM   28  N3  UNL     1      -4.796 104.440 274.777  1.00  0.00    -0.369 N
ATOM     29  H3  UNL     1      -3.940 104.066 275.185  1.00  0.00     0.161 HD
BRANCH  28  30
HETATM   30  C10 UNL     1      -5.499 103.507 273.972  1.00  0.00     0.083 C
HETATM   31  C11 UNL     1      -5.296 103.798 272.513  1.00  0.00     0.025 C
HETATM   32  C12 UNL     1      -4.449 102.764 271.817  1.00  0.00     0.002 C
HETATM   33  C13 UNL     1      -3.040 102.922 272.275  1.00  0.00     0.000 C
HETATM   34  C14 UNL     1      -2.801 102.466 273.678  1.00  0.00     0.000 C
HETATM   35  C15 UNL     1      -3.857 101.579 274.229  1.00  0.00     0.002 C
HETATM   36  C16 UNL     1      -5.221 102.073 274.333  1.00  0.00     0.025 C
ENDBRANCH  28  30
ENDBRANCH   6  28
BRANCH   9  37
HETATM   37  N5  UNL     1      -3.204 108.658 274.931  1.00  0.00    -0.224 N
ATOM     38  H5  UNL     1      -2.322 108.485 275.413  1.00  0.00     0.177 HD
BRANCH  37  39
HETATM   39  C18 UNL     1      -3.270 109.767 274.035  1.00  0.00     0.169 C
BRANCH  39  40
HETATM   40  C19 UNL     1      -2.953 109.298 272.618  1.00  0.00     0.132 C
HETATM   41  C20 UNL     1      -3.760 110.164 271.671  1.00  0.00     0.041 C
BRANCH  40  42
HETATM   42  O2  UNL     1      -1.578 109.558 272.426  1.00  0.00    -0.394 OA
ATOM     43  H2  UNL     1      -1.118 108.885 272.913  1.00  0.00     0.210 HD
ENDBRANCH  40  42
ENDBRANCH  39  40
ENDBRANCH  37  39
ENDBRANCH   9  37
TORSDOF 12
ENDMDL