MODEL 3
REMARK VINA RESULT: -8.229724833      0.952      1.073
REMARK  13 active torsions:
REMARK  status: ('A' for Active; 'I' for Inactive)
REMARK    1  A    between atoms: C2_2  and  C3_3
REMARK    2  A    between atoms: C6_6  and  O1_7
REMARK    3  A    between atoms: C7_9  and  C8_10
REMARK    4  A    between atoms: C8_10  and  C9_11
REMARK    5  A    between atoms: C9_11  and  C10_12
REMARK    6  A    between atoms: C11_13  and  C13_15
REMARK    7  A    between atoms: C13_15  and  C14_16
REMARK    8  A    between atoms: C14_16  and  C15_18
REMARK    9  A    between atoms: C22_26  and  O4_27
REMARK   10  A    between atoms: C23_29  and  O5_30
REMARK   11  A    between atoms: O5_30  and  C24_31
REMARK   12  A    between atoms: C26_34  and  O7_35
REMARK   13  A    between atoms: C27_37  and  O8_38
ROOT
HETATM    1  C3  UNL     1      -4.517 109.365 274.133  1.00  0.00    -0.013 C
HETATM    2  C4  UNL     1      -4.193 109.525 272.735  1.00  0.00    -0.027 C
HETATM    3  C5  UNL     1      -4.062 110.539 271.945  1.00  0.00     0.022 C
HETATM    4  C6  UNL     1      -3.931 108.163 272.040  1.00  0.00     0.180 C
HETATM    5  C7  UNL     1      -5.142 107.342 272.337  1.00  0.00     0.156 C
HETATM    6  O3  UNL     1      -5.291 107.208 273.699  1.00  0.00    -0.364 OA
HETATM    7  C18 UNL     1      -5.682 108.415 274.333  1.00  0.00     0.121 C
HETATM    8  C19 UNL     1      -5.643 107.939 275.799  1.00  0.00     0.026 C
HETATM    9  C20 UNL     1      -4.327 107.237 276.068  1.00  0.00     0.014 C
HETATM   10  C21 UNL     1      -6.703 106.859 275.860  1.00  0.00     0.042 C
HETATM   11  C22 UNL     1      -7.922 107.442 276.482  1.00  0.00     0.150 C
HETATM   12  C23 UNL     1      -8.209 108.856 276.141  1.00  0.00     0.192 C
HETATM   13  C26 UNL     1      -8.050 109.307 274.771  1.00  0.00     0.182 C
HETATM   14  C27 UNL     1      -6.996 108.823 273.880  1.00  0.00     0.189 C
ENDROOT
BRANCH   1  15
HETATM   15  C2  UNL     1      -4.483 110.454 275.079  1.00  0.00     0.001 C
HETATM   16  C1  UNL     1      -4.798 111.694 275.043  1.00  0.00     0.012 C
ENDBRANCH   1  15
BRANCH  14  17
HETATM   17  O8  UNL     1      -6.871 109.809 272.867  1.00  0.00    -0.389 OA
ATOM     18  H8  UNL     1      -7.203 110.640 273.184  1.00  0.00     0.210 HD
ENDBRANCH  14  17
BRANCH   5  19
HETATM   19  C8  UNL     1      -4.929 105.941 271.818  1.00  0.00     0.039 C
BRANCH  19  20
HETATM   20  C9  UNL     1      -5.306 104.949 272.891  1.00  0.00     0.030 C
BRANCH  20  21
HETATM   21  C10 UNL     1      -4.377 103.792 272.917  1.00  0.00    -0.024 C
HETATM   22  C11 UNL     1      -4.148 103.028 273.937  1.00  0.00    -0.080 C
HETATM   23  C12 UNL     1      -3.169 101.885 273.800  1.00  0.00     0.043 C
BRANCH  22  24
HETATM   24  C13 UNL     1      -4.773 103.176 275.265  1.00  0.00     0.116 C
BRANCH  24  25
HETATM   25  C14 UNL     1      -6.085 102.457 275.308  1.00  0.00     0.152 C
HETATM   26  O2  UNL     1      -6.097 101.212 275.580  1.00  0.00    -0.293 OA
BRANCH  25  27
HETATM   27  C15 UNL     1      -7.320 103.127 275.054  1.00  0.00     0.046 C
HETATM   28  C16 UNL     1      -8.294 103.466 275.835  1.00  0.00    -0.027 C
HETATM   29  C17 UNL     1      -8.452 103.266 277.279  1.00  0.00     0.036 C
ENDBRANCH  25  27
ENDBRANCH  24  25
ENDBRANCH  22  24
ENDBRANCH  20  21
ENDBRANCH  19  20
ENDBRANCH   5  19
BRANCH  13  30
HETATM   30  O7  UNL     1      -8.034 110.731 274.795  1.00  0.00    -0.390 OA
ATOM     31  H7  UNL     1      -7.473 110.994 275.516  1.00  0.00     0.210 HD
ENDBRANCH  13  30
BRANCH   4  32
HETATM   32  O1  UNL     1      -2.850 107.640 272.770  1.00  0.00    -0.388 OA
ATOM     33  H1  UNL     1      -2.111 107.792 272.194  1.00  0.00     0.210 HD
ENDBRANCH   4  32
BRANCH  11  34
HETATM   34  O4  UNL     1      -7.725 107.391 277.885  1.00  0.00    -0.393 OA
ATOM     35  H4  UNL     1      -7.664 108.291 278.184  1.00  0.00     0.210 HD
ENDBRANCH  11  34
BRANCH  12  36
HETATM   36  O5  UNL     1      -9.558 109.146 276.554  1.00  0.00    -0.311 OA
BRANCH  36  37
HETATM   37  C24 UNL     1      -9.899 109.905 277.625  1.00  0.00     0.255 C
HETATM   38  C25 UNL     1     -11.296 110.351 277.823  1.00  0.00     0.126 C
HETATM   39  O6  UNL     1      -9.035 110.227 278.443  1.00  0.00    -0.266 OA
ENDBRANCH  36  37
ENDBRANCH  12  36
TORSDOF 13
ENDMDL