MODEL 4
REMARK VINA RESULT: -8.508009825      6.685     12.805
REMARK  10 active torsions:
REMARK  status: ('A' for Active; 'I' for Inactive)
REMARK       I    between atoms: C1_2  and  N1_3
REMARK    1  A    between atoms: C1_2  and  C8_13
REMARK    2  A    between atoms: N1_3  and  C2_5
REMARK    3  A    between atoms: C7_10  and  O2_11
REMARK    4  A    between atoms: C11_16  and  N2_17
REMARK    5  A    between atoms: C14_22  and  N4_23
REMARK    6  A    between atoms: N4_23  and  C15_25
REMARK    7  A    between atoms: C15_25  and  C16_26
REMARK    8  A    between atoms: C16_26  and  S1_27
REMARK    9  A    between atoms: S1_27  and  C17_28
REMARK   10  A    between atoms: C17_28  and  C18_29
ROOT
HETATM    1  N2  UNL     1     -11.459 106.440 278.871  1.00  0.00    -0.300 N
HETATM    2  C12 UNL     1     -11.119 107.720 278.674  1.00  0.00     0.188 A
HETATM    3  N3  UNL     1      -9.985 107.803 277.954  1.00  0.00    -0.346 N
ATOM      4  H3  UNL     1      -9.511 108.659 277.665  1.00  0.00     0.167 HD
HETATM    5  C13 UNL     1      -9.594 106.542 277.688  1.00  0.00     0.122 A
HETATM    6  C14 UNL     1      -8.488 106.069 276.977  1.00  0.00     0.133 A
HETATM    7  N5  UNL     1      -8.385 104.734 276.892  1.00  0.00    -0.337 N
ATOM      8  H5  UNL     1      -7.593 104.344 276.381  1.00  0.00     0.168 HD
HETATM    9  C24 UNL     1      -9.261 103.889 277.438  1.00  0.00     0.183 A
HETATM   10  N6  UNL     1     -10.316 104.377 278.114  1.00  0.00    -0.336 N
ATOM     11  H6  UNL     1     -10.984 103.727 278.529  1.00  0.00     0.168 HD
HETATM   12  C25 UNL     1     -10.515 105.704 278.261  1.00  0.00     0.142 A
ENDROOT
BRANCH   1  13
HETATM   13  C11 UNL     1     -12.589 105.879 279.584  1.00  0.00     0.231 C
HETATM   14  C10 UNL     1     -13.860 106.643 279.284  1.00  0.00     0.057 C
HETATM   15  C9  UNL     1     -14.898 105.599 279.724  1.00  0.00     0.046 C
HETATM   16  C8  UNL     1     -14.199 104.337 279.263  1.00  0.00     0.216 C
HETATM   17  O3  UNL     1     -12.868 104.613 279.126  1.00  0.00    -0.352 OA
BRANCH  16  18
HETATM   18  C1  UNL     1     -14.392 103.188 280.151  1.00  0.00     0.247 C
HETATM   19  O1  UNL     1     -15.516 102.579 280.167  1.00  0.00    -0.271 OA
HETATM   20  N1  UNL     1     -13.395 102.684 281.026  1.00  0.00    -0.352 N
ATOM     21  H1  UNL     1     -12.485 103.144 281.041  1.00  0.00     0.163 HD
BRANCH  20  22
HETATM   22  C2  UNL     1     -13.612 101.549 281.896  1.00  0.00     0.113 C
HETATM   23  C3  UNL     1     -12.948 101.886 283.210  1.00  0.00     0.028 C
HETATM   24  C4  UNL     1     -11.811 100.948 283.540  1.00  0.00     0.002 C
HETATM   25  C5  UNL     1     -12.379  99.549 283.536  1.00  0.00     0.003 C
HETATM   26  C6  UNL     1     -12.834  99.170 282.163  1.00  0.00     0.034 C
HETATM   27  C7  UNL     1     -13.074 100.325 281.244  1.00  0.00     0.140 C
BRANCH  27  28
HETATM   28  O2  UNL     1     -14.007  99.903 280.281  1.00  0.00    -0.394 OA
ATOM     29  H2  UNL     1     -14.819  99.702 280.731  1.00  0.00     0.210 HD
ENDBRANCH  27  28
ENDBRANCH  20  22
ENDBRANCH  16  18
ENDBRANCH   1  13
BRANCH   6  30
HETATM   30  N4  UNL     1      -7.644 106.885 276.453  1.00  0.00    -0.374 N
ATOM     31  H4  UNL     1      -7.779 107.896 276.483  1.00  0.00     0.161 HD
BRANCH  30  32
HETATM   32  C15 UNL     1      -6.461 106.265 275.803  1.00  0.00     0.131 C
BRANCH  32  33
HETATM   33  C16 UNL     1      -6.491 106.761 274.396  1.00  0.00     0.093 C
BRANCH  33  34
HETATM   34  S1  UNL     1      -5.590 106.006 273.138  1.00  0.00    -0.167 SA
BRANCH  34  35
HETATM   35  C17 UNL     1      -4.158 105.066 273.286  1.00  0.00     0.078 C
BRANCH  35  36
HETATM   36  C18 UNL     1      -4.166 103.702 273.819  1.00  0.00    -0.005 C
HETATM   37  C19 UNL     1      -3.279 102.697 273.203  1.00  0.00     0.005 C
HETATM   38  C20 UNL     1      -3.042 101.550 274.216  1.00  0.00     0.000 C
HETATM   39  C21 UNL     1      -4.304 101.374 275.033  1.00  0.00     0.000 C
HETATM   40  C22 UNL     1      -5.528 101.671 274.214  1.00  0.00     0.000 C
HETATM   41  C23 UNL     1      -5.604 103.156 273.891  1.00  0.00     0.005 C
ENDBRANCH  35  36
ENDBRANCH  34  35
ENDBRANCH  33  34
ENDBRANCH  32  33
ENDBRANCH  30  32
ENDBRANCH   6  30
TORSDOF 10
ENDMDL