MODEL 1
REMARK VINA RESULT: -7.906198368      0.000      0.000
REMARK  12 active torsions:
REMARK  status: ('A' for Active; 'I' for Inactive)
REMARK    1  A    between atoms: C2_2  and  C3_3
REMARK    2  A    between atoms: C3_3  and  O1_4
REMARK    3  A    between atoms: O1_4  and  C4_5
REMARK    4  A    between atoms: C4_5  and  O2_6
REMARK    5  A    between atoms: O2_6  and  C5_7
REMARK    6  A    between atoms: C5_7  and  C6_8
REMARK    7  A    between atoms: C6_8  and  O3_9
REMARK    8  A    between atoms: C14_18  and  C15_19
REMARK    9  A    between atoms: C15_19  and  O4_20
REMARK   10  A    between atoms: C15_19  and  O5_22
REMARK   11  A    between atoms: O5_22  and  S1_23
REMARK   12  A    between atoms: C23_34  and  O9_35
ROOT
HETATM    1  C1  UNL     1      -5.647 109.637 276.164  1.00  0.00     0.025 C
HETATM    2  C2  UNL     1      -6.616 109.244 275.057  1.00  0.00     0.027 C
HETATM    3  C7  UNL     1      -6.999 107.829 275.316  1.00  0.00    -0.062 C
HETATM    4  C8  UNL     1      -7.605 107.325 276.363  1.00  0.00    -0.022 C
HETATM    5  C9  UNL     1      -7.775 105.876 276.171  1.00  0.00     0.033 C
HETATM    6  C10 UNL     1      -7.635 105.674 274.682  1.00  0.00     0.006 C
HETATM    7  C11 UNL     1      -7.308 104.309 274.257  1.00  0.00    -0.001 C
HETATM    8  C12 UNL     1      -7.826 103.286 275.234  1.00  0.00     0.006 C
HETATM    9  C13 UNL     1      -6.563 102.605 275.781  1.00  0.00     0.011 C
HETATM   10  C14 UNL     1      -5.705 102.629 274.560  1.00  0.00     0.050 C
HETATM   11  C16 UNL     1      -5.848 104.010 274.022  1.00  0.00    -0.032 C
HETATM   12  C17 UNL     1      -5.530 103.928 272.521  1.00  0.00     0.016 C
HETATM   13  C18 UNL     1      -4.950 104.984 274.697  1.00  0.00     0.011 C
HETATM   14  C19 UNL     1      -5.259 106.423 274.395  1.00  0.00     0.015 C
HETATM   15  C20 UNL     1      -6.695 106.755 274.297  1.00  0.00    -0.012 C
HETATM   16  C21 UNL     1      -7.122 107.370 272.986  1.00  0.00     0.017 C
HETATM   17  C22 UNL     1      -6.321 108.573 272.634  1.00  0.00     0.034 C
HETATM   18  C23 UNL     1      -5.947 109.474 273.752  1.00  0.00     0.132 C
ENDROOT
BRANCH   2  19
HETATM   19  C3  UNL     1      -7.809 110.174 275.210  1.00  0.00     0.186 C
BRANCH  19  20
HETATM   20  O1  UNL     1      -7.723 110.833 276.432  1.00  0.00    -0.366 OA
BRANCH  20  21
HETATM   21  C4  UNL     1      -8.779 111.674 276.667  1.00  0.00     0.337 C
BRANCH  21  22
HETATM   22  O2  UNL     1      -9.129 111.565 278.011  1.00  0.00    -0.365 OA
BRANCH  22  23
HETATM   23  C5  UNL     1     -10.028 110.531 278.233  1.00  0.00     0.196 C
BRANCH  23  24
HETATM   24  C6  UNL     1      -9.484 109.687 279.365  1.00  0.00     0.190 C
BRANCH  24  25
HETATM   25  O3  UNL     1      -8.171 109.318 279.097  1.00  0.00    -0.399 OA
ATOM     26  H3  UNL     1      -7.657 109.337 279.896  1.00  0.00     0.209 HD
ENDBRANCH  24  25
ENDBRANCH  23  24
ENDBRANCH  22  23
ENDBRANCH  21  22
ENDBRANCH  20  21
ENDBRANCH  19  20
ENDBRANCH   2  19
BRANCH  18  27
HETATM   27  O9  UNL     1      -4.539 109.556 273.859  1.00  0.00    -0.394 OA
ATOM     28  H9  UNL     1      -4.128 108.715 274.020  1.00  0.00     0.210 HD
ENDBRANCH  18  27
BRANCH  10  29
HETATM   29  C15 UNL     1      -4.320 102.123 274.743  1.00  0.00     0.283 C
BRANCH  29  30
HETATM   30  O4  UNL     1      -4.289 101.348 275.900  1.00  0.00    -0.370 OA
ATOM     31  H4  UNL     1      -4.351 101.930 276.648  1.00  0.00     0.212 HD
ENDBRANCH  29  30
BRANCH  29  32
HETATM   32  O5  UNL     1      -3.810 101.385 273.722  1.00  0.00    -0.224 OA
BRANCH  32  33
HETATM   33  S1  UNL     1      -2.471 102.183 273.102  1.00  0.00     0.254 S
HETATM   34  O6  UNL     1      -2.367 103.586 273.595  1.00  0.00    -0.572 OA
HETATM   35  O7  UNL     1      -2.504 102.220 271.592  1.00  0.00    -0.572 OA
HETATM   36  O8  UNL     1      -1.066 101.358 273.539  1.00  0.00    -0.572 OA
ENDBRANCH  32  33
ENDBRANCH  29  32
ENDBRANCH  10  29
TORSDOF 12
ENDMDL