MODEL 1
REMARK VINA RESULT: -8.123928226      0.000      0.000
REMARK  10 active torsions:
REMARK  status: ('A' for Active; 'I' for Inactive)
REMARK    1  A    between atoms: C2_2  and  C5_5
REMARK    2  A    between atoms: C5_5  and  C6_6
REMARK    3  A    between atoms: C6_6  and  N1_7
REMARK    4  A    between atoms: C7_12  and  C8_13
REMARK    5  A    between atoms: C8_13  and  C9_14
REMARK    6  A    between atoms: C9_14  and  C10_15
REMARK    7  A    between atoms: C18_28  and  C19_29
REMARK    8  A    between atoms: C19_29  and  O2_30
REMARK    9  A    between atoms: C23_35  and  C24_36
REMARK   10  A    between atoms: C24_36  and  C25_37
ROOT
HETATM    1  C10 UNL     1      -5.282 108.722 273.943  1.00  0.00     0.047 C
HETATM    2  N4  UNL     1      -4.183 109.136 274.792  1.00  0.00    -0.333 N
ATOM      3  H4  UNL     1      -3.835 108.476 275.488  1.00  0.00     0.165 HD
HETATM    4  C11 UNL     1      -3.557 110.428 274.706  1.00  0.00     0.317 C
HETATM    5  O1  UNL     1      -2.345 110.645 274.769  1.00  0.00    -0.247 OA
HETATM    6  N5  UNL     1      -4.563 111.475 274.530  1.00  0.00    -0.335 N
ATOM      7  H5  UNL     1      -4.359 112.460 274.361  1.00  0.00     0.165 HD
HETATM    8  C12 UNL     1      -5.888 110.909 274.630  1.00  0.00     0.115 C
HETATM    9  C13 UNL     1      -6.985 111.785 274.901  1.00  0.00    -0.005 C
HETATM   10  C14 UNL     1      -7.960 111.399 275.751  1.00  0.00    -0.023 C
HETATM   11  C15 UNL     1      -7.931 110.112 276.410  1.00  0.00     0.021 A
HETATM   12  C16 UNL     1      -8.107 108.989 275.501  1.00  0.00     0.003 A
HETATM   13  C17 UNL     1      -7.030 107.934 275.653  1.00  0.00     0.015 C
HETATM   14  C18 UNL     1      -6.180 107.701 274.478  1.00  0.00     0.038 C
HETATM   15  C20 UNL     1      -9.064 109.216 276.638  1.00  0.00    -0.036 A
HETATM   16  C21 UNL     1     -10.429 109.809 276.393  1.00  0.00     0.016 C
HETATM   17  C22 UNL     1      -9.021 108.195 277.730  1.00  0.00     0.016 C
HETATM   18  C23 UNL     1      -5.997 109.972 273.415  1.00  0.00     0.051 C
ENDROOT
BRANCH   1  19
HETATM   19  C9  UNL     1      -4.556 108.126 272.725  1.00  0.00     0.040 C
BRANCH  19  20
HETATM   20  C8  UNL     1      -3.390 107.246 273.137  1.00  0.00     0.082 C
BRANCH  20  21
HETATM   21  C7  UNL     1      -3.647 105.927 272.484  1.00  0.00     0.113 A
HETATM   22  N3  UNL     1      -3.256 105.510 271.271  1.00  0.00    -0.272 N
HETATM   23  N2  UNL     1      -3.676 104.294 271.063  1.00  0.00    -0.225 N
ATOM     24  H3  UNL     1      -2.711 106.062 270.610  1.00  0.00     0.190 HD
HETATM   25  N1  UNL     1      -4.349 103.895 272.136  1.00  0.00    -0.218 N
ATOM     26  H2  UNL     1      -3.515 103.743 270.220  1.00  0.00     0.210 HD
HETATM   27  N6  UNL     1      -4.325 104.900 272.994  1.00  0.00    -0.270 N
ATOM     28  H6  UNL     1      -4.762 104.891 273.916  1.00  0.00     0.190 HD
BRANCH  25  29
HETATM   29  C6  UNL     1      -5.015 102.615 272.267  1.00  0.00     0.171 C
BRANCH  29  30
HETATM   30  C5  UNL     1      -5.678 102.348 273.547  1.00  0.00     0.032 C
BRANCH  30  31
HETATM   31  C2  UNL     1      -4.912 101.864 274.715  1.00  0.00    -0.050 C
HETATM   32  C1  UNL     1      -4.820 103.079 275.679  1.00  0.00     0.014 C
HETATM   33  C3  UNL     1      -3.542 101.392 274.359  1.00  0.00     0.014 C
HETATM   34  C4  UNL     1      -5.609 100.789 275.528  1.00  0.00     0.014 C
ENDBRANCH  30  31
ENDBRANCH  29  30
ENDBRANCH  25  29
ENDBRANCH  20  21
ENDBRANCH  19  20
ENDBRANCH   1  19
BRANCH  14  35
HETATM   35  C19 UNL     1      -7.059 107.103 273.395  1.00  0.00     0.171 C
BRANCH  35  36
HETATM   36  O2  UNL     1      -7.092 105.712 273.673  1.00  0.00    -0.400 OA
ATOM     37  H2  UNL     1      -7.662 105.341 273.009  1.00  0.00     0.209 HD
ENDBRANCH  35  36
ENDBRANCH  14  35
BRANCH  18  38
HETATM   38  C24 UNL     1      -5.352 110.504 272.189  1.00  0.00     0.122 C
BRANCH  38  39
HETATM   39  C25 UNL     1      -6.309 110.675 271.082  1.00  0.00     0.173 C
HETATM   40  O3  UNL     1      -7.169 111.567 271.016  1.00  0.00    -0.648 OA
HETATM   41  O4  UNL     1      -6.299 109.785 269.978  1.00  0.00    -0.648 OA
ENDBRANCH  38  39
ENDBRANCH  18  38
TORSDOF 10
ENDMDL