MODEL 3
REMARK VINA RESULT: -7.693729508      3.091      7.004
REMARK  13 active torsions:
REMARK  status: ('A' for Active; 'I' for Inactive)
REMARK    1  A    between atoms: O1_2  and  C2_3
REMARK    2  A    between atoms: C2_3  and  C3_5
REMARK    3  A    between atoms: C8_10  and  O3_11
REMARK    4  A    between atoms: C8_10  and  C9_13
REMARK    5  A    between atoms: C10_14  and  C11_15
REMARK    6  A    between atoms: C12_16  and  C13_17
REMARK    7  A    between atoms: C13_17  and  C14_18
REMARK    8  A    between atoms: C14_18  and  O5_20
REMARK    9  A    between atoms: C21_27  and  O6_28
REMARK   10  A    between atoms: C21_27  and  C22_30
REMARK   11  A    between atoms: C22_30  and  O7_32
REMARK   12  A    between atoms: C24_34  and  C25_35
REMARK   13  A    between atoms: C25_35  and  C26_36
ROOT
HETATM    1  C11 UNL     1      -6.243 108.507 275.568  1.00  0.00     0.075 C
HETATM    2  C12 UNL     1      -7.631 108.032 275.701  1.00  0.00    -0.053 C
HETATM    3  C19 UNL     1      -8.528 109.249 275.582  1.00  0.00     0.039 C
HETATM    4  C20 UNL     1      -7.657 110.434 275.483  1.00  0.00     0.046 C
HETATM    5  C21 UNL     1      -6.346 109.874 274.910  1.00  0.00     0.094 C
ENDROOT
BRANCH   1   6
HETATM    6  C10 UNL     1      -5.468 107.506 274.795  1.00  0.00    -0.016 C
HETATM    7  C9  UNL     1      -5.066 106.321 275.034  1.00  0.00     0.008 C
BRANCH   7   8
HETATM    8  C8  UNL     1      -4.285 105.544 274.026  1.00  0.00     0.084 C
HETATM    9  C7  UNL     1      -4.618 105.914 272.602  1.00  0.00     0.051 C
HETATM   10  C5  UNL     1      -4.468 104.639 271.811  1.00  0.00     0.014 C
HETATM   11  C4  UNL     1      -3.904 103.630 272.884  1.00  0.00    -0.062 C
HETATM   12  C6  UNL     1      -3.474 104.852 270.732  1.00  0.00     0.015 C
HETATM   13  C3  UNL     1      -3.004 102.820 272.532  1.00  0.00     0.086 C
HETATM   14  C24 UNL     1      -4.706 104.063 273.996  1.00  0.00     0.063 C
BRANCH  13  15
HETATM   15  C2  UNL     1      -2.226 101.781 273.130  1.00  0.00     0.282 C
HETATM   16  O2  UNL     1      -2.591 101.089 274.084  1.00  0.00    -0.260 OA
BRANCH  15  17
HETATM   17  O1  UNL     1      -0.929 101.462 272.648  1.00  0.00    -0.323 OA
HETATM   18  C1  UNL     1      -0.147 100.563 273.405  1.00  0.00     0.213 C
ENDBRANCH  15  17
ENDBRANCH  13  15
BRANCH  14  19
HETATM   19  C25 UNL     1      -4.827 103.427 275.287  1.00  0.00     0.125 C
BRANCH  19  20
HETATM   20  C26 UNL     1      -5.751 102.263 275.301  1.00  0.00     0.173 C
HETATM   21  O8  UNL     1      -6.469 102.103 276.322  1.00  0.00    -0.648 OA
HETATM   22  O9  UNL     1      -5.855 101.367 274.270  1.00  0.00    -0.648 OA
ENDBRANCH  19  20
ENDBRANCH  14  19
BRANCH   8  23
HETATM   23  O3  UNL     1      -2.926 105.550 274.275  1.00  0.00    -0.385 OA
ATOM     24  H3  UNL     1      -2.516 104.712 274.095  1.00  0.00     0.211 HD
ENDBRANCH   8  23
ENDBRANCH   7   8
ENDBRANCH   1   6
BRANCH   2  25
HETATM   25  C13 UNL     1      -8.122 107.056 276.653  1.00  0.00     0.044 C
HETATM   26  C16 UNL     1      -8.357 105.796 276.556  1.00  0.00    -0.071 C
HETATM   27  C17 UNL     1      -8.881 104.995 277.723  1.00  0.00     0.044 C
HETATM   28  C18 UNL     1      -8.118 104.987 275.344  1.00  0.00     0.044 C
BRANCH  25  29
HETATM   29  C14 UNL     1      -8.394 107.683 278.010  1.00  0.00     0.293 C
HETATM   30  O4  UNL     1      -7.382 108.027 278.727  1.00  0.00    -0.259 OA
BRANCH  29  31
HETATM   31  O5  UNL     1      -9.596 107.920 278.550  1.00  0.00    -0.323 OA
HETATM   32  C15 UNL     1     -10.005 109.141 279.130  1.00  0.00     0.213 C
ENDBRANCH  29  31
ENDBRANCH  25  29
ENDBRANCH   2  25
BRANCH   5  33
HETATM   33  O6  UNL     1      -6.487 109.904 273.569  1.00  0.00    -0.386 OA
ATOM     34  H6  UNL     1      -6.914 110.665 273.193  1.00  0.00     0.210 HD
ENDBRANCH   5  33
BRANCH   5  35
HETATM   35  C22 UNL     1      -5.192 110.727 275.358  1.00  0.00     0.149 C
HETATM   36  C23 UNL     1      -5.534 112.203 275.413  1.00  0.00     0.042 C
BRANCH  35  37
HETATM   37  O7  UNL     1      -4.724 110.389 276.612  1.00  0.00    -0.393 OA
ATOM     38  H7  UNL     1      -4.732 111.118 277.221  1.00  0.00     0.210 HD
ENDBRANCH  35  37
ENDBRANCH   5  35
TORSDOF 13
ENDMDL