MODEL 2
REMARK VINA RESULT: -8.127546859      0.097      1.835
REMARK  4 active torsions:
REMARK  status: ('A' for Active; 'I' for Inactive)
REMARK    1  A    between atoms: C2_2  and  O1_5
REMARK    2  A    between atoms: O1_5  and  C5_6
REMARK       I    between atoms: C5_6  and  N1_8
REMARK    3  A    between atoms: C6_11  and  C7_12
REMARK    4  A    between atoms: C9_16  and  C10_17
ROOT
HETATM    1  C5  UNL     1       0.339 -26.351 -11.802  1.00  0.00     0.383 C
HETATM    2  O2  UNL     1       0.864 -25.477 -12.510  1.00  0.00    -0.236 OA
HETATM    3  N1  UNL     1       1.012 -27.521 -11.413  1.00  0.00    -0.226 N
HETATM    4  N2  UNL     1       0.392 -28.519 -10.567  1.00  0.00    -0.291 N
ATOM      5  H2  UNL     1      -0.605 -28.736 -10.549  1.00  0.00     0.187 HD
HETATM    6  C6  UNL     1       1.282 -29.090  -9.844  1.00  0.00     0.104 C
HETATM    7  C8  UNL     1       2.605 -28.489 -10.170  1.00  0.00     0.098 C
HETATM    8  C9  UNL     1       2.305 -28.086 -11.630  1.00  0.00     0.152 C
ENDROOT
BRANCH   8   9
HETATM    9  C10 UNL     1       3.340 -27.320 -12.257  1.00  0.00    -0.030 A
HETATM   10  C11 UNL     1       4.565 -27.118 -11.697  1.00  0.00     0.035 A
HETATM   11  C12 UNL     1       5.566 -26.374 -12.336  1.00  0.00     0.058 A
HETATM   12 CL1  UNL     1       7.124 -26.143 -11.573  1.00  0.00    -0.082 Cl
HETATM   13  C13 UNL     1       5.335 -25.818 -13.566  1.00  0.00     0.077 A
HETATM   14 CL2  UNL     1       6.549 -24.878 -14.411  1.00  0.00    -0.081 Cl
HETATM   15  C14 UNL     1       4.095 -26.010 -14.158  1.00  0.00     0.058 A
HETATM   16 CL3  UNL     1       3.767 -25.314 -15.727  1.00  0.00    -0.082 Cl
HETATM   17  C15 UNL     1       3.118 -26.748 -13.512  1.00  0.00     0.035 A
ENDBRANCH   8   9
BRANCH   1  18
HETATM   18  O1  UNL     1      -0.982 -26.095 -11.412  1.00  0.00    -0.293 OA
BRANCH  18  19
HETATM   19  C2  UNL     1      -2.081 -26.371 -12.229  1.00  0.00     0.061 C
HETATM   20  C1  UNL     1      -2.635 -25.099 -12.863  1.00  0.00     0.046 C
HETATM   21  C3  UNL     1      -1.778 -27.389 -13.309  1.00  0.00     0.046 C
HETATM   22  C4  UNL     1      -3.186 -26.932 -11.359  1.00  0.00     0.046 C
ENDBRANCH  18  19
ENDBRANCH   1  18
BRANCH   6  23
HETATM   23  C7  UNL     1       1.088 -30.147  -8.859  1.00  0.00     0.224 C
HETATM   24  O3  UNL     1       0.154 -30.104  -8.011  1.00  0.00    -0.643 OA
HETATM   25  O4  UNL     1       1.919 -31.258  -8.801  1.00  0.00    -0.643 OA
ENDBRANCH   6  23
TORSDOF 4
ENDMDL