MODEL 2
REMARK VINA RESULT: -8.602496153      3.664      6.530
REMARK  3 active torsions:
REMARK  status: ('A' for Active; 'I' for Inactive)
REMARK    1  A    between atoms: C2_2  and  C3_3
REMARK    2  A    between atoms: C6_6  and  C7_7
REMARK    3  A    between atoms: C12_16  and  S1_17
ROOT
HETATM    1  C7  UNL     1       3.156 -26.761 -12.646  1.00  0.00     0.037 A
HETATM    2  C8  UNL     1       3.430 -25.935 -13.764  1.00  0.00     0.071 A
HETATM    3 CL1  UNL     1       5.082 -25.878 -14.333  1.00  0.00    -0.081 Cl
HETATM    4  C9  UNL     1       2.515 -25.193 -14.432  1.00  0.00     0.080 A
HETATM    5 CL2  UNL     1       2.906 -24.183 -15.813  1.00  0.00    -0.081 Cl
HETATM    6  C10 UNL     1       1.222 -25.225 -14.013  1.00  0.00     0.080 A
HETATM    7 CL3  UNL     1      -0.002 -24.278 -14.837  1.00  0.00    -0.081 Cl
HETATM    8  C11 UNL     1       0.880 -25.992 -12.957  1.00  0.00     0.082 A
HETATM    9 CL4  UNL     1      -0.786 -26.040 -12.404  1.00  0.00    -0.081 Cl
HETATM   10  C12 UNL     1       1.850 -26.775 -12.262  1.00  0.00     0.118 A
ENDROOT
BRANCH   1  11
HETATM   11  C6  UNL     1       4.278 -27.397 -11.962  1.00  0.00     0.041 C
HETATM   12  C5  UNL     1       5.518 -26.945 -11.350  1.00  0.00     0.091 C
HETATM   13  C3  UNL     1       6.477 -28.160 -11.611  1.00  0.00     0.049 C
HETATM   14  C4  UNL     1       6.928 -28.064 -13.014  1.00  0.00     0.040 C
HETATM   15  N2  UNL     1       5.491 -29.194 -11.348  1.00  0.00    -0.322 N
HETATM   16  N1  UNL     1       4.342 -28.721 -11.917  1.00  0.00    -0.306 N
HETATM   17  C13 UNL     1       5.772 -30.420 -10.625  1.00  0.00     0.172 C
ATOM     18  H1  UNL     1       3.603 -29.329 -12.274  1.00  0.00     0.186 HD
BRANCH  13  19
HETATM   19  C2  UNL     1       7.544 -28.227 -10.576  1.00  0.00     0.028 C
HETATM   20  C1  UNL     1       8.114 -26.873 -10.223  1.00  0.00     0.007 C
ENDBRANCH  13  19
ENDBRANCH   1  11
BRANCH  10  21
HETATM   21  S1  UNL     1       1.211 -27.875 -11.100  1.00  0.00     0.140 S
HETATM   22  O1  UNL     1       2.256 -28.279 -10.094  1.00  0.00    -0.591 OA
HETATM   23  O2  UNL     1      -0.110 -27.564 -10.584  1.00  0.00    -0.591 OA
HETATM   24  O3  UNL     1       1.054 -29.411 -11.945  1.00  0.00    -0.591 OA
ENDBRANCH  10  21
TORSDOF 3
ENDMDL