MODEL 4
REMARK VINA RESULT: -8.147628525      2.073      3.085
REMARK  4 active torsions:
REMARK  status: ('A' for Active; 'I' for Inactive)
REMARK    1  A    between atoms: C2_2  and  C4_4
REMARK    2  A    between atoms: C6_9  and  N1_10
REMARK       I    between atoms: N1_10  and  C7_12
REMARK    3  A    between atoms: C7_12  and  O4_14
REMARK    4  A    between atoms: O4_14  and  C8_15
ROOT
HETATM    1  N1  UNL     1       2.986 -27.696 -13.293  1.00  0.00    -0.323 N
ATOM      2  H1  UNL     1       2.928 -27.435 -14.278  1.00  0.00     0.165 HD
HETATM    3  C7  UNL     1       4.262 -27.814 -12.660  1.00  0.00     0.366 C
HETATM    4  O3  UNL     1       4.360 -28.134 -11.448  1.00  0.00    -0.238 OA
ENDROOT
BRANCH   1   5
HETATM    5  C6  UNL     1       1.775 -27.945 -12.541  1.00  0.00     0.187 C
HETATM    6  C5  UNL     1       0.713 -26.948 -12.867  1.00  0.00     0.283 C
HETATM    7  O1  UNL     1      -0.559 -27.198 -12.352  1.00  0.00    -0.291 OA
HETATM    8  O2  UNL     1       0.947 -25.924 -13.574  1.00  0.00    -0.263 OA
HETATM    9  C4  UNL     1      -1.121 -28.515 -12.399  1.00  0.00     0.152 C
HETATM   10 CL1  UNL     1      -1.737 -28.771 -14.049  1.00  0.00    -0.087 Cl
HETATM   11  C15 UNL     1      -0.068 -29.540 -12.135  1.00  0.00     0.035 C
HETATM   12  C14 UNL     1       1.195 -29.308 -12.925  1.00  0.00     0.044 C
HETATM   13  C16 UNL     1       0.301 -29.616 -10.675  1.00  0.00     0.014 C
BRANCH   9  14
HETATM   14  C2  UNL     1      -2.249 -28.652 -11.420  1.00  0.00     0.029 C
HETATM   15  C1  UNL     1      -3.148 -29.776 -11.890  1.00  0.00     0.014 C
HETATM   16  C3  UNL     1      -3.069 -27.395 -11.296  1.00  0.00     0.014 C
ENDBRANCH   9  14
ENDBRANCH   1   5
BRANCH   3  17
HETATM   17  O4  UNL     1       5.454 -27.587 -13.334  1.00  0.00    -0.258 OA
BRANCH  17  18
HETATM   18  C8  UNL     1       6.003 -26.294 -13.425  1.00  0.00     0.124 A
HETATM   19  C9  UNL     1       6.985 -25.938 -12.525  1.00  0.00     0.071 A
HETATM   20 CL2  UNL     1       7.497 -27.102 -11.325  1.00  0.00    -0.081 Cl
HETATM   21  C10 UNL     1       7.575 -24.706 -12.537  1.00  0.00     0.050 A
HETATM   22  C11 UNL     1       7.192 -23.785 -13.461  1.00  0.00     0.037 A
HETATM   23 CL3  UNL     1       7.951 -22.206 -13.474  1.00  0.00    -0.084 Cl
HETATM   24  C12 UNL     1       6.203 -24.129 -14.374  1.00  0.00     0.050 A
HETATM   25  C13 UNL     1       5.614 -25.379 -14.351  1.00  0.00     0.071 A
HETATM   26 CL4  UNL     1       4.381 -25.782 -15.502  1.00  0.00    -0.081 Cl
ENDBRANCH  17  18
ENDBRANCH   3  17
TORSDOF 4
ENDMDL