MODEL 3
REMARK VINA RESULT: -8.339377765      2.748      3.860
REMARK  5 active torsions:
REMARK  status: ('A' for Active; 'I' for Inactive)
REMARK    1  A    between atoms: C2_2  and  C4_4
REMARK    2  A    between atoms: C4_4  and  O1_5
REMARK    3  A    between atoms: C4_4  and  C17_24
REMARK    4  A    between atoms: O1_5  and  N1_6
REMARK    5  A    between atoms: C16_21  and  O3_22
ROOT
HETATM    1  N1  UNL     1       3.724 -26.683 -13.681  1.00  0.00    -0.271 N
ATOM      2  H1  UNL     1       3.559 -26.014 -14.432  1.00  0.00     0.193 HD
HETATM    3  C5  UNL     1       2.684 -27.151 -13.105  1.00  0.00     0.043 C
HETATM    4  C6  UNL     1       2.672 -28.133 -11.993  1.00  0.00     0.037 C
HETATM    5  C7  UNL     1       3.728 -29.170 -12.084  1.00  0.00     0.016 C
HETATM    6  C8  UNL     1       1.271 -28.669 -12.128  1.00  0.00     0.011 C
HETATM    7  C9  UNL     1       0.699 -29.282 -10.882  1.00  0.00     0.071 C
HETATM    8  C10 UNL     1      -0.736 -29.548 -11.228  1.00  0.00     0.054 C
HETATM    9  C11 UNL     1      -1.415 -30.473 -10.596  1.00  0.00     0.088 C
HETATM   10 BR1  UNL     1      -3.232 -30.784 -11.061  1.00  0.00    -0.061 Br
HETATM   11  O2  UNL     1      -1.315 -28.801 -12.220  1.00  0.00    -0.344 OA
HETATM   12  C12 UNL     1      -0.920 -27.461 -12.427  1.00  0.00     0.067 C
HETATM   13  C13 UNL     1      -1.486 -26.891 -13.703  1.00  0.00     0.047 C
HETATM   14  C14 UNL     1      -1.572 -26.665 -11.286  1.00  0.00     0.047 C
HETATM   15  C15 UNL     1       0.534 -27.330 -12.289  1.00  0.00     0.059 C
HETATM   16  C16 UNL     1       1.291 -26.776 -13.466  1.00  0.00     0.173 C
ENDROOT
BRANCH   1  17
HETATM   17  O1  UNL     1       5.015 -26.970 -13.412  1.00  0.00    -0.262 OA
BRANCH  17  18
HETATM   18  C4  UNL     1       5.889 -26.085 -12.734  1.00  0.00     0.287 C
BRANCH  18  19
HETATM   19  C2  UNL     1       7.024 -26.866 -12.205  1.00  0.00    -0.053 C
HETATM   20  C1  UNL     1       7.367 -28.005 -12.778  1.00  0.00     0.017 C
HETATM   21  C3  UNL     1       7.785 -26.376 -11.025  1.00  0.00     0.045 C
ENDBRANCH  18  19
BRANCH  18  22
HETATM   22  C17 UNL     1       6.409 -25.044 -13.731  1.00  0.00     0.419 C
HETATM   23  F1  UNL     1       5.433 -24.058 -13.845  1.00  0.00    -0.168 F
HETATM   24  F2  UNL     1       6.602 -25.628 -14.946  1.00  0.00    -0.168 F
HETATM   25  F3  UNL     1       7.538 -24.434 -13.264  1.00  0.00    -0.168 F
ENDBRANCH  18  22
ENDBRANCH  17  18
ENDBRANCH   1  17
BRANCH  16  26
HETATM   26  O3  UNL     1       0.922 -27.549 -14.581  1.00  0.00    -0.389 OA
ATOM     27  H3  UNL     1      -0.023 -27.647 -14.560  1.00  0.00     0.210 HD
ENDBRANCH  16  26
TORSDOF 5
ENDMDL