MODEL 3
REMARK VINA RESULT: -8.481473289      4.378      7.796
REMARK  2 active torsions:
REMARK  status: ('A' for Active; 'I' for Inactive)
REMARK    1  A    between atoms: C6_10  and  N2_11
REMARK       I    between atoms: N2_11  and  C7_13
REMARK    2  A    between atoms: C7_13  and  C8_15
ROOT
HETATM    1  N2  UNL     1       2.502 -27.263 -13.726  1.00  0.00    -0.326 N
ATOM      2  H2  UNL     1       2.526 -27.454 -14.728  1.00  0.00     0.169 HD
HETATM    3  C7  UNL     1       1.239 -27.086 -13.173  1.00  0.00     0.230 C
HETATM    4  O2  UNL     1       1.079 -26.841 -11.964  1.00  0.00    -0.272 OA
ENDROOT
BRANCH   1   5
HETATM    5  C6  UNL     1       3.765 -27.212 -13.075  1.00  0.00     0.038 A
HETATM    6  C5  UNL     1       4.586 -26.150 -13.359  1.00  0.00     0.054 A
HETATM    7  C4  UNL     1       5.828 -26.159 -12.734  1.00  0.00     0.055 A
HETATM    8  C3  UNL     1       6.186 -27.200 -11.875  1.00  0.00     0.059 A
HETATM    9 CL1  UNL     1       7.006 -24.899 -12.969  1.00  0.00    -0.083 Cl
HETATM   10  S1  UNL     1       7.590 -27.554 -10.950  1.00  0.00    -0.025 SA
HETATM   11  C16 UNL     1       5.376 -28.260 -11.587  1.00  0.00     0.058 A
HETATM   12  C2  UNL     1       7.059 -29.012 -10.265  1.00  0.00     0.291 A
HETATM   13  N1  UNL     1       5.840 -29.177 -10.760  1.00  0.00    -0.311 N
HETATM   14  O1  UNL     1       7.678 -29.778  -9.459  1.00  0.00    -0.259 OA
HETATM   15  C1  UNL     1       5.059 -30.392 -10.354  1.00  0.00     0.160 C
HETATM   16  C15 UNL     1       4.117 -28.251 -12.220  1.00  0.00     0.060 A
ENDBRANCH   1   5
BRANCH   3  17
HETATM   17  C8  UNL     1      -0.009 -27.181 -14.009  1.00  0.00     0.043 C
HETATM   18  C9  UNL     1       0.273 -27.991 -15.237  1.00  0.00     0.025 C
HETATM   19  C10 UNL     1      -0.468 -25.806 -14.440  1.00  0.00     0.065 C
HETATM   20  C11 UNL     1      -1.929 -25.706 -14.119  1.00  0.00     0.136 C
HETATM   21  C12 UNL     1      -2.275 -24.389 -13.444  1.00  0.00     0.055 C
HETATM   22  F1  UNL     1      -2.693 -25.745 -15.287  1.00  0.00    -0.240 F
HETATM   23  C13 UNL     1      -2.308 -26.888 -13.286  1.00  0.00     0.149 C
HETATM   24 CL2  UNL     1      -2.855 -26.414 -11.652  1.00  0.00    -0.098 Cl
HETATM   25 CL3  UNL     1      -3.644 -27.812 -14.036  1.00  0.00    -0.098 Cl
HETATM   26  C14 UNL     1      -1.101 -27.775 -13.193  1.00  0.00     0.064 C
ENDBRANCH   3  17
TORSDOF 2
ENDMDL