MODEL 5
REMARK VINA RESULT: -9.899218041      3.186      6.857
REMARK  3 active torsions:
REMARK  status: ('A' for Active; 'I' for Inactive)
REMARK    1  A    between atoms: C3_4  and  O2_5
REMARK    2  A    between atoms: C6_10  and  O3_11
REMARK    3  A    between atoms: O3_11  and  C7_12
ROOT
HETATM    1  O1  UNL     1       7.529 -26.036 -10.770  1.00  0.00    -0.289 OA
HETATM    2  C1  UNL     1       6.992 -26.261 -11.885  1.00  0.00     0.199 C
HETATM    3  C2  UNL     1       6.041 -27.387 -11.875  1.00  0.00     0.084 A
HETATM    4  C3  UNL     1       6.486 -28.438 -11.098  1.00  0.00     0.104 A
HETATM    5  C4  UNL     1       5.627 -29.557 -10.986  1.00  0.00     0.070 A
HETATM    6 CL1  UNL     1       6.163 -30.921  -9.994  1.00  0.00    -0.081 Cl
HETATM    7  C5  UNL     1       4.420 -29.570 -11.629  1.00  0.00     0.066 A
HETATM    8  C6  UNL     1       3.958 -28.543 -12.408  1.00  0.00     0.106 A
HETATM    9  C17 UNL     1       4.818 -27.436 -12.512  1.00  0.00     0.118 A
HETATM   10  O4  UNL     1       4.270 -26.441 -13.321  1.00  0.00    -0.347 OA
HETATM   11  C18 UNL     1       4.896 -25.252 -13.704  1.00  0.00     0.179 C
HETATM   12  C19 UNL     1       6.308 -25.336 -14.100  1.00  0.00     0.072 C
HETATM   13  C20 UNL     1       7.337 -25.431 -13.033  1.00  0.00     0.246 C
HETATM   14  F1  UNL     1       7.596 -24.144 -12.566  1.00  0.00    -0.241 F
ENDROOT
BRANCH   8  15
HETATM   15  O3  UNL     1       2.795 -28.493 -13.063  1.00  0.00    -0.337 OA
BRANCH  15  16
HETATM   16  C7  UNL     1       1.487 -28.275 -12.761  1.00  0.00     0.070 C
HETATM   17  C8  UNL     1       0.851 -27.333 -13.741  1.00  0.00     0.043 C
HETATM   18  C9  UNL     1      -0.545 -26.907 -13.328  1.00  0.00    -0.010 C
HETATM   19  C10 UNL     1      -0.517 -26.239 -11.994  1.00  0.00     0.009 C
HETATM   20  C14 UNL     1      -1.377 -28.173 -13.249  1.00  0.00     0.030 C
HETATM   21  C11 UNL     1       0.070 -27.195 -10.973  1.00  0.00    -0.010 C
HETATM   22  C12 UNL     1      -0.768 -28.439 -10.869  1.00  0.00     0.030 C
HETATM   23  C16 UNL     1       1.454 -27.577 -11.390  1.00  0.00     0.043 C
HETATM   24  C13 UNL     1      -0.764 -29.089 -12.239  1.00  0.00     0.040 C
HETATM   25 CL2  UNL     1      -1.821 -30.532 -12.115  1.00  0.00    -0.119 Cl
HETATM   26  C15 UNL     1       0.642 -29.514 -12.600  1.00  0.00     0.064 C
ENDBRANCH  15  16
ENDBRANCH   8  15
BRANCH   4  27
HETATM   27  O2  UNL     1       7.669 -28.441 -10.468  1.00  0.00    -0.358 OA
ATOM     28  H2  UNL     1       8.201 -27.663 -10.352  1.00  0.00     0.217 HD
ENDBRANCH   4  27
TORSDOF 3
ENDMDL