MODEL 4
REMARK VINA RESULT: -8.787860146      3.151      5.190
REMARK  4 active torsions:
REMARK  status: ('A' for Active; 'I' for Inactive)
REMARK    1  A    between atoms: C4_9  and  C5_10
REMARK    2  A    between atoms: C11_20  and  C12_21
REMARK    3  A    between atoms: C12_21  and  O3_23
REMARK    4  A    between atoms: O3_23  and  C13_24
ROOT
HETATM    1  C1  UNL     1       0.724 -27.009 -14.805  1.00  0.00     0.064 C
HETATM    2  C2  UNL     1       0.828 -26.897 -13.313  1.00  0.00     0.007 C
HETATM    3  N1  UNL     1      -0.234 -27.038 -12.656  1.00  0.00    -0.315 N
ATOM      4  H1  UNL     1      -1.116 -27.220 -13.136  1.00  0.00     0.170 HD
HETATM    5  C3  UNL     1      -0.195 -26.941 -11.218  1.00  0.00     0.324 C
HETATM    6  O1  UNL     1      -1.236 -27.076 -10.527  1.00  0.00    -0.247 OA
HETATM    7  N2  UNL     1       1.075 -26.682 -10.627  1.00  0.00    -0.310 N
ATOM      8  H2  UNL     1       1.100 -26.376  -9.654  1.00  0.00     0.170 HD
HETATM    9  C4  UNL     1       2.294 -26.824 -11.308  1.00  0.00     0.045 C
HETATM   10  C11 UNL     1       2.201 -26.660 -12.793  1.00  0.00     0.181 C
ENDROOT
BRANCH   9  11
HETATM   11  C5  UNL     1       3.209 -27.925 -10.972  1.00  0.00     0.013 A
HETATM   12  C6  UNL     1       4.539 -27.769 -11.404  1.00  0.00     0.041 A
HETATM   13  C7  UNL     1       5.496 -28.693 -11.042  1.00  0.00     0.058 A
HETATM   14 CL1  UNL     1       7.150 -28.452 -11.600  1.00  0.00    -0.082 Cl
HETATM   15  C8  UNL     1       5.177 -29.758 -10.268  1.00  0.00     0.079 A
HETATM   16 CL2  UNL     1       6.385 -30.918  -9.812  1.00  0.00    -0.081 Cl
HETATM   17  C9  UNL     1       3.873 -29.913  -9.842  1.00  0.00     0.080 A
HETATM   18 CL3  UNL     1       3.411 -31.300  -8.847  1.00  0.00    -0.081 Cl
HETATM   19  C10 UNL     1       2.896 -29.006 -10.189  1.00  0.00     0.069 A
HETATM   20 CL4  UNL     1       1.284 -29.277  -9.665  1.00  0.00    -0.082 Cl
ENDBRANCH   9  11
BRANCH  10  21
HETATM   21  C12 UNL     1       2.578 -25.270 -13.233  1.00  0.00     0.275 C
HETATM   22  O2  UNL     1       1.795 -24.344 -13.463  1.00  0.00    -0.264 OA
BRANCH  21  23
HETATM   23  O3  UNL     1       3.913 -25.034 -13.388  1.00  0.00    -0.310 OA
BRANCH  23  24
HETATM   24  C13 UNL     1       4.648 -25.279 -14.538  1.00  0.00     0.060 C
HETATM   25  C14 UNL     1       5.545 -26.485 -14.425  1.00  0.00     0.045 C
HETATM   26  C15 UNL     1       3.787 -25.356 -15.775  1.00  0.00     0.045 C
HETATM   27  C16 UNL     1       5.570 -24.083 -14.703  1.00  0.00     0.045 C
ENDBRANCH  23  24
ENDBRANCH  21  23
ENDBRANCH  10  21
TORSDOF 4
ENDMDL