MODEL 1
REMARK VINA RESULT: -8.263535429      0.000      0.000
REMARK  4 active torsions:
REMARK  status: ('A' for Active; 'I' for Inactive)
REMARK    1  A    between atoms: C5_8  and  C6_9
REMARK    2  A    between atoms: C6_9  and  N1_10
REMARK    3  A    between atoms: N1_10  and  N2_12
REMARK    4  A    between atoms: N2_12  and  C7_14
ROOT
HETATM    1  N2  UNL     1       5.754 -28.989 -12.101  1.00  0.00    -0.285 N
ATOM      2  H2  UNL     1       5.889 -29.483 -12.983  1.00  0.00     0.188 HD
ENDROOT
BRANCH   1   3
HETATM    3  N1  UNL     1       4.787 -29.456 -11.215  1.00  0.00    -0.309 N
ATOM      4  H1  UNL     1       4.839 -30.417 -10.878  1.00  0.00     0.186 HD
BRANCH   3   5
HETATM    5  C6  UNL     1       3.836 -28.705 -10.815  1.00  0.00     0.122 C
BRANCH   5   6
HETATM    6  C5  UNL     1       2.452 -29.195 -10.673  1.00  0.00     0.028 A
HETATM    7  C4  UNL     1       2.033 -29.840  -9.532  1.00  0.00     0.069 A
HETATM    8  C3  UNL     1       0.731 -30.282  -9.443  1.00  0.00     0.058 A
HETATM    9 CL3  UNL     1       3.154 -30.096  -8.210  1.00  0.00    -0.082 Cl
HETATM   10  C2  UNL     1      -0.164 -30.083 -10.487  1.00  0.00     0.051 A
HETATM   11 CL2  UNL     1       0.149 -31.113  -8.003  1.00  0.00    -0.082 Cl
HETATM   12  C1  UNL     1       0.242 -29.435 -11.642  1.00  0.00     0.058 A
HETATM   13 CL1  UNL     1      -0.875 -29.175 -12.972  1.00  0.00    -0.082 Cl
HETATM   14  C14 UNL     1       1.555 -29.013 -11.683  1.00  0.00     0.069 A
HETATM   15 CL4  UNL     1       2.053 -28.188 -13.167  1.00  0.00    -0.082 Cl
ENDBRANCH   5   6
ENDBRANCH   3   5
ENDBRANCH   1   3
BRANCH   1  16
HETATM   16  C7  UNL     1       6.486 -27.955 -11.849  1.00  0.00     0.129 A
HETATM   17  N3  UNL     1       7.336 -28.045 -10.825  1.00  0.00    -0.337 N
HETATM   18  C8  UNL     1       8.097 -26.987 -10.554  1.00  0.00     0.182 A
ATOM     19  H3  UNL     1       7.401 -28.897 -10.268  1.00  0.00     0.168 HD
HETATM   20  N4  UNL     1       8.010 -25.882 -11.281  1.00  0.00    -0.355 N
HETATM   21  C9  UNL     1       7.157 -25.736 -12.339  1.00  0.00     0.021 A
ATOM     22  H4  UNL     1       8.612 -25.096 -11.036  1.00  0.00     0.166 HD
HETATM   23  C10 UNL     1       6.372 -26.800 -12.634  1.00  0.00     0.019 A
HETATM   24  C13 UNL     1       7.221 -24.435 -13.005  1.00  0.00     0.068 C
HETATM   25  C11 UNL     1       5.373 -26.888 -13.729  1.00  0.00     0.118 C
HETATM   26  S1  UNL     1       4.955 -25.236 -14.338  1.00  0.00    -0.164 SA
HETATM   27  C12 UNL     1       6.530 -24.306 -14.306  1.00  0.00     0.080 C
ENDBRANCH   1  16
TORSDOF 4
ENDMDL