MODEL 2
REMARK VINA RESULT: -7.690406746      0.564      1.233
REMARK  4 active torsions:
REMARK  status: ('A' for Active; 'I' for Inactive)
REMARK    1  A    between atoms: C2_2  and  N1_4
REMARK    2  A    between atoms: C2_2  and  C11_20
REMARK    3  A    between atoms: N1_4  and  S1_6
REMARK    4  A    between atoms: S1_6  and  C4_9
ROOT
HETATM    1  S1  UNL     1       4.024 -26.084 -13.886  1.00  0.00     0.260 S
HETATM    2  O1  UNL     1       4.965 -26.057 -15.093  1.00  0.00    -0.200 OA
HETATM    3  O2  UNL     1       4.156 -24.680 -13.386  1.00  0.00    -0.200 OA
ENDROOT
BRANCH   1   4
HETATM    4  N1  UNL     1       2.497 -26.484 -14.537  1.00  0.00    -0.302 N
ATOM      5  H1  UNL     1       2.382 -27.150 -15.301  1.00  0.00     0.173 HD
BRANCH   4   6
HETATM    6  C2  UNL     1       1.387 -25.809 -13.924  1.00  0.00     0.082 C
HETATM    7  C1  UNL     1       1.120 -24.440 -14.443  1.00  0.00     0.043 C
HETATM    8  C3  UNL     1       1.495 -25.760 -12.420  1.00  0.00     0.043 C
BRANCH   6   9
HETATM    9  C11 UNL     1       0.156 -26.664 -14.242  1.00  0.00     0.213 C
HETATM   10 CL2  UNL     1      -0.669 -27.088 -12.711  1.00  0.00    -0.081 Cl
HETATM   11 CL3  UNL     1       0.631 -28.162 -15.059  1.00  0.00    -0.081 Cl
HETATM   12 CL4  UNL     1      -1.009 -25.767 -15.232  1.00  0.00    -0.081 Cl
ENDBRANCH   6   9
ENDBRANCH   4   6
ENDBRANCH   1   4
BRANCH   1  13
HETATM   13  C4  UNL     1       4.623 -27.295 -12.802  1.00  0.00     0.094 A
HETATM   14  C5  UNL     1       3.865 -28.424 -12.553  1.00  0.00     0.026 A
HETATM   15  C6  UNL     1       4.211 -29.429 -11.683  1.00  0.00     0.004 A
HETATM   16  C7  UNL     1       5.399 -29.301 -11.014  1.00  0.00     0.031 A
HETATM   17  C8  UNL     1       6.211 -28.166 -11.235  1.00  0.00     0.052 A
HETATM   18  N2  UNL     1       7.386 -28.009 -10.609  1.00  0.00    -0.324 N
HETATM   19  C10 UNL     1       5.844 -27.182 -12.104  1.00  0.00     0.044 A
HETATM   20  S2  UNL     1       7.995 -26.560 -11.180  1.00  0.00    -0.001 SA
ATOM     21  H2  UNL     1       7.816 -28.639  -9.932  1.00  0.00     0.174 HD
HETATM   22  C9  UNL     1       6.726 -26.151 -12.234  1.00  0.00     0.105 A
HETATM   23 CL1  UNL     1       6.792 -24.698 -13.175  1.00  0.00    -0.074 Cl
ENDBRANCH   1  13
TORSDOF 4
ENDMDL