MODEL 1
REMARK VINA RESULT: -8.180687497      0.000      0.000
REMARK  3 active torsions:
REMARK  status: ('A' for Active; 'I' for Inactive)
REMARK    1  A    between atoms: C5_7  and  N1_8
REMARK    2  A    between atoms: N1_8  and  S1_10
REMARK    3  A    between atoms: C7_14  and  C8_15
ROOT
HETATM    1  C1  UNL     1       7.147 -27.835 -11.440  1.00  0.00     0.052 C
HETATM    2  C2  UNL     1       5.930 -27.406 -12.180  1.00  0.00    -0.016 A
HETATM    3  C3  UNL     1       5.870 -26.195 -12.807  1.00  0.00     0.065 A
HETATM    4 CL1  UNL     1       7.263 -25.131 -12.733  1.00  0.00    -0.082 Cl
HETATM    5  C4  UNL     1       4.743 -25.800 -13.493  1.00  0.00     0.084 A
HETATM    6 CL2  UNL     1       4.720 -24.242 -14.275  1.00  0.00    -0.080 Cl
HETATM    7  C5  UNL     1       3.654 -26.647 -13.544  1.00  0.00     0.077 A
HETATM    8  C7  UNL     1       3.697 -27.864 -12.918  1.00  0.00     0.017 A
HETATM    9  C12 UNL     1       4.858 -28.256 -12.220  1.00  0.00     0.054 A
HETATM   10 CL3  UNL     1       4.901 -29.825 -11.424  1.00  0.00    -0.083 Cl
ENDROOT
BRANCH   8  11
HETATM   11  C8  UNL     1       2.584 -28.777 -12.878  1.00  0.00     0.040 C
HETATM   12  C9  UNL     1       1.792 -28.940 -11.846  1.00  0.00     0.079 C
HETATM   13  S2  UNL     1       1.883 -28.100 -10.257  1.00  0.00    -0.024 SA
HETATM   14  C11 UNL     1       0.650 -29.829 -11.692  1.00  0.00     0.266 C
HETATM   15  C10 UNL     1       0.822 -29.244  -9.392  1.00  0.00     0.291 C
HETATM   16  O3  UNL     1       0.725 -29.335  -8.169  1.00  0.00    -0.260 OA
HETATM   17  N2  UNL     1       0.165 -29.968 -10.398  1.00  0.00    -0.283 N
ATOM     18  H2  UNL     1      -0.632 -30.569 -10.188  1.00  0.00     0.172 HD
HETATM   19  O4  UNL     1       0.159 -30.423 -12.717  1.00  0.00    -0.267 OA
ENDBRANCH   8  11
BRANCH   7  20
HETATM   20  N1  UNL     1       2.536 -26.225 -14.297  1.00  0.00    -0.282 N
ATOM     21  H1  UNL     1       2.526 -26.389 -15.304  1.00  0.00     0.178 HD
BRANCH  20  22
HETATM   22  S1  UNL     1       1.177 -25.436 -13.558  1.00  0.00     0.227 S
HETATM   23  C6  UNL     1      -0.216 -26.502 -13.737  1.00  0.00     0.186 C
HETATM   24  O1  UNL     1       0.874 -24.136 -14.235  1.00  0.00    -0.206 OA
HETATM   25  O2  UNL     1       1.531 -25.187 -12.112  1.00  0.00    -0.206 OA
ENDBRANCH  20  22
ENDBRANCH   7  20
TORSDOF 3
ENDMDL