MODEL 2
REMARK VINA RESULT: -7.037986302      7.312     10.549
REMARK  7 active torsions:
REMARK  status: ('A' for Active; 'I' for Inactive)
REMARK    1  A    between atoms: C4_5  and  C5_6
REMARK    2  A    between atoms: C5_6  and  C6_7
REMARK    3  A    between atoms: C6_7  and  C7_8
REMARK    4  A    between atoms: C7_8  and  C8_9
REMARK    5  A    between atoms: C8_9  and  C9_10
REMARK    6  A    between atoms: C9_10  and  C10_11
REMARK    7  A    between atoms: C10_11  and  C11_12
ROOT
HETATM    1  C6  UNL     1      76.149 392.841 119.340  1.00  0.00     0.005 C
ENDROOT
BRANCH   1   2
HETATM    2  C5  UNL     1      75.840 393.580 118.070  1.00  0.00     0.038 C
BRANCH   2   3
HETATM    3  C4  UNL     1      76.400 394.952 118.054  1.00  0.00    -0.058 A
HETATM    4  C3  UNL     1      75.971 395.890 118.975  1.00  0.00     0.009 A
HETATM    5  C2  UNL     1      76.493 397.179 118.966  1.00  0.00     0.027 A
HETATM    6  C1  UNL     1      77.447 397.568 118.048  1.00  0.00     0.046 A
HETATM    7  N1  UNL     1      77.981 398.895 118.042  1.00  0.00    -0.102 NA
HETATM    8  C16 UNL     1      77.865 396.620 117.134  1.00  0.00     0.027 A
HETATM    9  C15 UNL     1      77.357 395.333 117.129  1.00  0.00     0.009 A
ENDBRANCH   2   3
ENDBRANCH   1   2
BRANCH   1  10
HETATM   10  C7  UNL     1      77.632 392.680 119.462  1.00  0.00     0.000 C
BRANCH  10  11
HETATM   11  C8  UNL     1      78.033 391.278 119.866  1.00  0.00     0.000 C
BRANCH  11  12
HETATM   12  C9  UNL     1      79.174 390.854 118.939  1.00  0.00     0.000 C
BRANCH  12  13
HETATM   13  C10 UNL     1      79.034 391.679 117.682  1.00  0.00     0.004 C
BRANCH  13  14
HETATM   14  C11 UNL     1      78.892 390.823 116.449  1.00  0.00    -0.014 C
HETATM   15  C12 UNL     1      77.754 391.351 115.594  1.00  0.00     0.004 C
HETATM   16  C13 UNL     1      76.818 390.488 116.427  1.00  0.00     0.001 C
HETATM   17  C14 UNL     1      78.013 389.596 116.719  1.00  0.00     0.004 C
ENDBRANCH  13  14
ENDBRANCH  12  13
ENDBRANCH  11  12
ENDBRANCH  10  11
ENDBRANCH   1  10
TORSDOF 7
ENDMDL