MODEL 2
REMARK VINA RESULT: -6.240606612      2.898      5.524
REMARK  7 active torsions:
REMARK  status: ('A' for Active; 'I' for Inactive)
REMARK    1  A    between atoms: N1_1  and  C1_5
REMARK    2  A    between atoms: C1_5  and  C2_6
REMARK    3  A    between atoms: C2_6  and  C3_7
REMARK    4  A    between atoms: C3_7  and  C4_8
REMARK    5  A    between atoms: C4_8  and  C5_9
REMARK    6  A    between atoms: C5_9  and  C6_10
REMARK    7  A    between atoms: C6_10  and  C7_11
ROOT
HETATM    1  C7  UNL     1      76.772 393.621 118.261  1.00  0.00    -0.047 A
HETATM    2  C8  UNL     1      77.107 393.776 119.596  1.00  0.00     0.008 A
HETATM    3  C9  UNL     1      77.973 392.891 120.240  1.00  0.00     0.001 A
HETATM    4  C10 UNL     1      78.530 391.828 119.573  1.00  0.00     0.012 A
HETATM    5  C11 UNL     1      78.202 391.667 118.243  1.00  0.00    -0.025 A
HETATM    6  C12 UNL     1      78.764 390.593 117.587  1.00  0.00     0.012 A
HETATM    7  C13 UNL     1      78.473 390.364 116.242  1.00  0.00     0.001 A
HETATM    8  C14 UNL     1      77.614 391.248 115.616  1.00  0.00     0.001 A
HETATM    9  C15 UNL     1      77.052 392.330 116.293  1.00  0.00     0.013 A
HETATM   10  C16 UNL     1      77.335 392.552 117.604  1.00  0.00    -0.020 A
ENDROOT
BRANCH   1  11
HETATM   11  C6  UNL     1      75.864 394.586 117.613  1.00  0.00     0.039 C
BRANCH  11  12
HETATM   12  C5  UNL     1      76.307 396.000 117.676  1.00  0.00     0.005 C
BRANCH  12  13
HETATM   13  C4  UNL     1      77.649 396.251 117.021  1.00  0.00     0.000 C
BRANCH  13  14
HETATM   14  C3  UNL     1      78.514 396.871 118.104  1.00  0.00     0.002 C
BRANCH  14  15
HETATM   15  C2  UNL     1      77.742 397.425 119.257  1.00  0.00     0.027 C
BRANCH  15  16
HETATM   16  C1  UNL     1      77.846 398.934 119.325  1.00  0.00     0.229 C
BRANCH  16  17
HETATM   17  N1  UNL     1      76.705 399.554 118.656  1.00  0.00    -0.079 N
ATOM     18  H13 UNL     1      75.841 399.037 118.821  1.00  0.00     0.274 HD
ATOM     19  H12 UNL     1      76.440 400.436 119.095  1.00  0.00     0.274 HD
ATOM     20  H11 UNL     1      76.895 399.668 117.660  1.00  0.00     0.274 HD
ENDBRANCH  16  17
ENDBRANCH  15  16
ENDBRANCH  14  15
ENDBRANCH  13  14
ENDBRANCH  12  13
ENDBRANCH  11  12
ENDBRANCH   1  11
TORSDOF 7
ENDMDL