MODEL 3
REMARK VINA RESULT: -7.237813215      3.257      5.381
REMARK  7 active torsions:
REMARK  status: ('A' for Active; 'I' for Inactive)
REMARK    1  A    between atoms: C4_4  and  C5_5
REMARK    2  A    between atoms: C5_5  and  C6_6
REMARK    3  A    between atoms: C6_6  and  C7_7
REMARK    4  A    between atoms: C7_7  and  C8_8
REMARK    5  A    between atoms: C8_8  and  C9_9
REMARK    6  A    between atoms: C9_9  and  N1_10
REMARK    7  A    between atoms: N1_10  and  C10_13
ROOT
HETATM    1  C8  UNL     1      76.076 396.146 118.891  1.00  0.00     0.027 C
ENDROOT
BRANCH   1   2
HETATM    2  C7  UNL     1      77.335 396.321 119.687  1.00  0.00     0.002 C
BRANCH   2   3
HETATM    3  C6  UNL     1      78.296 397.207 118.965  1.00  0.00     0.005 C
BRANCH   3   4
HETATM    4  C5  UNL     1      77.640 398.320 118.169  1.00  0.00     0.038 C
BRANCH   4   5
HETATM    5  C4  UNL     1      77.561 399.479 119.094  1.00  0.00    -0.058 A
HETATM    6  C3  UNL     1      76.344 399.965 119.498  1.00  0.00     0.007 A
HETATM    7  C2  UNL     1      76.287 401.039 120.381  1.00  0.00     0.001 A
HETATM    8  C1  UNL     1      77.449 401.627 120.858  1.00  0.00     0.000 A
HETATM    9  C16 UNL     1      78.670 401.141 120.453  1.00  0.00     0.001 A
HETATM   10  C15 UNL     1      78.699 400.065 119.570  1.00  0.00     0.007 A
ENDBRANCH   4   5
ENDBRANCH   3   4
ENDBRANCH   2   3
ENDBRANCH   1   2
BRANCH   1  11
HETATM   11  C9  UNL     1      75.819 394.673 118.658  1.00  0.00     0.232 C
BRANCH  11  12
HETATM   12  N1  UNL     1      76.818 394.100 117.788  1.00  0.00    -0.071 N
ATOM     13  H12 UNL     1      76.533 394.102 116.808  1.00  0.00     0.277 HD
ATOM     14  H11 UNL     1      77.643 394.691 117.692  1.00  0.00     0.277 HD
BRANCH  12  15
HETATM   15  C10 UNL     1      77.128 392.790 118.271  1.00  0.00     0.185 C
HETATM   16  C11 UNL     1      78.449 392.765 119.038  1.00  0.00     0.033 C
HETATM   17  C12 UNL     1      78.407 391.384 119.667  1.00  0.00     0.002 C
HETATM   18  C13 UNL     1      76.931 390.996 119.739  1.00  0.00     0.002 C
HETATM   19  C14 UNL     1      76.199 392.294 119.363  1.00  0.00     0.033 C
ENDBRANCH  12  15
ENDBRANCH  11  12
ENDBRANCH   1  11
TORSDOF 7
ENDMDL