MODEL 3
REMARK VINA RESULT: -6.086643650      1.658      3.105
REMARK  8 active torsions:
REMARK  status: ('A' for Active; 'I' for Inactive)
REMARK    1  A    between atoms: N1_1  and  C1_5
REMARK    2  A    between atoms: C1_5  and  C2_6
REMARK    3  A    between atoms: C2_6  and  C3_7
REMARK    4  A    between atoms: C3_7  and  C4_8
REMARK    5  A    between atoms: C4_8  and  C5_9
REMARK    6  A    between atoms: C5_9  and  C6_10
REMARK    7  A    between atoms: C6_10  and  C7_11
REMARK    8  A    between atoms: C7_11  and  N2_12
ROOT
HETATM    1  C6  UNL     1      79.218 391.672 118.424  1.00  0.00     0.020 C
ENDROOT
BRANCH   1   2
HETATM    2  C5  UNL     1      79.285 391.017 117.072  1.00  0.00     0.002 C
BRANCH   2   3
HETATM    3  C4  UNL     1      78.416 391.707 116.044  1.00  0.00     0.000 C
BRANCH   3   4
HETATM    4  C3  UNL     1      77.192 390.892 115.771  1.00  0.00     0.002 C
BRANCH   4   5
HETATM    5  C2  UNL     1      75.975 391.296 116.526  1.00  0.00     0.027 C
BRANCH   5   6
HETATM    6  C1  UNL     1      75.625 390.413 117.680  1.00  0.00     0.229 C
BRANCH   6   7
HETATM    7  N1  UNL     1      76.253 389.121 117.493  1.00  0.00    -0.079 N
ATOM      8  H13 UNL     1      76.689 389.031 116.575  1.00  0.00     0.274 HD
ATOM      9  H12 UNL     1      77.094 389.011 118.060  1.00  0.00     0.274 HD
ATOM     10  H11 UNL     1      75.566 388.389 117.671  1.00  0.00     0.274 HD
ENDBRANCH   6   7
ENDBRANCH   5   6
ENDBRANCH   4   5
ENDBRANCH   3   4
ENDBRANCH   2   3
ENDBRANCH   1   2
BRANCH   1  11
HETATM   11  C7  UNL     1      79.493 393.146 118.380  1.00  0.00     0.128 C
BRANCH  11  12
HETATM   12  N2  UNL     1      78.252 393.816 118.783  1.00  0.00    -0.356 N
HETATM   13  C8  UNL     1      77.260 393.193 119.449  1.00  0.00     0.092 A
HETATM   14  C9  UNL     1      76.261 394.088 119.668  1.00  0.00     0.031 A
HETATM   15  C10 UNL     1      76.684 395.290 119.105  1.00  0.00    -0.008 A
HETATM   16  C11 UNL     1      76.099 396.540 119.018  1.00  0.00     0.014 A
HETATM   17  C15 UNL     1      77.921 395.104 118.561  1.00  0.00     0.044 A
HETATM   18  C12 UNL     1      76.766 397.557 118.392  1.00  0.00     0.001 A
HETATM   19  C13 UNL     1      78.017 397.392 117.833  1.00  0.00     0.002 A
HETATM   20  C14 UNL     1      78.597 396.144 117.923  1.00  0.00     0.030 A
ENDBRANCH  11  12
ENDBRANCH   1  11
TORSDOF 8
ENDMDL