MODEL 3
REMARK VINA RESULT: -6.357088428      9.967     13.590
REMARK  8 active torsions:
REMARK  status: ('A' for Active; 'I' for Inactive)
REMARK    1  A    between atoms: N1_1  and  C1_5
REMARK    2  A    between atoms: C1_5  and  C2_6
REMARK    3  A    between atoms: C2_6  and  C3_7
REMARK    4  A    between atoms: C3_7  and  C4_8
REMARK    5  A    between atoms: C4_8  and  C5_9
REMARK    6  A    between atoms: C5_9  and  C6_10
REMARK    7  A    between atoms: C6_10  and  C7_11
REMARK    8  A    between atoms: C7_11  and  C8_12
ROOT
HETATM    1  C6  UNL     1      77.069 405.761 120.131  1.00  0.00     0.000 C
ENDROOT
BRANCH   1   2
HETATM    2  C5  UNL     1      76.875 407.079 119.393  1.00  0.00     0.000 C
BRANCH   2   3
HETATM    3  C4  UNL     1      78.240 407.669 119.203  1.00  0.00     0.000 C
BRANCH   3   4
HETATM    4  C3  UNL     1      78.391 409.048 119.754  1.00  0.00     0.002 C
BRANCH   4   5
HETATM    5  C2  UNL     1      77.066 409.599 120.159  1.00  0.00     0.027 C
BRANCH   5   6
HETATM    6  C1  UNL     1      77.213 410.580 121.328  1.00  0.00     0.229 C
BRANCH   6   7
HETATM    7  N1  UNL     1      78.641 410.787 121.502  1.00  0.00    -0.079 N
ATOM      8  H13 UNL     1      79.215 410.177 120.919  1.00  0.00     0.274 HD
ATOM      9  H12 UNL     1      78.974 411.672 121.120  1.00  0.00     0.274 HD
ATOM     10  H11 UNL     1      78.822 410.683 122.501  1.00  0.00     0.274 HD
ENDBRANCH   6   7
ENDBRANCH   5   6
ENDBRANCH   4   5
ENDBRANCH   3   4
ENDBRANCH   2   3
ENDBRANCH   1   2
BRANCH   1  11
HETATM   11  C7  UNL     1      78.537 405.388 120.155  1.00  0.00     0.004 C
BRANCH  11  12
HETATM   12  C8  UNL     1      78.727 403.914 119.807  1.00  0.00    -0.014 C
HETATM   13  C9  UNL     1      77.688 403.143 120.542  1.00  0.00     0.004 C
HETATM   14  C10 UNL     1      77.920 401.721 120.785  1.00  0.00     0.000 C
HETATM   15  C11 UNL     1      79.088 401.070 120.160  1.00  0.00     0.000 C
HETATM   16  C12 UNL     1      78.757 400.446 118.797  1.00  0.00     0.000 C
HETATM   17  C13 UNL     1      79.006 401.450 117.691  1.00  0.00     0.000 C
HETATM   18  C14 UNL     1      77.991 402.582 117.796  1.00  0.00     0.000 C
HETATM   19  C15 UNL     1      78.643 403.812 118.314  1.00  0.00     0.004 C
ENDBRANCH  11  12
ENDBRANCH   1  11
TORSDOF 8
ENDMDL