MODEL 5
REMARK VINA RESULT: -7.014333031      1.352      2.384
REMARK  6 active torsions:
REMARK  status: ('A' for Active; 'I' for Inactive)
REMARK    1  A    between atoms: C4_4  and  C5_5
REMARK    2  A    between atoms: C5_5  and  C6_6
REMARK    3  A    between atoms: C6_6  and  C7_7
REMARK    4  A    between atoms: C7_7  and  C8_8
REMARK    5  A    between atoms: C8_8  and  C9_9
REMARK    6  A    between atoms: C9_9  and  C10_10
ROOT
HETATM    1  C7  UNL     1      76.992 396.046 117.494  1.00  0.00     0.001 C
ENDROOT
BRANCH   1   2
HETATM    2  C6  UNL     1      77.686 394.971 116.695  1.00  0.00     0.005 C
BRANCH   2   3
HETATM    3  C5  UNL     1      76.613 393.983 116.230  1.00  0.00     0.038 C
BRANCH   3   4
HETATM    4  C4  UNL     1      77.144 392.589 116.268  1.00  0.00    -0.058 A
HETATM    5  C3  UNL     1      78.500 392.357 116.391  1.00  0.00     0.007 A
HETATM    6  C2  UNL     1      79.001 391.066 116.426  1.00  0.00     0.001 A
HETATM    7  C1  UNL     1      78.175 389.965 116.342  1.00  0.00     0.000 A
HETATM    8  C17 UNL     1      76.821 390.196 116.219  1.00  0.00     0.001 A
HETATM    9  C16 UNL     1      76.319 391.488 116.184  1.00  0.00     0.007 A
ENDBRANCH   3   4
ENDBRANCH   2   3
ENDBRANCH   1   2
BRANCH   1  10
HETATM   10  C8  UNL     1      76.148 395.512 118.611  1.00  0.00     0.005 C
BRANCH  10  11
HETATM   11  C9  UNL     1      76.999 395.026 119.747  1.00  0.00     0.038 C
BRANCH  11  12
HETATM   12  C10 UNL     1      77.106 393.544 119.775  1.00  0.00    -0.058 A
HETATM   13  C11 UNL     1      76.005 392.718 119.689  1.00  0.00     0.007 A
HETATM   14  C12 UNL     1      76.118 391.343 119.717  1.00  0.00     0.001 A
HETATM   15  C13 UNL     1      77.344 390.724 119.834  1.00  0.00     0.000 A
HETATM   16  C14 UNL     1      78.451 391.542 119.920  1.00  0.00     0.001 A
HETATM   17  C15 UNL     1      78.341 392.918 119.893  1.00  0.00     0.007 A
ENDBRANCH  11  12
ENDBRANCH  10  11
ENDBRANCH   1  10
TORSDOF 6
ENDMDL