MODEL 3
REMARK VINA RESULT: -6.824647942      2.257      7.093
REMARK  6 active torsions:
REMARK  status: ('A' for Active; 'I' for Inactive)
REMARK    1  A    between atoms: C5_5  and  C6_6
REMARK    2  A    between atoms: C6_6  and  C7_7
REMARK    3  A    between atoms: C7_7  and  C8_8
REMARK    4  A    between atoms: C8_8  and  C9_9
REMARK    5  A    between atoms: C9_9  and  N1_10
REMARK    6  A    between atoms: N1_10  and  C10_12
ROOT
HETATM    1  C9  UNL     1      76.355 400.024 119.390  1.00  0.00     0.119 C
ENDROOT
BRANCH   1   2
HETATM    2  C8  UNL     1      76.273 400.931 120.591  1.00  0.00     0.020 C
BRANCH   2   3
HETATM    3  C7  UNL     1      77.676 401.430 120.910  1.00  0.00     0.002 C
BRANCH   3   4
HETATM    4  C6  UNL     1      77.795 402.915 120.724  1.00  0.00     0.009 C
BRANCH   4   5
HETATM    5  C5  UNL     1      79.026 403.337 119.985  1.00  0.00     0.014 C
HETATM    6  C2  UNL     1      78.952 402.913 118.562  1.00  0.00    -0.085 C
HETATM    7  C1  UNL     1      79.188 401.811 117.866  1.00  0.00     0.014 C
HETATM    8  C3  UNL     1      78.484 404.281 118.210  1.00  0.00     0.034 C
HETATM    9  C4  UNL     1      79.083 404.759 119.516  1.00  0.00     0.013 C
ENDBRANCH   4   5
ENDBRANCH   3   4
ENDBRANCH   2   3
ENDBRANCH   1   2
BRANCH   1  10
HETATM   10  N1  UNL     1      77.365 399.010 119.568  1.00  0.00    -0.390 N
ATOM     11  H1  UNL     1      78.141 399.189 120.205  1.00  0.00     0.159 HD
BRANCH  10  12
HETATM   12  C10 UNL     1      77.308 397.778 118.884  1.00  0.00     0.027 A
HETATM   13  C11 UNL     1      76.199 396.968 118.952  1.00  0.00     0.029 A
HETATM   14  C12 UNL     1      76.160 395.749 118.267  1.00  0.00     0.002 A
HETATM   15  C13 UNL     1      77.244 395.354 117.515  1.00  0.00     0.000 A
HETATM   16  C14 UNL     1      78.354 396.154 117.440  1.00  0.00     0.002 A
HETATM   17  C15 UNL     1      78.375 397.357 118.125  1.00  0.00     0.029 A
ENDBRANCH  10  12
ENDBRANCH   1  10
TORSDOF 6
ENDMDL