MODEL 5
REMARK VINA RESULT: -6.242017819      7.562     10.461
REMARK  8 active torsions:
REMARK  status: ('A' for Active; 'I' for Inactive)
REMARK    1  A    between atoms: N1_1  and  C1_5
REMARK    2  A    between atoms: C1_5  and  C2_6
REMARK    3  A    between atoms: C5_9  and  C6_10
REMARK    4  A    between atoms: C6_10  and  C7_11
REMARK    5  A    between atoms: C7_11  and  C8_12
REMARK    6  A    between atoms: C8_12  and  C9_13
REMARK    7  A    between atoms: C9_13  and  C10_14
REMARK    8  A    between atoms: C10_14  and  C11_15
ROOT
HETATM    1  C2  UNL     1      77.468 396.114 117.663  1.00  0.00    -0.033 A
HETATM    2  C3  UNL     1      76.194 395.585 117.707  1.00  0.00     0.009 A
HETATM    3  C4  UNL     1      75.903 394.316 117.236  1.00  0.00     0.007 A
HETATM    4  C5  UNL     1      76.892 393.523 116.697  1.00  0.00    -0.058 A
HETATM    5  C14 UNL     1      78.165 394.053 116.654  1.00  0.00     0.007 A
HETATM    6  C15 UNL     1      78.461 395.326 117.125  1.00  0.00     0.009 A
ENDROOT
BRANCH   4   7
HETATM    7  C6  UNL     1      76.630 392.151 116.178  1.00  0.00     0.038 C
BRANCH   7   8
HETATM    8  C7  UNL     1      77.915 391.383 115.947  1.00  0.00     0.005 C
BRANCH   8   9
HETATM    9  C8  UNL     1      77.686 389.973 116.398  1.00  0.00     0.000 C
BRANCH   9  10
HETATM   10  C9  UNL     1      78.484 389.582 117.610  1.00  0.00     0.000 C
BRANCH  10  11
HETATM   11  C10 UNL     1      79.219 390.782 118.221  1.00  0.00     0.004 C
BRANCH  11  12
HETATM   12  C11 UNL     1      78.628 391.001 119.583  1.00  0.00    -0.014 A
HETATM   13  C12 UNL     1      77.191 391.272 119.777  1.00  0.00     0.005 A
HETATM   14  C13 UNL     1      78.134 392.409 119.877  1.00  0.00     0.005 A
ENDBRANCH  11  12
ENDBRANCH  10  11
ENDBRANCH   9  10
ENDBRANCH   8   9
ENDBRANCH   7   8
ENDBRANCH   4   7
BRANCH   1  15
HETATM   15  C1  UNL     1      77.790 397.484 118.169  1.00  0.00     0.268 C
BRANCH  15  16
HETATM   16  N1  UNL     1      77.577 397.571 119.601  1.00  0.00    -0.075 N
ATOM     17  H13 UNL     1      76.666 397.200 119.870  1.00  0.00     0.274 HD
ATOM     18  H12 UNL     1      78.168 396.914 120.110  1.00  0.00     0.274 HD
ATOM     19  H11 UNL     1      77.706 398.528 119.931  1.00  0.00     0.274 HD
ENDBRANCH  15  16
ENDBRANCH   1  15
TORSDOF 8
ENDMDL