MODEL 3
REMARK VINA RESULT: -6.722145252      1.707      2.369
REMARK  6 active torsions:
REMARK  status: ('A' for Active; 'I' for Inactive)
REMARK    1  A    between atoms: C2_4  and  C3_5
REMARK    2  A    between atoms: C3_5  and  C4_6
REMARK    3  A    between atoms: C4_6  and  C5_7
REMARK    4  A    between atoms: C5_7  and  C6_8
REMARK    5  A    between atoms: C6_8  and  C7_9
REMARK    6  A    between atoms: C7_9  and  C8_10
ROOT
HETATM    1  C4  UNL     1      78.243 407.332 118.999  1.00  0.00     0.006 C
ENDROOT
BRANCH   1   2
HETATM    2  C3  UNL     1      77.230 408.368 119.334  1.00  0.00     0.058 C
BRANCH   2   3
HETATM    3  C2  UNL     1      77.805 409.474 120.132  1.00  0.00     0.025 A
HETATM    4  N1  UNL     1      77.220 410.102 121.147  1.00  0.00    -0.355 N
HETATM    5  C1  UNL     1      78.044 411.039 121.618  1.00  0.00     0.180 A
ATOM      6  H1  UNL     1      76.289 409.899 121.510  1.00  0.00     0.166 HD
HETATM    7  N2  UNL     1      79.183 411.013 120.887  1.00  0.00    -0.360 N
HETATM    8  C14 UNL     1      79.036 410.048 119.972  1.00  0.00     0.113 A
ATOM      9  H2  UNL     1      79.999 411.613 121.010  1.00  0.00     0.166 HD
ENDBRANCH   2   3
ENDBRANCH   1   2
BRANCH   1  10
HETATM   10  C5  UNL     1      78.663 406.451 120.145  1.00  0.00     0.000 C
BRANCH  10  11
HETATM   11  C6  UNL     1      78.285 405.009 119.936  1.00  0.00     0.000 C
BRANCH  11  12
HETATM   12  C7  UNL     1      76.843 404.732 120.156  1.00  0.00     0.004 C
BRANCH  12  13
HETATM   13  C8  UNL     1      76.471 403.278 120.052  1.00  0.00    -0.014 C
HETATM   14  C9  UNL     1      77.487 402.363 120.663  1.00  0.00     0.004 C
HETATM   15  C10 UNL     1      76.953 400.958 120.700  1.00  0.00     0.000 C
HETATM   16  C11 UNL     1      75.751 400.760 119.819  1.00  0.00     0.000 C
HETATM   17  C12 UNL     1      75.847 401.472 118.502  1.00  0.00     0.000 C
HETATM   18  C13 UNL     1      76.302 402.888 118.600  1.00  0.00     0.004 C
ENDBRANCH  12  13
ENDBRANCH  11  12
ENDBRANCH  10  11
ENDBRANCH   1  10
TORSDOF 6
ENDMDL