MODEL 1
REMARK VINA RESULT: -8.324287313      0.000      0.000
REMARK  3 active torsions:
REMARK  status: ('A' for Active; 'I' for Inactive)
REMARK    1  A    between atoms: C7_7  and  N1_8
REMARK    2  A    between atoms: C11_16  and  C12_17
REMARK    3  A    between atoms: C13_19  and  N3_20
REMARK       I    between atoms: N5_27  and  C17_28
ROOT
HETATM    1  N1  UNL     1     -15.502 -39.793  -9.346  1.00  0.00    -0.289 N
HETATM    2  C8  UNL     1     -14.960 -39.597  -8.052  1.00  0.00     0.330 A
HETATM    3  O1  UNL     1     -13.768 -39.795  -7.712  1.00  0.00    -0.246 OA
HETATM    4  N2  UNL     1     -15.928 -39.134  -7.137  1.00  0.00    -0.273 N
ATOM      5  H2  UNL     1     -15.780 -38.920  -6.151  1.00  0.00     0.173 HD
HETATM    6  C9  UNL     1     -17.142 -39.022  -7.852  1.00  0.00     0.276 A
HETATM    7  O2  UNL     1     -18.229 -38.626  -7.301  1.00  0.00    -0.266 OA
HETATM    8  C10 UNL     1     -16.897 -39.425  -9.222  1.00  0.00     0.109 A
HETATM    9  C11 UNL     1     -17.784 -39.505 -10.183  1.00  0.00     0.056 C
ENDROOT
BRANCH   1  10
HETATM   10  C7  UNL     1     -14.886 -40.267 -10.526  1.00  0.00     0.107 C
HETATM   11  C3  UNL     1     -14.864 -41.732 -10.780  1.00  0.00     0.060 C
HETATM   12  C2  UNL     1     -13.843 -42.522 -10.085  1.00  0.00     0.012 C
HETATM   13  C4  UNL     1     -14.098 -41.655 -12.149  1.00  0.00     0.038 C
HETATM   14  C1  UNL     1     -14.111 -43.542  -9.295  1.00  0.00     0.039 C
HETATM   15  N5  UNL     1     -12.579 -42.000 -10.465  1.00  0.00    -0.318 N
HETATM   16  C5  UNL     1     -12.870 -41.028 -11.521  1.00  0.00     0.095 C
HETATM   17  C17 UNL     1     -11.293 -42.262 -10.013  1.00  0.00     0.220 C
HETATM   18  C6  UNL     1     -13.491 -39.825 -10.808  1.00  0.00     0.052 C
HETATM   19  C18 UNL     1     -10.980 -43.215  -8.944  1.00  0.00     0.117 C
HETATM   20  O3  UNL     1     -10.331 -41.624 -10.573  1.00  0.00    -0.273 OA
ENDBRANCH   1  10
BRANCH   9  21
HETATM   21  C12 UNL     1     -19.193 -39.120 -10.047  1.00  0.00     0.033 A
HETATM   22  S1  UNL     1     -20.494 -40.149  -9.661  1.00  0.00    -0.052 SA
HETATM   23  C13 UNL     1     -21.778 -38.989  -9.773  1.00  0.00     0.145 A
HETATM   24  N4  UNL     1     -21.123 -37.881 -10.101  1.00  0.00    -0.339 N
HETATM   25  C15 UNL     1     -19.817 -37.927 -10.245  1.00  0.00     0.024 A
ATOM     26  H4  UNL     1     -21.628 -37.004 -10.239  1.00  0.00     0.168 HD
HETATM   27  C16 UNL     1     -19.035 -36.687 -10.671  1.00  0.00     0.069 C
BRANCH  23  28
HETATM   28  N3  UNL     1     -23.039 -39.222  -9.573  1.00  0.00    -0.375 N
HETATM   29  C14 UNL     1     -23.508 -40.020  -8.504  1.00  0.00     0.148 C
ATOM     30  H3  UNL     1     -23.719 -38.814 -10.213  1.00  0.00     0.161 HD
ENDBRANCH  23  28
ENDBRANCH   9  21
TORSDOF 3
ENDMDL