MODEL 1
REMARK VINA RESULT: -8.873846214      0.000      0.000
REMARK  2 active torsions:
REMARK  status: ('A' for Active; 'I' for Inactive)
REMARK    1  A    between atoms: C5_6  and  N1_7
REMARK       I    between atoms: N1_7  and  C6_9
REMARK    2  A    between atoms: C6_9  and  C7_11
ROOT
HETATM    1  O1  UNL     1     -16.169 -35.445 -10.069  1.00  0.00    -0.291 OA
HETATM    2  C1  UNL     1     -16.403 -35.694 -11.232  1.00  0.00     0.171 C
HETATM    3  C2  UNL     1     -17.857 -35.856 -11.600  1.00  0.00     0.089 C
HETATM    4  C3  UNL     1     -18.592 -37.001 -10.950  1.00  0.00     0.037 C
HETATM    5  C4  UNL     1     -17.603 -38.112 -10.892  1.00  0.00    -0.001 C
HETATM    6  C5  UNL     1     -17.875 -39.396 -10.254  1.00  0.00     0.009 C
HETATM    7  C12 UNL     1     -16.703 -40.335 -10.652  1.00  0.00     0.069 C
HETATM    8  C13 UNL     1     -15.407 -39.683 -10.164  1.00  0.00     0.064 C
HETATM    9  C14 UNL     1     -14.375 -40.664  -9.649  1.00  0.00     0.013 C
HETATM   10  C15 UNL     1     -13.184 -39.732  -9.367  1.00  0.00     0.001 C
HETATM   11  C16 UNL     1     -12.366 -39.403 -10.558  1.00  0.00     0.003 C
HETATM   12  C17 UNL     1     -12.577 -37.977 -11.108  1.00  0.00     0.040 C
HETATM   13  C18 UNL     1     -14.017 -37.609 -11.172  1.00  0.00     0.197 C
HETATM   14  O4  UNL     1     -14.520 -36.919 -12.208  1.00  0.00    -0.347 OA
HETATM   15  C19 UNL     1     -15.245 -35.816 -12.114  1.00  0.00     0.185 C
HETATM   16  C20 UNL     1     -14.706 -38.970 -11.241  1.00  0.00     0.160 C
HETATM   17  O5  UNL     1     -14.694 -39.562 -12.293  1.00  0.00    -0.295 OA
ENDROOT
BRANCH   6  18
HETATM   18  N1  UNL     1     -19.059 -40.054 -10.045  1.00  0.00    -0.329 N
HETATM   19  C6  UNL     1     -19.932 -39.842  -8.922  1.00  0.00     0.244 C
HETATM   20  O2  UNL     1     -19.602 -39.131  -7.950  1.00  0.00    -0.271 OA
ATOM     21  H1  UNL     1     -19.342 -40.746 -10.739  1.00  0.00     0.168 HD
BRANCH  19  22
HETATM   22  C7  UNL     1     -21.279 -40.480  -8.947  1.00  0.00     0.171 C
HETATM   23  C8  UNL     1     -21.206 -41.642  -9.944  1.00  0.00     0.060 C
HETATM   24  C9  UNL     1     -22.507 -41.836 -10.661  1.00  0.00     0.170 C
HETATM   25  O3  UNL     1     -23.361 -42.665  -9.938  1.00  0.00    -0.389 OA
HETATM   26  C10 UNL     1     -23.754 -41.991  -8.788  1.00  0.00     0.186 C
HETATM   27  C11 UNL     1     -22.614 -42.027  -7.785  1.00  0.00     0.141 C
HETATM   28  N2  UNL     1     -21.932 -40.736  -7.788  1.00  0.00    -0.407 N
ATOM     29  H2  UNL     1     -21.946 -40.092  -6.998  1.00  0.00     0.154 HD
ENDBRANCH  19  22
ENDBRANCH   6  18
TORSDOF 2
ENDMDL