MODEL 5
REMARK VINA RESULT: -8.839427522      2.660      7.337
REMARK  3 active torsions:
REMARK  status: ('A' for Active; 'I' for Inactive)
REMARK       I    between atoms: N2_5  and  C4_6
REMARK    1  A    between atoms: C4_6  and  C5_8
REMARK    2  A    between atoms: C5_8  and  N3_9
REMARK       I    between atoms: N3_9  and  C6_11
REMARK    3  A    between atoms: C6_11  and  C7_13
ROOT
HETATM    1  N1  UNL     1     -16.028 -33.410  -9.920  1.00  0.00    -0.197 NA
HETATM    2  C1  UNL     1     -16.969 -34.038 -10.166  1.00  0.00     0.067 C
HETATM    3  C2  UNL     1     -18.142 -34.828 -10.477  1.00  0.00     0.129 C
HETATM    4  C3  UNL     1     -17.898 -35.905 -11.541  1.00  0.00     0.146 C
HETATM    5  N2  UNL     1     -17.537 -36.861 -10.520  1.00  0.00    -0.347 N
HETATM    6  C4  UNL     1     -16.789 -38.034 -10.470  1.00  0.00     0.248 C
HETATM    7  O1  UNL     1     -16.242 -38.428 -11.561  1.00  0.00    -0.271 OA
HETATM    8  C20 UNL     1     -18.285 -36.050  -9.593  1.00  0.00     0.146 C
ENDROOT
BRANCH   6   9
HETATM    9  C5  UNL     1     -16.561 -38.873  -9.279  1.00  0.00     0.117 C
HETATM   10  C16 UNL     1     -16.069 -40.220  -9.809  1.00  0.00     0.068 C
HETATM   11  C17 UNL     1     -14.873 -40.741  -9.066  1.00  0.00     0.235 C
HETATM   12  N4  UNL     1     -15.164 -40.612  -7.652  1.00  0.00    -0.075 N
HETATM   13  C18 UNL     1     -14.963 -39.200  -7.342  1.00  0.00     0.235 C
ATOM     14  H42 UNL     1     -16.085 -40.962  -7.389  1.00  0.00     0.277 HD
ATOM     15  H41 UNL     1     -14.622 -41.243  -7.062  1.00  0.00     0.277 HD
HETATM   16  C19 UNL     1     -15.553 -38.266  -8.331  1.00  0.00     0.068 C
BRANCH   9  17
HETATM   17  N3  UNL     1     -17.826 -39.113  -8.638  1.00  0.00    -0.341 N
HETATM   18  C6  UNL     1     -18.942 -39.791  -9.161  1.00  0.00     0.247 C
HETATM   19  O2  UNL     1     -18.974 -40.292 -10.309  1.00  0.00    -0.271 OA
ATOM     20  H3  UNL     1     -17.926 -38.746  -7.692  1.00  0.00     0.163 HD
BRANCH  18  21
HETATM   21  C7  UNL     1     -20.211 -39.984  -8.392  1.00  0.00     0.214 C
HETATM   22  C8  UNL     1     -21.297 -39.308  -9.169  1.00  0.00     0.046 C
HETATM   23  C9  UNL     1     -22.533 -39.011  -8.365  1.00  0.00    -0.009 C
HETATM   24  C10 UNL     1     -23.610 -40.035  -8.513  1.00  0.00     0.005 C
HETATM   25  C15 UNL     1     -22.208 -38.681  -6.937  1.00  0.00     0.036 C
HETATM   26  C11 UNL     1     -23.373 -41.316  -7.806  1.00  0.00     0.000 C
HETATM   27  C12 UNL     1     -23.092 -41.193  -6.345  1.00  0.00     0.002 C
HETATM   28  C13 UNL     1     -21.639 -40.958  -6.020  1.00  0.00     0.032 C
HETATM   29  C14 UNL     1     -21.161 -39.579  -6.335  1.00  0.00     0.122 C
HETATM   30  O3  UNL     1     -20.029 -39.526  -7.106  1.00  0.00    -0.371 OA
ENDBRANCH  18  21
ENDBRANCH   9  17
ENDBRANCH   6   9
TORSDOF 3
ENDMDL