MODEL 3
REMARK VINA RESULT: -8.163706402      3.969      5.488
REMARK  3 active torsions:
REMARK  status: ('A' for Active; 'I' for Inactive)
REMARK       I    between atoms: C2_2  and  N1_4
REMARK    1  A    between atoms: C5_7  and  N2_8
REMARK       I    between atoms: N2_8  and  C6_10
REMARK    2  A    between atoms: C6_10  and  C7_12
REMARK    3  A    between atoms: C9_15  and  N3_16
REMARK       I    between atoms: N3_16  and  C10_18
REMARK       I    between atoms: C10_18  and  N4_20
ROOT
HETATM    1  C7  UNL     1     -17.751 -38.567 -10.612  1.00  0.00     0.109 A
HETATM    2  C8  UNL     1     -17.514 -37.328 -11.171  1.00  0.00     0.088 A
HETATM    3  S1  UNL     1     -18.980 -36.509 -10.881  1.00  0.00    -0.063 SA
HETATM    4  C9  UNL     1     -19.808 -37.751 -10.077  1.00  0.00     0.153 A
HETATM    5  N5  UNL     1     -18.928 -38.751 -10.064  1.00  0.00    -0.332 N
ATOM      6  H5  UNL     1     -19.166 -39.644  -9.633  1.00  0.00     0.168 HD
ENDROOT
BRANCH   1   7
HETATM    7  C6  UNL     1     -16.672 -39.590 -10.670  1.00  0.00     0.269 C
HETATM    8  N2  UNL     1     -15.379 -39.269 -10.211  1.00  0.00    -0.351 N
ATOM      9  H2  UNL     1     -15.194 -38.336  -9.842  1.00  0.00     0.163 HD
HETATM   10  O2  UNL     1     -16.874 -40.735 -11.116  1.00  0.00    -0.266 OA
BRANCH   8  11
HETATM   11  C5  UNL     1     -14.292 -40.262 -10.257  1.00  0.00     0.087 C
HETATM   12  C4  UNL     1     -13.856 -40.509  -8.846  1.00  0.00     0.045 C
HETATM   13  C3  UNL     1     -12.368 -40.717  -8.795  1.00  0.00     0.127 C
HETATM   14  N1  UNL     1     -11.944 -41.367  -9.997  1.00  0.00    -0.352 N
HETATM   15  C2  UNL     1     -11.475 -42.682 -10.019  1.00  0.00     0.215 C
HETATM   16  C17 UNL     1     -12.022 -40.599 -11.229  1.00  0.00     0.127 C
HETATM   17  C1  UNL     1     -11.409 -43.455  -8.740  1.00  0.00     0.117 C
HETATM   18  O1  UNL     1     -11.091 -43.286 -11.058  1.00  0.00    -0.274 OA
HETATM   19  C16 UNL     1     -13.231 -39.671 -11.157  1.00  0.00     0.045 C
ENDBRANCH   8  11
ENDBRANCH   1   7
BRANCH   4  20
HETATM   20  N3  UNL     1     -21.031 -37.769  -9.573  1.00  0.00    -0.289 N
HETATM   21  C10 UNL     1     -21.802 -38.942  -9.571  1.00  0.00     0.324 C
HETATM   22  O3  UNL     1     -22.129 -39.460 -10.678  1.00  0.00    -0.247 OA
HETATM   23  N4  UNL     1     -22.197 -39.521  -8.351  1.00  0.00    -0.334 N
HETATM   24  C11 UNL     1     -21.813 -38.912  -7.106  1.00  0.00     0.127 C
HETATM   25  C15 UNL     1     -22.986 -40.722  -8.345  1.00  0.00     0.127 C
HETATM   26  C12 UNL     1     -22.742 -39.319  -5.981  1.00  0.00     0.020 C
HETATM   27  C13 UNL     1     -22.691 -40.810  -5.851  1.00  0.00     0.003 C
HETATM   28  C14 UNL     1     -22.580 -41.553  -7.140  1.00  0.00     0.020 C
ATOM     29  H3  UNL     1     -21.421 -36.913  -9.177  1.00  0.00     0.172 HD
ENDBRANCH   4  20
TORSDOF 3
ENDMDL