MODEL 5
REMARK VINA RESULT: -7.667484541      1.042      2.028
REMARK  7 active torsions:
REMARK  status: ('A' for Active; 'I' for Inactive)
REMARK    1  A    between atoms: C2_2  and  O1_3
REMARK    2  A    between atoms: O1_3  and  C3_4
REMARK       I    between atoms: C3_4  and  N1_6
REMARK    3  A    between atoms: N1_6  and  C5_8
REMARK    4  A    between atoms: C5_8  and  O3_9
REMARK    5  A    between atoms: C5_8  and  N2_11
REMARK    6  A    between atoms: N3_16  and  O4_17
REMARK    7  A    between atoms: C14_26  and  C15_27
ROOT
HETATM    1  N2  UNL     1     -18.502 -39.840  -9.577  1.00  0.00    -0.335 N
HETATM    2  C6  UNL     1     -17.011 -39.709  -9.058  1.00  0.00     0.163 C
HETATM    3  C7  UNL     1     -16.807 -38.441  -9.747  1.00  0.00    -0.042 C
HETATM    4  C8  UNL     1     -16.313 -38.458 -10.949  1.00  0.00    -0.004 C
HETATM    5  C9  UNL     1     -16.089 -37.212 -11.790  1.00  0.00     0.149 C
HETATM    6  N3  UNL     1     -17.384 -36.597 -11.899  1.00  0.00    -0.182 NA
HETATM    7  C10 UNL     1     -18.318 -36.502 -10.914  1.00  0.00     0.186 C
HETATM    8  C11 UNL     1     -17.775 -35.294 -10.084  1.00  0.00     0.238 C
HETATM    9  O5  UNL     1     -18.099 -34.124 -10.137  1.00  0.00    -0.272 OA
HETATM   10  N4  UNL     1     -16.813 -35.997  -9.280  1.00  0.00    -0.351 N
ATOM     11  H4  UNL     1     -15.910 -35.637  -8.971  1.00  0.00     0.163 HD
HETATM   12  C12 UNL     1     -17.339 -37.272  -8.995  1.00  0.00     0.123 C
HETATM   13  C13 UNL     1     -18.726 -37.294  -9.793  1.00  0.00     0.068 C
HETATM   14  C14 UNL     1     -19.275 -38.644  -9.744  1.00  0.00     0.119 C
ENDROOT
BRANCH   1  15
HETATM   15  C5  UNL     1     -18.852 -41.160  -9.796  1.00  0.00     0.226 C
BRANCH  15  16
HETATM   16  N1  UNL     1     -19.471 -42.149  -9.022  1.00  0.00    -0.264 N
HETATM   17  C3  UNL     1     -20.908 -42.344  -9.164  1.00  0.00     0.369 C
HETATM   18  O2  UNL     1     -21.477 -43.218  -8.487  1.00  0.00    -0.238 OA
HETATM   19  C4  UNL     1     -18.843 -43.023  -8.081  1.00  0.00     0.165 C
BRANCH  17  20
HETATM   20  O1  UNL     1     -21.639 -41.574 -10.033  1.00  0.00    -0.304 OA
BRANCH  20  21
HETATM   21  C2  UNL     1     -22.949 -41.989 -10.370  1.00  0.00     0.176 C
HETATM   22  C1  UNL     1     -23.943 -41.109  -9.662  1.00  0.00     0.034 C
ENDBRANCH  20  21
ENDBRANCH  17  20
ENDBRANCH  15  16
BRANCH  15  23
HETATM   23  O3  UNL     1     -18.525 -41.572 -11.018  1.00  0.00    -0.332 OA
ATOM     24  H3  UNL     1     -17.829 -42.218 -11.025  1.00  0.00     0.221 HD
ENDBRANCH  15  23
ENDBRANCH   1  15
BRANCH  14  25
HETATM   25  C15 UNL     1     -20.211 -38.646  -8.513  1.00  0.00     0.001 C
HETATM   26  C16 UNL     1     -21.489 -38.359  -8.643  1.00  0.00    -0.089 C
HETATM   27  C17 UNL     1     -22.320 -38.386  -7.402  1.00  0.00     0.042 C
HETATM   28  C18 UNL     1     -22.158 -38.019  -9.900  1.00  0.00     0.042 C
ENDBRANCH  14  25
BRANCH   6  29
HETATM   29  O4  UNL     1     -17.207 -35.362 -12.476  1.00  0.00    -0.312 OA
ATOM     30  H4  UNL     1     -16.711 -35.490 -13.277  1.00  0.00     0.237 HD
ENDBRANCH   6  29
TORSDOF 7
ENDMDL