MODEL 4
REMARK VINA RESULT: -9.194253592      3.903      8.024
REMARK  4 active torsions:
REMARK  status: ('A' for Active; 'I' for Inactive)
REMARK    1  A    between atoms: N1_1  and  C1_4
REMARK    2  A    between atoms: C2_5  and  C3_6
REMARK       I    between atoms: C3_6  and  N2_8
REMARK    3  A    between atoms: N4_18  and  C10_19
REMARK    4  A    between atoms: C10_19  and  C11_20
REMARK       I    between atoms: C11_20  and  N5_22
ROOT
HETATM    1  C1  UNL     1     -17.568 -40.471  -8.235  1.00  0.00     0.133 A
HETATM    2  C2  UNL     1     -16.325 -40.965  -7.913  1.00  0.00     0.093 A
HETATM    3  C9  UNL     1     -15.816 -40.105  -6.954  1.00  0.00     0.128 A
HETATM    4  N3  UNL     1     -16.760 -39.143  -6.741  1.00  0.00    -0.307 N
ATOM      5  H3  UNL     1     -16.666 -38.368  -6.084  1.00  0.00     0.186 HD
HETATM    6  N4  UNL     1     -17.801 -39.357  -7.499  1.00  0.00    -0.268 N
ENDROOT
BRANCH   6   7
HETATM    7  C10 UNL     1     -19.019 -38.555  -7.567  1.00  0.00     0.253 C
BRANCH   7   8
HETATM    8  C11 UNL     1     -19.364 -38.252  -8.965  1.00  0.00     0.239 C
HETATM    9  O3  UNL     1     -20.305 -38.842  -9.516  1.00  0.00    -0.271 OA
HETATM   10  N5  UNL     1     -18.599 -37.278  -9.657  1.00  0.00    -0.350 N
HETATM   11  C12 UNL     1     -18.815 -36.871 -11.034  1.00  0.00     0.126 C
HETATM   12  C20 UNL     1     -17.484 -36.508  -9.168  1.00  0.00     0.135 C
HETATM   13  C13 UNL     1     -18.539 -35.404 -10.994  1.00  0.00     0.031 C
HETATM   14  C14 UNL     1     -17.419 -35.259 -10.024  1.00  0.00    -0.023 C
HETATM   15  C15 UNL     1     -16.063 -35.213 -10.662  1.00  0.00     0.011 C
HETATM   16  C19 UNL     1     -17.686 -34.085  -9.111  1.00  0.00     0.011 C
HETATM   17  C16 UNL     1     -15.657 -33.865 -11.151  1.00  0.00     0.001 C
HETATM   18  C17 UNL     1     -15.979 -32.746 -10.209  1.00  0.00     0.000 C
HETATM   19  C18 UNL     1     -17.486 -32.818  -9.935  1.00  0.00     0.001 C
ENDBRANCH   7   8
ENDBRANCH   6   7
BRANCH   1  20
HETATM   20  N1  UNL     1     -18.373 -40.996  -9.101  1.00  0.00    -0.383 N
ATOM     21  H12 UNL     1     -18.318 -41.943  -9.480  1.00  0.00     0.157 HD
ATOM     22  H11 UNL     1     -19.174 -40.521  -9.519  1.00  0.00     0.157 HD
ENDBRANCH   1  20
BRANCH   2  23
HETATM   23  C3  UNL     1     -15.673 -42.161  -8.475  1.00  0.00     0.259 C
HETATM   24  O1  UNL     1     -16.186 -43.275  -8.236  1.00  0.00    -0.267 OA
HETATM   25  N2  UNL     1     -14.500 -42.077  -9.265  1.00  0.00    -0.341 N
HETATM   26  C4  UNL     1     -13.950 -40.759  -9.509  1.00  0.00     0.127 C
HETATM   27  C8  UNL     1     -13.920 -43.283  -9.779  1.00  0.00     0.204 C
HETATM   28  C5  UNL     1     -12.526 -40.815  -9.990  1.00  0.00     0.027 C
HETATM   29  C6  UNL     1     -11.755 -41.975  -9.476  1.00  0.00     0.081 C
HETATM   30  C7  UNL     1     -12.464 -43.256  -9.475  1.00  0.00     0.144 C
HETATM   31  O2  UNL     1     -11.873 -44.286  -9.230  1.00  0.00    -0.296 OA
ENDBRANCH   2  23
TORSDOF 4
ENDMDL