MODEL 3
REMARK VINA RESULT: -8.233881519      4.438      8.171
REMARK  2 active torsions:
REMARK  status: ('A' for Active; 'I' for Inactive)
REMARK       I    between atoms: C1_2  and  N1_3
REMARK       I    between atoms: C1_2  and  N2_15
REMARK    1  A    between atoms: N1_3  and  C2_5
REMARK    2  A    between atoms: N2_15  and  N3_17
ROOT
HETATM    1  O1  UNL     1     -19.042 -40.139  -7.942  1.00  0.00    -0.246 OA
HETATM    2  C1  UNL     1     -19.596 -39.043  -7.687  1.00  0.00     0.331 C
HETATM    3  N1  UNL     1     -19.060 -37.806  -8.196  1.00  0.00    -0.337 N
ATOM      4  H1  UNL     1     -19.540 -36.936  -7.966  1.00  0.00     0.164 HD
HETATM    5  N2  UNL     1     -20.761 -39.048  -6.887  1.00  0.00    -0.270 N
ATOM      6  H2  UNL     1     -21.228 -38.169  -6.666  1.00  0.00     0.185 HD
ENDROOT
BRANCH   3   7
HETATM    7  C2  UNL     1     -17.883 -37.744  -9.012  1.00  0.00     0.094 C
HETATM    8  C3  UNL     1     -18.212 -38.100 -10.436  1.00  0.00     0.009 C
HETATM    9  C4  UNL     1     -16.957 -38.259 -11.271  1.00  0.00     0.011 C
HETATM   10  C8  UNL     1     -19.062 -37.033 -11.034  1.00  0.00     0.011 C
HETATM   11  C5  UNL     1     -16.180 -36.968 -11.164  1.00  0.00    -0.013 C
HETATM   12  C6  UNL     1     -17.001 -35.901 -11.874  1.00  0.00     0.009 C
HETATM   13  C11 UNL     1     -15.873 -36.598  -9.746  1.00  0.00     0.011 C
HETATM   14  C7  UNL     1     -18.289 -35.738 -11.104  1.00  0.00    -0.013 C
HETATM   15  C9  UNL     1     -17.955 -35.329  -9.700  1.00  0.00     0.011 C
HETATM   16  C10 UNL     1     -17.193 -36.401  -8.991  1.00  0.00     0.009 C
ENDBRANCH   3   7
BRANCH   5  17
HETATM   17  N3  UNL     1     -21.269 -40.232  -6.404  1.00  0.00    -0.211 NA
HETATM   18  C12 UNL     1     -21.657 -40.100  -4.985  1.00  0.00     0.188 C
HETATM   19  S1  UNL     1     -22.566 -41.691  -4.759  1.00  0.00    -0.145 SA
HETATM   20  C13 UNL     1     -22.653 -42.097  -6.522  1.00  0.00     0.083 C
HETATM   21  C14 UNL     1     -24.030 -42.385  -7.021  1.00  0.00     0.157 C
HETATM   22  C16 UNL     1     -22.452 -40.662  -7.049  1.00  0.00     0.109 C
HETATM   23  S2  UNL     1     -23.773 -41.962  -8.761  1.00  0.00     0.147 S
HETATM   24  O2  UNL     1     -23.375 -43.188  -9.488  1.00  0.00    -0.228 OA
HETATM   25  O3  UNL     1     -24.939 -41.252  -9.319  1.00  0.00    -0.228 OA
HETATM   26  C15 UNL     1     -22.368 -40.847  -8.528  1.00  0.00     0.163 C
ENDBRANCH   5  17
TORSDOF 2
ENDMDL