MODEL 1
REMARK VINA RESULT: -6.671836299      0.000      0.000
REMARK  5 active torsions:
REMARK  status: ('A' for Active; 'I' for Inactive)
REMARK    1  A    between atoms: N1_2  and  C2_4
REMARK    2  A    between atoms: C2_4  and  C3_6
REMARK    3  A    between atoms: C5_10  and  N3_11
REMARK    4  A    between atoms: N3_11  and  C6_13
REMARK    5  A    between atoms: C6_13  and  N4_15
ROOT
HETATM    1  C3  UNL     1     -16.345 -39.344  -8.412  1.00  0.00     0.089 A
HETATM    2  S2  UNL     1     -15.118 -40.563  -8.616  1.00  0.00    -0.058 SA
HETATM    3  C4  UNL     1     -14.032 -39.646  -9.505  1.00  0.00     0.116 A
HETATM    4  N2  UNL     1     -14.597 -38.465  -9.627  1.00  0.00    -0.321 N
HETATM    5  C5  UNL     1     -15.826 -38.273  -9.053  1.00  0.00     0.131 A
HETATM    6  C11 UNL     1     -13.766 -37.492 -10.397  1.00  0.00     0.133 C
HETATM    7  C12 UNL     1     -13.528 -38.095 -11.789  1.00  0.00     0.031 C
HETATM    8  C13 UNL     1     -12.334 -39.016 -11.786  1.00  0.00     0.083 C
HETATM    9  S4  UNL     1     -12.387 -39.962 -10.248  1.00  0.00    -0.104 SA
ENDROOT
BRANCH   5  10
HETATM   10  N3  UNL     1     -16.375 -36.941  -9.038  1.00  0.00    -0.318 N
ATOM     11  H3  UNL     1     -16.068 -36.395  -8.233  1.00  0.00     0.170 HD
BRANCH  10  12
HETATM   12  C6  UNL     1     -17.224 -36.240  -9.872  1.00  0.00     0.175 C
HETATM   13  S3  UNL     1     -18.552 -36.833 -10.577  1.00  0.00    -0.041 SA
BRANCH  12  14
HETATM   14  N4  UNL     1     -17.021 -34.804 -10.050  1.00  0.00    -0.354 N
HETATM   15  C7  UNL     1     -15.937 -34.381 -10.882  1.00  0.00     0.151 C
HETATM   16  C8  UNL     1     -15.553 -32.939 -10.613  1.00  0.00     0.187 C
HETATM   17  O1  UNL     1     -16.070 -32.490  -9.398  1.00  0.00    -0.388 OA
HETATM   18  C9  UNL     1     -17.454 -32.472  -9.473  1.00  0.00     0.187 C
HETATM   19  C10 UNL     1     -17.927 -33.923  -9.369  1.00  0.00     0.151 C
ENDBRANCH  12  14
ENDBRANCH  10  12
ENDBRANCH   5  10
BRANCH   1  20
HETATM   20  C2  UNL     1     -17.652 -39.628  -7.774  1.00  0.00     0.117 C
HETATM   21  S1  UNL     1     -18.560 -40.814  -8.405  1.00  0.00    -0.059 SA
BRANCH  20  22
HETATM   22  N1  UNL     1     -18.137 -38.868  -6.711  1.00  0.00    -0.384 N
HETATM   23  C1  UNL     1     -19.351 -38.101  -6.718  1.00  0.00     0.147 C
ATOM     24  H1  UNL     1     -17.582 -38.855  -5.854  1.00  0.00     0.160 HD
ENDBRANCH  20  22
ENDBRANCH   1  20
TORSDOF 5
ENDMDL