MODEL 4
REMARK VINA RESULT: -8.811502843      3.321      5.922
REMARK  4 active torsions:
REMARK  status: ('A' for Active; 'I' for Inactive)
REMARK    1  A    between atoms: C4_4  and  N1_5
REMARK    2  A    between atoms: N1_5  and  C5_7
REMARK    3  A    between atoms: C6_10  and  N3_11
REMARK    4  A    between atoms: N3_11  and  C7_13
ROOT
HETATM    1  C1  UNL     1     -18.163 -35.965 -11.311  1.00  0.00     0.049 C
HETATM    2  C2  UNL     1     -18.714 -37.238 -10.775  1.00  0.00    -0.052 A
HETATM    3  C3  UNL     1     -19.986 -37.360 -10.264  1.00  0.00     0.037 A
HETATM    4  C4  UNL     1     -20.505 -38.531  -9.765  1.00  0.00     0.035 A
HETATM    5  C14 UNL     1     -19.712 -39.656  -9.775  1.00  0.00     0.052 A
HETATM    6  C15 UNL     1     -18.434 -39.557 -10.282  1.00  0.00     0.053 A
HETATM    7  C16 UNL     1     -17.624 -40.758 -10.278  1.00  0.00     0.100 C
HETATM    8  N6  UNL     1     -16.970 -41.716 -10.291  1.00  0.00    -0.191 NA
HETATM    9  C17 UNL     1     -17.931 -38.376 -10.777  1.00  0.00    -0.035 A
HETATM   10  C18 UNL     1     -16.529 -38.322 -11.319  1.00  0.00     0.050 C
ENDROOT
BRANCH   4  11
HETATM   11  N1  UNL     1     -21.806 -38.550  -9.269  1.00  0.00    -0.340 N
ATOM     12  H1  UNL     1     -22.240 -37.649  -9.073  1.00  0.00     0.167 HD
BRANCH  11  13
HETATM   13  C5  UNL     1     -22.513 -39.603  -9.036  1.00  0.00     0.151 A
HETATM   14  N2  UNL     1     -23.248 -40.143 -10.024  1.00  0.00    -0.174 N
HETATM   15  C6  UNL     1     -24.009 -41.246  -9.841  1.00  0.00     0.680 A
ATOM     16  H2  UNL     1     -23.230 -39.704 -10.945  1.00  0.00     0.186 HD
HETATM   17  N4  UNL     1     -24.025 -41.816  -8.631  1.00  0.00    -0.192 N
HETATM   18  C10 UNL     1     -23.281 -41.283  -7.601  1.00  0.00     0.073 A
ATOM     19  H4  UNL     1     -24.591 -42.650  -8.470  1.00  0.00     0.184 HD
HETATM   20  C11 UNL     1     -22.522 -40.184  -7.778  1.00  0.00     0.113 A
HETATM   21  C13 UNL     1     -23.259 -41.881  -6.245  1.00  0.00     0.223 C
HETATM   22  N5  UNL     1     -21.817 -39.744  -6.630  1.00  0.00    -0.274 N
HETATM   23  C12 UNL     1     -20.724 -38.817  -6.530  1.00  0.00     0.170 C
HETATM   24  S1  UNL     1     -22.544 -40.568  -5.294  1.00  0.00     0.238 S
HETATM   25  O1  UNL     1     -23.604 -39.701  -4.674  1.00  0.00    -0.205 OA
HETATM   26  O2  UNL     1     -21.545 -41.065  -4.314  1.00  0.00    -0.205 OA
BRANCH  15  27
HETATM   27  N3  UNL     1     -24.672 -41.696 -10.814  1.00  0.00    -0.222 N
ATOM     28  H3  UNL     1     -24.162 -41.714 -11.696  1.00  0.00     0.178 HD
BRANCH  27  29
HETATM   29  C7  UNL     1     -25.998 -42.180 -10.900  1.00  0.00     0.091 C
HETATM   30  C8  UNL     1     -26.252 -43.039 -12.138  1.00  0.00     0.032 C
HETATM   31  C9  UNL     1     -27.058 -41.136 -10.714  1.00  0.00     0.032 C
ENDBRANCH  27  29
ENDBRANCH  15  27
ENDBRANCH  11  13
ENDBRANCH   4  11
TORSDOF 4
ENDMDL