MODEL 3
REMARK VINA RESULT: -7.343536808      2.026      3.136
REMARK  4 active torsions:
REMARK  status: ('A' for Active; 'I' for Inactive)
REMARK       I    between atoms: N1_7  and  C7_8
REMARK    1  A    between atoms: C7_8  and  O2_10
REMARK    2  A    between atoms: O2_10  and  C8_11
REMARK    3  A    between atoms: C15_21  and  N3_22
REMARK    4  A    between atoms: N3_22  and  S1_24
ROOT
HETATM    1  C1  UNL     1     -17.640 -35.157  -9.465  1.00  0.00     0.011 C
HETATM    2  C2  UNL     1     -17.720 -36.678  -9.397  1.00  0.00     0.000 C
HETATM    3  C3  UNL     1     -16.416 -37.343  -9.625  1.00  0.00     0.014 C
HETATM    4  C4  UNL     1     -16.414 -38.653 -10.306  1.00  0.00     0.034 C
HETATM    5  C5  UNL     1     -17.124 -39.774  -9.624  1.00  0.00     0.108 C
HETATM    6  C6  UNL     1     -18.432 -39.436  -9.005  1.00  0.00     0.153 C
HETATM    7  N1  UNL     1     -19.212 -38.476  -9.701  1.00  0.00    -0.326 N
HETATM    8  C7  UNL     1     -20.575 -38.787  -9.832  1.00  0.00     0.363 C
HETATM    9  O1  UNL     1     -21.362 -37.993 -10.439  1.00  0.00    -0.238 OA
HETATM   10  C12 UNL     1     -18.802 -37.230 -10.288  1.00  0.00     0.132 C
HETATM   11  N2  UNL     1     -17.269 -40.831 -10.607  1.00  0.00    -0.354 N
ATOM     12  H2  UNL     1     -18.099 -41.422 -10.642  1.00  0.00     0.162 HD
HETATM   13  C13 UNL     1     -16.191 -40.997 -11.518  1.00  0.00     0.220 C
HETATM   14  O3  UNL     1     -16.332 -41.542 -12.641  1.00  0.00    -0.274 OA
HETATM   15  C14 UNL     1     -14.876 -40.481 -11.055  1.00  0.00     0.129 C
HETATM   16  C15 UNL     1     -14.970 -39.072 -10.505  1.00  0.00     0.107 C
ENDROOT
BRANCH   8  17
HETATM   17  O2  UNL     1     -21.166 -39.939  -9.336  1.00  0.00    -0.294 OA
BRANCH  17  18
HETATM   18  C8  UNL     1     -21.896 -39.930  -8.122  1.00  0.00     0.061 C
HETATM   19  C9  UNL     1     -23.370 -40.090  -8.428  1.00  0.00     0.046 C
HETATM   20  C10 UNL     1     -21.690 -38.647  -7.350  1.00  0.00     0.046 C
HETATM   21  C11 UNL     1     -21.435 -41.075  -7.259  1.00  0.00     0.046 C
ENDBRANCH  17  18
ENDBRANCH   8  17
BRANCH  16  22
HETATM   22  N3  UNL     1     -14.238 -38.226 -11.402  1.00  0.00    -0.314 N
ATOM     23  H3  UNL     1     -14.660 -37.728 -12.185  1.00  0.00     0.172 HD
BRANCH  22  24
HETATM   24  S1  UNL     1     -12.565 -38.144 -11.005  1.00  0.00     0.223 S
HETATM   25  C16 UNL     1     -12.131 -36.530 -10.393  1.00  0.00     0.185 C
HETATM   26  O4  UNL     1     -12.253 -39.120  -9.890  1.00  0.00    -0.206 OA
HETATM   27  O5  UNL     1     -11.722 -38.452 -12.195  1.00  0.00    -0.206 OA
ENDBRANCH  22  24
ENDBRANCH  16  22
TORSDOF 4
ENDMDL