MODEL 1
REMARK VINA RESULT: -7.770627325      0.000      0.000
REMARK  6 active torsions:
REMARK  status: ('A' for Active; 'I' for Inactive)
REMARK       I    between atoms: C1_2  and  N1_3
REMARK    1  A    between atoms: C1_2  and  C15_27
REMARK    2  A    between atoms: N1_3  and  C2_5
REMARK    3  A    between atoms: N4_14  and  C7_15
REMARK    4  A    between atoms: C7_15  and  O2_16
REMARK    5  A    between atoms: C7_15  and  N5_18
REMARK    6  A    between atoms: C12_23  and  C13_24
ROOT
HETATM    1  C2  UNL     1     -15.844 -36.480 -11.351  1.00  0.00     0.131 A
HETATM    2  N2  UNL     1     -14.601 -37.021 -11.174  1.00  0.00    -0.285 N
ATOM      3  H2  UNL     1     -13.711 -36.530 -11.262  1.00  0.00     0.188 HD
HETATM    4  N3  UNL     1     -14.764 -38.293 -10.869  1.00  0.00    -0.301 N
ATOM      5  H3  UNL     1     -14.000 -38.944 -10.683  1.00  0.00     0.186 HD
HETATM    6  C3  UNL     1     -16.067 -38.621 -10.834  1.00  0.00     0.053 A
HETATM    7  C4  UNL     1     -16.764 -37.468 -11.140  1.00  0.00     0.015 A
HETATM    8  C5  UNL     1     -18.274 -37.515 -11.164  1.00  0.00     0.064 C
HETATM    9  C6  UNL     1     -18.582 -38.382  -9.931  1.00  0.00     0.131 C
HETATM   10  N4  UNL     1     -18.114 -39.760 -10.163  1.00  0.00    -0.342 N
HETATM   11  C14 UNL     1     -16.752 -39.912 -10.559  1.00  0.00     0.185 C
ENDROOT
BRANCH  10  12
HETATM   12  C7  UNL     1     -19.058 -40.777  -9.972  1.00  0.00     0.217 C
BRANCH  12  13
HETATM   13  O2  UNL     1     -18.735 -41.940 -10.459  1.00  0.00    -0.332 OA
ATOM     14  H2  UNL     1     -19.035 -42.690  -9.959  1.00  0.00     0.220 HD
ENDBRANCH  12  13
BRANCH  12  15
HETATM   15  N5  UNL     1     -20.304 -40.758  -9.339  1.00  0.00    -0.342 N
HETATM   16  C8  UNL     1     -21.539 -40.695 -10.170  1.00  0.00     0.127 C
HETATM   17  C9  UNL     1     -22.142 -39.302 -10.043  1.00  0.00     0.020 C
HETATM   18  C10 UNL     1     -21.930 -38.753  -8.647  1.00  0.00     0.004 C
HETATM   19  C11 UNL     1     -21.856 -39.895  -7.655  1.00  0.00     0.026 C
HETATM   20  C12 UNL     1     -20.621 -40.781  -7.938  1.00  0.00     0.097 C
BRANCH  20  21
HETATM   21  C13 UNL     1     -21.040 -42.197  -7.501  1.00  0.00     0.111 C
HETATM   22  S1  UNL     1     -22.697 -42.184  -6.797  1.00  0.00    -0.096 SA
ENDBRANCH  20  21
ENDBRANCH  12  15
ENDBRANCH  10  12
BRANCH   1  23
HETATM   23  N1  UNL     1     -16.056 -35.239 -11.662  1.00  0.00    -0.311 N
HETATM   24  C1  UNL     1     -15.786 -34.228 -10.713  1.00  0.00     0.237 C
HETATM   25  O1  UNL     1     -14.810 -33.470 -10.862  1.00  0.00    -0.272 OA
ATOM     26  H1  UNL     1     -16.415 -34.994 -12.585  1.00  0.00     0.170 HD
BRANCH  24  27
HETATM   27  C15 UNL     1     -16.680 -34.084  -9.540  1.00  0.00     0.149 A
HETATM   28  C16 UNL     1     -18.175 -34.036  -9.948  1.00  0.00     0.099 A
HETATM   29  S2  UNL     1     -17.479 -32.614  -9.117  1.00  0.00    -0.152 SA
ENDBRANCH  24  27
ENDBRANCH   1  23
TORSDOF 6
ENDMDL