MODEL 5
REMARK VINA RESULT: -6.871725641      2.940      5.358
REMARK  6 active torsions:
REMARK  status: ('A' for Active; 'I' for Inactive)
REMARK    1  A    between atoms: C3_3  and  N1_4
REMARK       I    between atoms: N1_4  and  C4_6
REMARK       I    between atoms: C4_6  and  N2_8
REMARK    2  A    between atoms: N2_8  and  C5_10
REMARK    3  A    between atoms: N3_15  and  C10_16
REMARK    4  A    between atoms: C10_16  and  O2_17
REMARK    5  A    between atoms: C10_16  and  N4_19
REMARK    6  A    between atoms: C16_26  and  C18_28
ROOT
HETATM    1  C1  UNL     1     -18.673 -41.555 -10.313  1.00  0.00     0.013 C
HETATM    2  C2  UNL     1     -18.150 -40.342  -9.570  1.00  0.00     0.022 C
HETATM    3  C3  UNL     1     -17.963 -40.588  -8.106  1.00  0.00     0.109 C
HETATM    4  C9  UNL     1     -16.607 -41.223  -7.792  1.00  0.00     0.152 C
HETATM    5  N3  UNL     1     -15.547 -40.589  -8.480  1.00  0.00    -0.344 N
HETATM    6  C15 UNL     1     -15.916 -39.334  -9.176  1.00  0.00     0.143 C
HETATM    7  C16 UNL     1     -16.926 -39.747 -10.229  1.00  0.00     0.031 C
HETATM    8  C17 UNL     1     -16.292 -40.775 -11.123  1.00  0.00     0.025 C
ENDROOT
BRANCH   3   9
HETATM    9  N1  UNL     1     -18.960 -41.561  -7.688  1.00  0.00    -0.337 N
HETATM   10  C4  UNL     1     -20.202 -41.168  -7.156  1.00  0.00     0.317 C
HETATM   11  O1  UNL     1     -20.452 -39.949  -7.043  1.00  0.00    -0.247 OA
HETATM   12  N2  UNL     1     -21.151 -42.128  -6.757  1.00  0.00    -0.335 N
ATOM     13  H2  UNL     1     -20.944 -43.122  -6.851  1.00  0.00     0.165 HD
ATOM     14  H1  UNL     1     -18.753 -42.556  -7.783  1.00  0.00     0.164 HD
BRANCH  12  15
HETATM   15  C5  UNL     1     -22.442 -41.693  -6.204  1.00  0.00     0.023 C
HETATM   16  C6  UNL     1     -22.161 -40.895  -4.944  1.00  0.00     0.037 C
HETATM   17  C7  UNL     1     -23.163 -40.879  -7.247  1.00  0.00     0.037 C
HETATM   18  C8  UNL     1     -23.247 -42.935  -5.899  1.00  0.00     0.037 C
ENDBRANCH  12  15
ENDBRANCH   3   9
BRANCH   7  19
HETATM   19  C18 UNL     1     -17.273 -38.568 -11.067  1.00  0.00     0.242 C
HETATM   20  O3  UNL     1     -18.398 -38.091 -11.106  1.00  0.00    -0.306 OA
ENDBRANCH   7  19
BRANCH   5  21
HETATM   21  C10 UNL     1     -14.225 -41.019  -8.563  1.00  0.00     0.217 C
BRANCH  21  22
HETATM   22  O2  UNL     1     -13.408 -40.309  -7.813  1.00  0.00    -0.333 OA
ATOM     23  H2  UNL     1     -12.897 -40.843  -7.215  1.00  0.00     0.220 HD
ENDBRANCH  21  22
BRANCH  21  24
HETATM   24  N4  UNL     1     -13.653 -42.065  -9.307  1.00  0.00    -0.346 N
HETATM   25  C11 UNL     1     -13.871 -43.437  -8.787  1.00  0.00     0.136 C
HETATM   26  C12 UNL     1     -14.994 -44.008  -9.660  1.00  0.00     0.093 C
HETATM   27  S1  UNL     1     -14.298 -44.024 -11.360  1.00  0.00    -0.166 SA
HETATM   28  C13 UNL     1     -12.686 -43.201 -11.244  1.00  0.00     0.093 C
HETATM   29  C14 UNL     1     -12.903 -41.882 -10.491  1.00  0.00     0.136 C
ENDBRANCH  21  24
ENDBRANCH   5  21
TORSDOF 6
ENDMDL