MODEL 1
REMARK VINA RESULT: -8.449848132      0.000      0.000
REMARK  2 active torsions:
REMARK  status: ('A' for Active; 'I' for Inactive)
REMARK    1  A    between atoms: C1_2  and  C2_4
REMARK    2  A    between atoms: C3_5  and  N2_6
REMARK       I    between atoms: N2_6  and  C4_8
REMARK       I    between atoms: C4_8  and  N3_10
REMARK       I    between atoms: N4_19  and  C12_20
REMARK       I    between atoms: C12_20  and  N5_22
ROOT
HETATM    1  C2  UNL     1     -19.686 -39.638  -9.862  1.00  0.00     0.070 A
HETATM    2  C3  UNL     1     -19.417 -40.973  -9.806  1.00  0.00     0.094 A
HETATM    3  S1  UNL     1     -17.715 -41.009 -10.253  1.00  0.00    -0.070 SA
HETATM    4  C8  UNL     1     -17.447 -39.372 -10.465  1.00  0.00     0.030 A
HETATM    5  C9  UNL     1     -18.668 -38.790 -10.200  1.00  0.00    -0.020 A
HETATM    6  C10 UNL     1     -18.637 -37.276 -10.349  1.00  0.00     0.061 C
HETATM    7  C11 UNL     1     -17.920 -37.074 -11.700  1.00  0.00     0.138 C
HETATM    8  N4  UNL     1     -16.490 -37.328 -11.373  1.00  0.00    -0.308 N
HETATM    9  C12 UNL     1     -15.594 -36.286 -11.622  1.00  0.00     0.324 C
HETATM   10  O3  UNL     1     -16.036 -35.165 -12.107  1.00  0.00    -0.247 OA
HETATM   11  N5  UNL     1     -14.202 -36.342 -11.385  1.00  0.00    -0.334 N
HETATM   12  C13 UNL     1     -13.396 -37.399 -10.889  1.00  0.00     0.127 C
HETATM   13  C14 UNL     1     -11.963 -37.039 -11.251  1.00  0.00     0.022 C
HETATM   14  C15 UNL     1     -12.020 -35.525 -11.101  1.00  0.00     0.022 C
HETATM   15  C16 UNL     1     -13.354 -35.146 -11.652  1.00  0.00     0.127 C
HETATM   16  C17 UNL     1     -16.206 -38.593 -10.842  1.00  0.00     0.115 C
ENDROOT
BRANCH   2  17
HETATM   17  N2  UNL     1     -20.069 -42.139  -9.290  1.00  0.00    -0.302 N
HETATM   18  C4  UNL     1     -20.722 -42.428  -8.120  1.00  0.00     0.323 C
HETATM   19  O2  UNL     1     -20.856 -41.655  -7.157  1.00  0.00    -0.247 OA
HETATM   20  N3  UNL     1     -21.313 -43.748  -7.976  1.00  0.00    -0.334 N
HETATM   21  C5  UNL     1     -22.055 -44.411  -6.938  1.00  0.00     0.129 C
HETATM   22  C7  UNL     1     -21.412 -44.951  -8.803  1.00  0.00     0.129 C
HETATM   23  C6  UNL     1     -21.820 -45.737  -7.593  1.00  0.00     0.040 C
ATOM     24  H2  UNL     1     -20.043 -42.929  -9.935  1.00  0.00     0.171 HD
ENDBRANCH   2  17
BRANCH   1  25
HETATM   25  C1  UNL     1     -21.110 -39.177  -9.819  1.00  0.00     0.268 C
HETATM   26  N1  UNL     1     -22.088 -39.794 -10.594  1.00  0.00    -0.057 NA
HETATM   27  O1  UNL     1     -21.471 -38.224  -9.094  1.00  0.00    -0.271 OA
ENDBRANCH   1  25
TORSDOF 2
ENDMDL