MODEL 2
REMARK VINA RESULT: -8.218635889      2.384      5.213
REMARK  3 active torsions:
REMARK  status: ('A' for Active; 'I' for Inactive)
REMARK       I    between atoms: C1_4  and  N2_5
REMARK       I    between atoms: C1_4  and  N3_13
REMARK    1  A    between atoms: C13_18  and  C14_19
REMARK       I    between atoms: C14_19  and  N4_21
REMARK    2  A    between atoms: C19_26  and  C20_27
REMARK    3  A    between atoms: C20_27  and  O2_28
ROOT
HETATM    1  N1  UNL     1     -15.144 -38.664  -8.358  1.00  0.00    -0.235 N
ATOM      2  H11 UNL     1     -15.244 -37.739  -7.941  1.00  0.00     0.174 HD
ATOM      3  H12 UNL     1     -14.681 -39.450  -7.904  1.00  0.00     0.174 HD
HETATM    4  C1  UNL     1     -15.627 -38.876  -9.536  1.00  0.00     0.672 C
HETATM    5  N2  UNL     1     -15.489 -40.156 -10.115  1.00  0.00    -0.218 N
HETATM    6  C2  UNL     1     -14.463 -40.215 -11.123  1.00  0.00     0.141 C
HETATM    7  C3  UNL     1     -14.072 -41.675 -11.388  1.00  0.00     0.020 C
HETATM    8  C4  UNL     1     -13.598 -42.288 -10.083  1.00  0.00     0.002 C
HETATM    9  C5  UNL     1     -14.449 -43.446  -9.658  1.00  0.00     0.000 C
HETATM   10  C6  UNL     1     -15.381 -43.177  -8.530  1.00  0.00     0.002 C
HETATM   11  C7  UNL     1     -15.788 -41.746  -8.357  1.00  0.00     0.020 C
HETATM   12  C8  UNL     1     -16.406 -41.121  -9.565  1.00  0.00     0.141 C
HETATM   13  N3  UNL     1     -16.272 -37.781 -10.169  1.00  0.00    -0.205 N
HETATM   14  C9  UNL     1     -15.766 -37.342 -11.431  1.00  0.00     0.142 C
HETATM   15  C10 UNL     1     -16.049 -35.907 -11.720  1.00  0.00     0.020 C
HETATM   16  C11 UNL     1     -16.241 -35.177 -10.433  1.00  0.00     0.004 C
HETATM   17  C12 UNL     1     -17.430 -35.687  -9.651  1.00  0.00     0.035 C
HETATM   18  C13 UNL     1     -17.395 -37.184  -9.483  1.00  0.00     0.194 C
ENDROOT
BRANCH  18  19
HETATM   19  C14 UNL     1     -18.663 -37.756  -9.983  1.00  0.00     0.243 C
HETATM   20  O1  UNL     1     -19.057 -37.415 -11.126  1.00  0.00    -0.271 OA
HETATM   21  N4  UNL     1     -19.467 -38.667  -9.252  1.00  0.00    -0.341 N
HETATM   22  C15 UNL     1     -19.232 -39.216  -7.926  1.00  0.00     0.158 C
HETATM   23  C18 UNL     1     -20.726 -39.267  -9.666  1.00  0.00     0.120 C
HETATM   24  C16 UNL     1     -20.532 -39.902  -7.536  1.00  0.00     0.142 C
HETATM   25  C17 UNL     1     -21.522 -39.058  -8.362  1.00  0.00     0.061 C
HETATM   26  O3  UNL     1     -20.592 -41.103  -8.236  1.00  0.00    -0.375 OA
HETATM   27  C19 UNL     1     -20.534 -40.753  -9.585  1.00  0.00     0.168 C
BRANCH  27  28
HETATM   28  C20 UNL     1     -21.496 -41.528 -10.426  1.00  0.00     0.198 C
BRANCH  28  29
HETATM   29  O2  UNL     1     -22.405 -40.701 -11.073  1.00  0.00    -0.398 OA
ATOM     30  H2  UNL     1     -22.625 -41.023 -11.939  1.00  0.00     0.209 HD
ENDBRANCH  28  29
ENDBRANCH  27  28
ENDBRANCH  18  19
TORSDOF 3
ENDMDL