MODEL 2
REMARK VINA RESULT: -8.043375279      4.133      8.740
REMARK  4 active torsions:
REMARK  status: ('A' for Active; 'I' for Inactive)
REMARK    1  A    between atoms: N1_7  and  N2_9
REMARK    2  A    between atoms: N2_9  and  C6_11
REMARK    3  A    between atoms: C6_11  and  N3_13
REMARK       I    between atoms: N4_16  and  C9_17
REMARK       I    between atoms: C9_17  and  N5_19
REMARK    4  A    between atoms: N5_19  and  C10_21
ROOT
HETATM    1  N3  UNL     1     -20.066 -40.996  -8.499  1.00  0.00    -0.354 N
HETATM    2  C7  UNL     1     -19.781 -39.779  -7.685  1.00  0.00     0.145 C
HETATM    3  C8  UNL     1     -18.384 -39.275  -7.943  1.00  0.00     0.147 C
HETATM    4  N4  UNL     1     -18.156 -39.279  -9.371  1.00  0.00    -0.331 N
HETATM    5  C9  UNL     1     -17.760 -38.123 -10.065  1.00  0.00     0.318 C
HETATM    6  O2  UNL     1     -17.580 -38.216 -11.330  1.00  0.00    -0.247 OA
HETATM    7  N5  UNL     1     -17.538 -36.865  -9.504  1.00  0.00    -0.338 N
ATOM      8  H5  UNL     1     -17.673 -36.757  -8.499  1.00  0.00     0.164 HD
HETATM    9  C16 UNL     1     -18.351 -40.546 -10.080  1.00  0.00     0.147 C
HETATM   10  C17 UNL     1     -18.919 -41.577  -9.112  1.00  0.00     0.145 C
ENDROOT
BRANCH   1  11
HETATM   11  C6  UNL     1     -21.385 -41.433  -8.577  1.00  0.00     0.188 C
HETATM   12  S1  UNL     1     -22.447 -40.434  -9.408  1.00  0.00    -0.039 SA
BRANCH  11  13
HETATM   13  N2  UNL     1     -21.966 -42.595  -8.060  1.00  0.00    -0.276 N
ATOM     14  H2  UNL     1     -22.691 -43.034  -8.628  1.00  0.00     0.189 HD
BRANCH  13  15
HETATM   15  N1  UNL     1     -21.663 -43.210  -6.866  1.00  0.00    -0.306 N
HETATM   16  C5  UNL     1     -22.111 -42.919  -5.715  1.00  0.00     0.010 C
HETATM   17  C4  UNL     1     -23.072 -41.819  -5.502  1.00  0.00     0.055 C
HETATM   18  C18 UNL     1     -21.669 -43.700  -4.523  1.00  0.00     0.132 C
HETATM   19  C3  UNL     1     -22.616 -40.927  -4.383  1.00  0.00     0.013 C
HETATM   20  C2  UNL     1     -21.219 -41.273  -3.944  1.00  0.00     0.079 C
HETATM   21  C1  UNL     1     -21.113 -42.694  -3.571  1.00  0.00     0.132 C
HETATM   22  O1  UNL     1     -20.602 -43.059  -2.543  1.00  0.00    -0.298 OA
ATOM     23  H1  UNL     1     -21.004 -43.987  -6.912  1.00  0.00     0.186 HD
ENDBRANCH  13  15
ENDBRANCH  11  13
ENDBRANCH   1  11
BRANCH   7  24
HETATM   24  C10 UNL     1     -17.127 -35.700 -10.269  1.00  0.00     0.086 C
HETATM   25  C11 UNL     1     -17.356 -34.476  -9.453  1.00  0.00     0.025 C
HETATM   26  C12 UNL     1     -16.773 -33.220  -9.987  1.00  0.00     0.002 C
HETATM   27  C13 UNL     1     -15.520 -33.354 -10.774  1.00  0.00     0.000 C
HETATM   28  C14 UNL     1     -15.404 -34.602 -11.584  1.00  0.00     0.002 C
HETATM   29  C15 UNL     1     -15.656 -35.772 -10.633  1.00  0.00     0.025 C
ENDBRANCH   7  24
TORSDOF 4
ENDMDL