MODEL 5
REMARK VINA RESULT: -7.873107978      1.660      2.731
REMARK  8 active torsions:
REMARK  status: ('A' for Active; 'I' for Inactive)
REMARK    1  A    between atoms: O1_3  and  C3_4
REMARK    2  A    between atoms: C3_4  and  C4_6
REMARK    3  A    between atoms: C6_8  and  N1_9
REMARK    4  A    between atoms: N1_9  and  C7_12
REMARK    5  A    between atoms: N2_19  and  C14_20
REMARK    6  A    between atoms: C14_20  and  O3_21
REMARK    7  A    between atoms: C14_20  and  N3_23
REMARK    8  A    between atoms: C17_26  and  O4_27
ROOT
HETATM    1  C1  UNL     1     -18.233 -33.306  -9.819  1.00  0.00     0.045 C
HETATM    2  C2  UNL     1     -18.221 -34.510  -9.908  1.00  0.00     0.052 C
HETATM    3  O1  UNL     1     -18.203 -35.855 -10.028  1.00  0.00    -0.226 OA
ENDROOT
BRANCH   3   4
HETATM    4  C3  UNL     1     -17.533 -36.718  -9.174  1.00  0.00     0.282 C
HETATM    5  O2  UNL     1     -17.095 -36.165  -8.126  1.00  0.00    -0.263 OA
BRANCH   4   6
HETATM    6  C4  UNL     1     -17.295 -38.132  -9.358  1.00  0.00     0.072 C
HETATM    7  C5  UNL     1     -17.875 -39.057  -8.394  1.00  0.00     0.055 C
HETATM    8  C6  UNL     1     -19.249 -39.415  -8.977  1.00  0.00     0.188 C
HETATM    9  C11 UNL     1     -19.288 -38.756 -10.364  1.00  0.00     0.040 C
HETATM   10  C12 UNL     1     -17.888 -38.689 -10.669  1.00  0.00     0.026 C
HETATM   11  C13 UNL     1     -17.247 -37.842 -11.629  1.00  0.00     0.132 C
HETATM   12  N2  UNL     1     -15.855 -37.835 -11.096  1.00  0.00    -0.346 N
HETATM   13  C20 UNL     1     -15.851 -38.339  -9.747  1.00  0.00     0.146 C
BRANCH   8  14
HETATM   14  N1  UNL     1     -20.316 -39.031  -8.129  1.00  0.00    -0.067 N
ATOM     15  H12 UNL     1     -20.043 -38.294  -7.478  1.00  0.00     0.278 HD
ATOM     16  H11 UNL     1     -21.042 -38.521  -8.633  1.00  0.00     0.278 HD
BRANCH  14  17
HETATM   17  C7  UNL     1     -20.840 -40.191  -7.449  1.00  0.00     0.186 C
HETATM   18  C8  UNL     1     -22.093 -39.965  -6.647  1.00  0.00     0.033 C
HETATM   19  C9  UNL     1     -22.890 -40.529  -7.820  1.00  0.00     0.004 C
HETATM   20  C10 UNL     1     -21.611 -41.146  -8.329  1.00  0.00     0.033 C
ENDBRANCH  14  17
ENDBRANCH   8  14
BRANCH  12  21
HETATM   21  C14 UNL     1     -14.799 -37.372 -11.920  1.00  0.00     0.217 C
BRANCH  21  22
HETATM   22  O3  UNL     1     -14.264 -38.201 -12.772  1.00  0.00    -0.333 OA
ATOM     23  H3  UNL     1     -13.680 -38.875 -12.444  1.00  0.00     0.220 HD
ENDBRANCH  21  22
BRANCH  21  24
HETATM   24  N3  UNL     1     -14.227 -36.093 -11.948  1.00  0.00    -0.347 N
HETATM   25  C15 UNL     1     -12.777 -35.955 -12.098  1.00  0.00     0.129 C
HETATM   26  C16 UNL     1     -12.301 -35.260 -10.822  1.00  0.00     0.051 C
HETATM   27  C17 UNL     1     -12.970 -33.939 -10.639  1.00  0.00     0.121 C
HETATM   28  C18 UNL     1     -14.067 -33.676 -11.632  1.00  0.00     0.051 C
HETATM   29  C19 UNL     1     -14.989 -34.880 -11.828  1.00  0.00     0.129 C
BRANCH  27  30
HETATM   30  O4  UNL     1     -12.010 -32.930 -10.834  1.00  0.00    -0.395 OA
ATOM     31  H4  UNL     1     -11.972 -32.402 -10.045  1.00  0.00     0.210 HD
ENDBRANCH  27  30
ENDBRANCH  21  24
ENDBRANCH  12  21
ENDBRANCH   4   6
ENDBRANCH   3   4
TORSDOF 8
ENDMDL