MODEL 3
REMARK VINA RESULT: -7.858246142      3.412      7.813
REMARK  4 active torsions:
REMARK  status: ('A' for Active; 'I' for Inactive)
REMARK    1  A    between atoms: C2_2  and  C3_3
REMARK    2  A    between atoms: C3_3  and  C4_4
REMARK       I    between atoms: N3_11  and  C7_13
REMARK    3  A    between atoms: C7_13  and  O2_15
REMARK    4  A    between atoms: O2_15  and  C8_16
REMARK       I    between atoms: N4_22  and  C14_23
REMARK       I    between atoms: C14_23  and  N5_25
ROOT
HETATM    1  C4  UNL     1     -16.993 -38.787 -11.238  1.00  0.00     0.141 C
HETATM    2  C5  UNL     1     -16.007 -39.901 -11.315  1.00  0.00     0.060 A
HETATM    3  N1  UNL     1     -15.897 -41.254 -11.265  1.00  0.00    -0.300 N
ATOM      4  H1  UNL     1     -16.670 -41.907 -11.138  1.00  0.00     0.186 HD
HETATM    5  N2  UNL     1     -14.643 -41.580 -11.407  1.00  0.00    -0.285 N
ATOM      6  H2  UNL     1     -14.294 -42.539 -11.406  1.00  0.00     0.188 HD
HETATM    7  C6  UNL     1     -13.867 -40.491 -11.556  1.00  0.00     0.134 A
HETATM    8  N3  UNL     1     -12.578 -40.414 -11.722  1.00  0.00    -0.287 N
ATOM      9  H3  UNL     1     -12.159 -39.488 -11.818  1.00  0.00     0.172 HD
HETATM   10  C7  UNL     1     -11.736 -41.531 -11.774  1.00  0.00     0.367 C
HETATM   11  O1  UNL     1     -10.828 -41.708 -10.940  1.00  0.00    -0.238 OA
HETATM   12  C12 UNL     1     -14.738 -39.421 -11.497  1.00  0.00     0.031 A
HETATM   13  C13 UNL     1     -14.800 -37.934 -11.564  1.00  0.00     0.173 C
HETATM   14  N4  UNL     1     -16.178 -37.601 -11.292  1.00  0.00    -0.319 N
HETATM   15  C14 UNL     1     -16.660 -36.288 -11.117  1.00  0.00     0.322 C
HETATM   16  O3  UNL     1     -17.900 -36.085 -10.916  1.00  0.00    -0.247 OA
HETATM   17  N5  UNL     1     -15.789 -35.186 -11.159  1.00  0.00    -0.317 N
HETATM   18  C15 UNL     1     -14.405 -34.864 -11.343  1.00  0.00     0.132 C
HETATM   19  C16 UNL     1     -14.855 -33.516 -11.933  1.00  0.00     0.060 C
HETATM   20  C17 UNL     1     -16.017 -33.740 -10.994  1.00  0.00     0.197 C
HETATM   21  C18 UNL     1     -15.818 -33.256  -9.648  1.00  0.00     0.085 C
HETATM   22  N6  UNL     1     -15.668 -32.880  -8.583  1.00  0.00    -0.195 NA
ENDROOT
BRANCH   1  23
HETATM   23  C3  UNL     1     -17.822 -38.922  -9.990  1.00  0.00     0.031 C
BRANCH  23  24
HETATM   24  C2  UNL     1     -19.114 -39.649 -10.189  1.00  0.00    -0.002 C
HETATM   25  C1  UNL     1     -20.223 -38.591 -10.124  1.00  0.00     0.005 C
ENDBRANCH  23  24
ENDBRANCH   1  23
BRANCH  10  26
HETATM   26  O2  UNL     1     -11.930 -42.457 -12.787  1.00  0.00    -0.294 OA
BRANCH  26  27
HETATM   27  C8  UNL     1     -11.649 -42.216 -14.130  1.00  0.00     0.061 C
HETATM   28  C9  UNL     1     -12.802 -41.672 -14.920  1.00  0.00     0.046 C
HETATM   29  C10 UNL     1     -11.273 -43.566 -14.756  1.00  0.00     0.046 C
HETATM   30  C11 UNL     1     -10.418 -41.333 -14.301  1.00  0.00     0.046 C
ENDBRANCH  26  27
ENDBRANCH  10  26
TORSDOF 4
ENDMDL