MODEL 3
REMARK VINA RESULT: -7.161172361      2.358      3.170
REMARK  5 active torsions:
REMARK  status: ('A' for Active; 'I' for Inactive)
REMARK    1  A    between atoms: C3_3  and  N1_4
REMARK       I    between atoms: N1_4  and  C4_6
REMARK       I    between atoms: C4_6  and  N2_8
REMARK    2  A    between atoms: N2_8  and  C5_10
REMARK    3  A    between atoms: N4_21  and  C14_22
REMARK    4  A    between atoms: C14_22  and  O3_23
REMARK    5  A    between atoms: C14_22  and  C15_25
ROOT
HETATM    1  C1  UNL     1     -18.609 -38.341  -8.150  1.00  0.00     0.035 C
HETATM    2  C2  UNL     1     -17.721 -39.141  -8.978  1.00  0.00     0.117 C
HETATM    3  C3  UNL     1     -18.368 -40.340  -9.689  1.00  0.00     0.201 C
HETATM    4  C9  UNL     1     -17.171 -41.229 -10.028  1.00  0.00     0.246 C
HETATM    5  O2  UNL     1     -17.321 -42.393 -10.428  1.00  0.00    -0.271 OA
HETATM    6  N3  UNL     1     -15.910 -40.601  -9.840  1.00  0.00    -0.328 N
HETATM    7  C10 UNL     1     -14.833 -41.333  -9.253  1.00  0.00     0.155 C
HETATM    8  C11 UNL     1     -15.662 -39.189 -10.256  1.00  0.00     0.105 C
HETATM    9  C12 UNL     1     -15.375 -39.330 -11.738  1.00  0.00     0.063 C
HETATM   10  C13 UNL     1     -14.425 -38.691  -9.575  1.00  0.00     0.063 C
HETATM   11  N4  UNL     1     -16.860 -38.449  -9.957  1.00  0.00    -0.328 N
ENDROOT
BRANCH   3  12
HETATM   12  N1  UNL     1     -19.165 -41.108  -8.767  1.00  0.00    -0.328 N
HETATM   13  C4  UNL     1     -20.563 -41.226  -8.983  1.00  0.00     0.317 C
HETATM   14  O1  UNL     1     -21.128 -40.661  -9.980  1.00  0.00    -0.247 OA
HETATM   15  N2  UNL     1     -21.386 -41.976  -8.098  1.00  0.00    -0.335 N
ATOM     16  H2  UNL     1     -20.964 -42.439  -7.292  1.00  0.00     0.165 HD
ATOM     17  H1  UNL     1     -18.728 -41.564  -7.965  1.00  0.00     0.165 HD
BRANCH  15  18
HETATM   18  C5  UNL     1     -22.815 -42.095  -8.320  1.00  0.00     0.023 C
HETATM   19  C6  UNL     1     -23.132 -42.630  -9.688  1.00  0.00     0.037 C
HETATM   20  C7  UNL     1     -23.468 -40.766  -8.056  1.00  0.00     0.037 C
HETATM   21  C8  UNL     1     -23.365 -43.085  -7.293  1.00  0.00     0.037 C
ENDBRANCH  15  18
ENDBRANCH   3  12
BRANCH  11  22
HETATM   22  C14 UNL     1     -17.353 -37.265 -10.503  1.00  0.00     0.158 C
BRANCH  22  23
HETATM   23  O3  UNL     1     -18.307 -37.397 -11.425  1.00  0.00    -0.345 OA
ATOM     24  H3  UNL     1     -19.114 -37.809 -11.138  1.00  0.00     0.219 HD
ENDBRANCH  22  23
BRANCH  22  25
HETATM   25  C15 UNL     1     -17.058 -35.857 -10.287  1.00  0.00     0.055 A
HETATM   26  C16 UNL     1     -17.587 -34.846  -9.572  1.00  0.00     0.024 A
HETATM   27  C17 UNL     1     -16.970 -33.634  -9.579  1.00  0.00     0.009 A
HETATM   28  C18 UNL     1     -15.837 -33.513 -10.322  1.00  0.00     0.050 A
HETATM   29  S1  UNL     1     -15.660 -35.062 -10.981  1.00  0.00    -0.098 SA
ENDBRANCH  22  25
ENDBRANCH  11  22
TORSDOF 5
ENDMDL