MODEL 3
REMARK VINA RESULT: -8.837683219      3.163      4.613
REMARK  4 active torsions:
REMARK  status: ('A' for Active; 'I' for Inactive)
REMARK       I    between atoms: C2_2  and  N1_4
REMARK    1  A    between atoms: C5_7  and  C6_8
REMARK    2  A    between atoms: C6_8  and  N2_9
REMARK       I    between atoms: N2_9  and  C7_10
REMARK    3  A    between atoms: C7_10  and  C8_12
REMARK       I    between atoms: C8_12  and  N3_14
REMARK    4  A    between atoms: N3_14  and  N4_16
ROOT
HETATM    1  C8  UNL     1     -16.325 -41.578  -9.661  1.00  0.00     0.342 C
HETATM    2  O3  UNL     1     -16.451 -42.181  -8.612  1.00  0.00    -0.259 OA
HETATM    3  N3  UNL     1     -17.406 -41.264 -10.498  1.00  0.00    -0.261 N
ATOM      4  H3  UNL     1     -17.235 -40.754 -11.366  1.00  0.00     0.190 HD
ENDROOT
BRANCH   1   5
HETATM    5  C7  UNL     1     -14.974 -41.120 -10.112  1.00  0.00     0.385 C
HETATM    6  N2  UNL     1     -14.800 -40.125 -11.038  1.00  0.00    -0.379 NA
HETATM    7  O2  UNL     1     -13.974 -41.726  -9.576  1.00  0.00    -0.246 OA
BRANCH   6   8
HETATM    8  C6  UNL     1     -14.626 -39.127 -11.965  1.00  0.00     0.164 C
BRANCH   8   9
HETATM    9  C5  UNL     1     -15.297 -37.808 -11.614  1.00  0.00     0.041 C
HETATM   10  C4  UNL     1     -16.787 -37.894 -11.566  1.00  0.00     0.031 C
HETATM   11  C3  UNL     1     -17.381 -36.587 -11.150  1.00  0.00     0.126 C
HETATM   12  N1  UNL     1     -16.438 -35.514 -11.002  1.00  0.00    -0.352 N
HETATM   13  C2  UNL     1     -16.798 -34.460 -10.095  1.00  0.00     0.215 C
HETATM   14  C20 UNL     1     -15.172 -35.390 -11.679  1.00  0.00     0.126 C
HETATM   15  C1  UNL     1     -15.889 -33.317  -9.854  1.00  0.00     0.117 C
HETATM   16  O1  UNL     1     -17.894 -34.502  -9.496  1.00  0.00    -0.274 OA
HETATM   17  C19 UNL     1     -14.912 -36.652 -12.485  1.00  0.00     0.031 C
ENDBRANCH   8   9
ENDBRANCH   6   8
ENDBRANCH   1   5
BRANCH   3  18
HETATM   18  N4  UNL     1     -18.695 -41.630 -10.171  1.00  0.00    -0.305 N
HETATM   19  C9  UNL     1     -19.541 -40.875  -9.642  1.00  0.00     0.012 C
HETATM   20  C10 UNL     1     -20.916 -41.403  -9.340  1.00  0.00     0.034 C
HETATM   21  C17 UNL     1     -19.308 -39.460  -9.289  1.00  0.00     0.034 C
HETATM   22  C11 UNL     1     -21.189 -41.118  -7.893  1.00  0.00     0.015 C
HETATM   23  C15 UNL     1     -21.805 -40.586 -10.288  1.00  0.00     0.015 C
HETATM   24  C12 UNL     1     -21.105 -39.648  -7.585  1.00  0.00    -0.013 C
HETATM   25  C13 UNL     1     -22.075 -38.916  -8.474  1.00  0.00     0.009 C
HETATM   26  C18 UNL     1     -19.672 -39.202  -7.830  1.00  0.00     0.015 C
HETATM   27  C14 UNL     1     -21.696 -39.127  -9.911  1.00  0.00    -0.013 C
HETATM   28  C16 UNL     1     -20.298 -38.606 -10.109  1.00  0.00     0.015 C
ATOM     29  H4  UNL     1     -18.980 -42.588 -10.376  1.00  0.00     0.186 HD
ENDBRANCH   3  18
TORSDOF 4
ENDMDL