MODEL 2
REMARK VINA RESULT: -8.348456727      1.067      1.153
REMARK  2 active torsions:
REMARK  status: ('A' for Active; 'I' for Inactive)
REMARK       I    between atoms: C1_2  and  N1_3
REMARK       I    between atoms: C1_2  and  N4_24
REMARK    1  A    between atoms: N1_3  and  C2_5
REMARK       I    between atoms: N2_13  and  C10_14
REMARK       I    between atoms: C10_14  and  N3_16
REMARK    2  A    between atoms: N3_16  and  C11_18
ROOT
HETATM    1  C2  UNL     1     -18.583 -38.510 -10.658  1.00  0.00     0.088 C
HETATM    2  C3  UNL     1     -17.728 -39.644 -10.155  1.00  0.00     0.027 C
HETATM    3  C4  UNL     1     -18.428 -40.951 -10.044  1.00  0.00     0.027 C
HETATM    4  C5  UNL     1     -19.251 -41.123  -8.803  1.00  0.00     0.089 C
HETATM    5  C6  UNL     1     -18.687 -40.352  -7.619  1.00  0.00     0.027 C
HETATM    6  C7  UNL     1     -19.271 -38.979  -7.689  1.00  0.00     0.027 C
HETATM    7  C8  UNL     1     -20.241 -39.055  -8.802  1.00  0.00     0.091 C
HETATM    8  C9  UNL     1     -19.909 -38.351 -10.051  1.00  0.00     0.050 C
HETATM    9  N2  UNL     1     -20.528 -40.467  -8.985  1.00  0.00    -0.325 N
HETATM   10  C10 UNL     1     -21.755 -41.103  -9.276  1.00  0.00     0.319 C
HETATM   11  O2  UNL     1     -22.808 -40.391  -9.407  1.00  0.00    -0.247 OA
HETATM   12  N3  UNL     1     -21.846 -42.506  -9.428  1.00  0.00    -0.338 N
ATOM     13  H3  UNL     1     -20.994 -43.056  -9.320  1.00  0.00     0.164 HD
ENDROOT
BRANCH   1  14
HETATM   14  N1  UNL     1     -17.808 -37.286 -10.620  1.00  0.00    -0.338 N
HETATM   15  C1  UNL     1     -16.639 -37.084 -11.387  1.00  0.00     0.318 C
HETATM   16  O1  UNL     1     -16.288 -38.060 -12.136  1.00  0.00    -0.247 OA
HETATM   17  N4  UNL     1     -15.886 -35.878 -11.344  1.00  0.00    -0.334 N
HETATM   18  C16 UNL     1     -14.705 -35.791 -12.175  1.00  0.00     0.127 C
HETATM   19  C20 UNL     1     -16.358 -34.838 -10.475  1.00  0.00     0.127 C
HETATM   20  C17 UNL     1     -13.862 -34.593 -11.910  1.00  0.00     0.020 C
HETATM   21  C18 UNL     1     -14.818 -33.403 -11.752  1.00  0.00     0.003 C
HETATM   22  C19 UNL     1     -15.522 -33.604 -10.448  1.00  0.00     0.020 C
ATOM     23  H1  UNL     1     -18.123 -36.532 -10.010  1.00  0.00     0.164 HD
ENDBRANCH   1  14
BRANCH  12  24
HETATM   24  C11 UNL     1     -23.064 -43.206  -9.724  1.00  0.00     0.090 C
HETATM   25  C12 UNL     1     -22.988 -43.612 -11.202  1.00  0.00     0.051 C
HETATM   26  C13 UNL     1     -24.370 -44.026 -11.619  1.00  0.00     0.169 C
HETATM   27  O3  UNL     1     -24.893 -44.869 -10.672  1.00  0.00    -0.391 OA
HETATM   28  C14 UNL     1     -23.943 -45.474  -9.862  1.00  0.00     0.169 C
HETATM   29  C15 UNL     1     -23.265 -44.455  -8.938  1.00  0.00     0.051 C
ENDBRANCH  12  24
TORSDOF 2
ENDMDL