MODEL 3
REMARK VINA RESULT: -6.346137523      3.731      7.731
REMARK  16 active torsions:
REMARK  status: ('A' for Active; 'I' for Inactive)
REMARK    1  A    between atoms: N2_4  and  C1_6
REMARK    2  A    between atoms: C1_6  and  C2_7
REMARK    3  A    between atoms: C2_7  and  O1_8
REMARK    4  A    between atoms: O1_8  and  C3_9
REMARK    5  A    between atoms: C5_11  and  N3_12
REMARK    6  A    between atoms: C9_18  and  O2_19
REMARK    7  A    between atoms: C10_21  and  O3_22
REMARK    8  A    between atoms: C10_21  and  S1_24
REMARK    9  A    between atoms: S1_24  and  S2_25
REMARK   10  A    between atoms: S2_25  and  C11_26
REMARK   11  A    between atoms: C11_26  and  C12_27
REMARK   12  A    between atoms: C12_27  and  N5_28
REMARK   13  A    between atoms: C14_33  and  O4_34
REMARK   14  A    between atoms: C15_36  and  O5_37
REMARK   15  A    between atoms: C16_39  and  N8_40
REMARK   16  A    between atoms: C18_46  and  N11_47
ROOT
HETATM    1  C1  UNL     1      20.691  36.899  14.795  1.00  0.00     0.119 C
HETATM    2  C14 UNL     1      19.285  36.314  14.820  1.00  0.00     0.182 C
HETATM    3  C15 UNL     1      19.761  35.229  15.775  1.00  0.00     0.177 C
HETATM    4  C16 UNL     1      21.158  35.621  15.421  1.00  0.00     0.177 C
ENDROOT
BRANCH   1   5
HETATM    5  N2  UNL     1      20.832  38.093  15.560  1.00  0.00    -0.326 N
HETATM    6  N1  UNL     1      19.946  38.966  15.403  1.00  0.00    -0.348 N
ATOM      7  H12 UNL     1      19.171  38.814  14.758  1.00  0.00     0.176 HD
ATOM      8  H11 UNL     1      20.046  39.821  15.951  1.00  0.00     0.176 HD
ATOM      9  H2  UNL     1      21.613  38.229  16.202  1.00  0.00     0.180 HD
ENDBRANCH   1   5
BRANCH   1  10
HETATM   10  C2  UNL     1      21.167  37.103  13.364  1.00  0.00     0.206 C
BRANCH  10  11
HETATM   11  O1  UNL     1      21.493  38.435  13.127  1.00  0.00    -0.379 OA
BRANCH  11  12
HETATM   12  C3  UNL     1      21.217  38.830  11.839  1.00  0.00     0.172 C
HETATM   13  C4  UNL     1      21.915  37.843  10.895  1.00  0.00     0.066 C
HETATM   14  C5  UNL     1      23.201  38.471  10.469  1.00  0.00     0.142 C
HETATM   15  C9  UNL     1      23.336  39.688  11.382  1.00  0.00     0.191 C
HETATM   16  C10 UNL     1      21.886  40.120  11.428  1.00  0.00     0.169 C
BRANCH  14  17
HETATM   17  N3  UNL     1      24.332  37.598  10.541  1.00  0.00    -0.296 N
HETATM   18  C6  UNL     1      24.402  36.261  10.418  1.00  0.00     0.112 A
HETATM   19  C7  UNL     1      25.718  35.895  10.568  1.00  0.00     0.037 A
HETATM   20  C8  UNL     1      26.443  37.048  10.785  1.00  0.00     0.108 A
HETATM   21  N4  UNL     1      25.575  38.054  10.762  1.00  0.00    -0.310 N
ATOM     22  H4  UNL     1      25.819  39.036  10.895  1.00  0.00     0.186 HD
ENDBRANCH  14  17
BRANCH  15  23
HETATM   23  O2  UNL     1      23.734  39.203  12.621  1.00  0.00    -0.389 OA
ATOM     24  H2  UNL     1      23.347  39.778  13.270  1.00  0.00     0.210 HD
ENDBRANCH  15  23
BRANCH  16  25
HETATM   25  O3  UNL     1      21.497  40.371  10.108  1.00  0.00    -0.373 OA
ATOM     26  H3  UNL     1      20.610  40.708  10.144  1.00  0.00     0.212 HD
ENDBRANCH  16  25
BRANCH  16  27
HETATM   27  S1  UNL     1      21.563  41.497  12.495  1.00  0.00    -0.054 SA
BRANCH  27  28
HETATM   28  S2  UNL     1      21.879  43.290  11.355  1.00  0.00    -0.093 SA
BRANCH  28  29
HETATM   29  C11 UNL     1      23.337  44.181  11.945  1.00  0.00     0.106 C
BRANCH  29  30
HETATM   30  C12 UNL     1      23.008  45.175  13.037  1.00  0.00     0.133 C
BRANCH  30  31
HETATM   31  N5  UNL     1      23.910  44.917  14.138  1.00  0.00    -0.366 N
HETATM   32  C13 UNL     1      23.502  44.292  15.187  1.00  0.00     0.196 C
HETATM   33  N6  UNL     1      22.171  43.860  15.256  1.00  0.00    -0.067 NA
HETATM   34  N7  UNL     1      24.388  44.040  16.267  1.00  0.00    -0.067 NA
ATOM     35  H5  UNL     1      24.877  45.234  14.084  1.00  0.00     0.161 HD
ENDBRANCH  30  31
ENDBRANCH  29  30
ENDBRANCH  28  29
ENDBRANCH  27  28
ENDBRANCH  16  27
ENDBRANCH  11  12
ENDBRANCH  10  11
ENDBRANCH   1  10
BRANCH   2  36
HETATM   36  O4  UNL     1      18.303  37.140  15.298  1.00  0.00    -0.390 OA
ATOM     37  H4  UNL     1      17.999  36.955  16.179  1.00  0.00     0.210 HD
ENDBRANCH   2  36
BRANCH   4  38
HETATM   38  N8  UNL     1      22.128  35.714  16.466  1.00  0.00    -0.250 N
HETATM   39  N9  UNL     1      21.849  35.896  17.767  1.00  0.00    -0.238 N
HETATM   40  N10 UNL     1      22.949  35.941  18.485  1.00  0.00    -0.279 N
ATOM     41  H9  UNL     1      20.907  35.988  18.148  1.00  0.00     0.208 HD
HETATM   42  C17 UNL     1      24.021  35.789  17.679  1.00  0.00     0.139 A
ATOM     43  H10 UNL     1      22.987  36.071  19.496  1.00  0.00     0.189 HD
HETATM   44  C18 UNL     1      25.381  35.757  17.881  1.00  0.00     0.132 A
HETATM   45  C20 UNL     1      23.465  35.647  16.400  1.00  0.00     0.157 A
HETATM   46  N12 UNL     1      26.170  35.584  16.816  1.00  0.00    -0.337 N
HETATM   47  C19 UNL     1      25.639  35.446  15.583  1.00  0.00     0.183 A
ATOM     48  H12 UNL     1      27.182  35.555  16.936  1.00  0.00     0.168 HD
HETATM   49  N13 UNL     1      24.312  35.479  15.395  1.00  0.00    -0.335 N
ATOM     50  H13 UNL     1      23.943  35.372  14.450  1.00  0.00     0.168 HD
BRANCH  44  51
HETATM   51  N11 UNL     1      25.897  35.887  19.048  1.00  0.00    -0.383 N
ATOM     52 2H11 UNL     1      25.362  36.326  19.797  1.00  0.00     0.157 HD
ATOM     53 1H11 UNL     1      26.840  35.562  19.260  1.00  0.00     0.157 HD
ENDBRANCH  44  51
ENDBRANCH   4  38
BRANCH   3  54
HETATM   54  O5  UNL     1      19.385  33.939  15.328  1.00  0.00    -0.391 OA
ATOM     55  H5  UNL     1      20.032  33.284  15.563  1.00  0.00     0.210 HD
ENDBRANCH   3  54
TORSDOF 16
ENDMDL