MODEL 5
REMARK VINA RESULT: -9.886567462      3.218     12.348
REMARK  14 active torsions:
REMARK  status: ('A' for Active; 'I' for Inactive)
REMARK    1  A    between atoms: C2_2  and  C3_3
REMARK    2  A    between atoms: C3_3  and  S1_4
REMARK    3  A    between atoms: S1_4  and  N1_7
REMARK    4  A    between atoms: N1_7  and  C4_9
REMARK    5  A    between atoms: C4_9  and  C5_10
REMARK    6  A    between atoms: C5_10  and  N2_11
REMARK    7  A    between atoms: C6_12  and  O3_13
REMARK    8  A    between atoms: N3_16  and  C8_17
REMARK    9  A    between atoms: C11_20  and  C12_21
REMARK       I    between atoms: C12_21  and  N4_23
REMARK   10  A    between atoms: N4_23  and  C13_25
REMARK   11  A    between atoms: C18_38  and  N8_39
REMARK   12  A    between atoms: C19_46  and  C20_47
REMARK   13  A    between atoms: C20_47  and  O6_48
REMARK   14  A    between atoms: O6_48  and  C21_49
ROOT
HETATM    1  N1  UNL     1      24.322  45.670  20.021  1.00  0.00    -0.318 N
ATOM      2  H1  UNL     1      24.361  46.577  20.487  1.00  0.00     0.172 HD
ENDROOT
BRANCH   1   3
HETATM    3  S1  UNL     1      25.033  44.174  20.625  1.00  0.00     0.230 S
HETATM    4  O1  UNL     1      26.366  44.000  19.959  1.00  0.00    -0.206 OA
HETATM    5  O2  UNL     1      25.111  44.308  22.100  1.00  0.00    -0.206 OA
BRANCH   3   6
HETATM    6  C3  UNL     1      23.991  42.833  20.111  1.00  0.00     0.223 C
BRANCH   6   7
HETATM    7  C2  UNL     1      24.314  41.537  20.847  1.00  0.00     0.210 C
HETATM    8  C1  UNL     1      23.896  40.399  19.962  1.00  0.00     0.072 C
HETATM    9  N7  UNL     1      25.716  41.599  21.124  1.00  0.00    -0.342 N
HETATM   10  C18 UNL     1      26.222  40.828  22.190  1.00  0.00     0.483 C
ATOM     11  H7  UNL     1      26.334  42.186  20.564  1.00  0.00     0.159 HD
HETATM   12  N9  UNL     1      25.236  40.401  23.176  1.00  0.00     0.002 N
HETATM   13  C19 UNL     1      24.261  41.437  23.239  1.00  0.00     0.414 C
ATOM     14  H92 UNL     1      24.839  39.482  22.981  1.00  0.00     0.284 HD
ATOM     15  H91 UNL     1      25.643  40.172  24.082  1.00  0.00     0.284 HD
HETATM   16  N12 UNL     1      23.482  41.556  22.026  1.00  0.00    -0.017 N
ATOM     17 2H12 UNL     1      22.888  42.384  22.047  1.00  0.00     0.282 HD
ATOM     18 1H12 UNL     1      22.757  40.840  21.980  1.00  0.00     0.282 HD
BRANCH  10  19
HETATM   19  N8  UNL     1      27.294  41.513  22.849  1.00  0.00    -0.033 N
ATOM     20  H83 UNL     1      27.207  41.463  23.864  1.00  0.00     0.278 HD
ATOM     21  H82 UNL     1      28.180  41.017  22.746  1.00  0.00     0.278 HD
ATOM     22  H81 UNL     1      27.362  42.477  22.523  1.00  0.00     0.278 HD
ENDBRANCH  10  19
BRANCH  13  23
HETATM   23  C20 UNL     1      23.431  41.435  24.477  1.00  0.00     0.241 C
BRANCH  23  24
HETATM   24  O6  UNL     1      23.344  42.629  25.180  1.00  0.00    -0.321 OA
BRANCH  24  25
HETATM   25  C21 UNL     1      23.080  43.859  24.630  1.00  0.00     0.225 C
HETATM   26  N10 UNL     1      23.872  44.818  24.970  1.00  0.00    -0.368 N
ATOM     27 2H10 UNL     1      24.637  44.622  25.616  1.00  0.00     0.159 HD
ATOM     28 1H10 UNL     1      23.676  45.732  24.562  1.00  0.00     0.159 HD
HETATM   29  N11 UNL     1      22.022  44.131  23.737  1.00  0.00    -0.057 NA
ENDBRANCH  24  25
ENDBRANCH  23  24
ENDBRANCH  13  23
ENDBRANCH   6   7
ENDBRANCH   3   6
ENDBRANCH   1   3
BRANCH   1  30
HETATM   30  C4  UNL     1      23.681  45.405  18.771  1.00  0.00     0.152 C
BRANCH  30  31
HETATM   31  C5  UNL     1      24.433  45.981  17.625  1.00  0.00     0.156 C
BRANCH  31  32
HETATM   32  N2  UNL     1      23.601  46.062  16.449  1.00  0.00    -0.277 N
HETATM   33  C6  UNL     1      22.780  47.069  16.114  1.00  0.00     0.162 A
HETATM   34  C7  UNL     1      22.174  46.743  14.917  1.00  0.00     0.158 A
HETATM   35  N3  UNL     1      22.621  45.545  14.523  1.00  0.00    -0.271 N
HETATM   36  C17 UNL     1      23.487  45.143  15.462  1.00  0.00     0.335 A
HETATM   37  O5  UNL     1      24.132  44.064  15.469  1.00  0.00    -0.246 OA
BRANCH  33  38
HETATM   38  O3  UNL     1      22.557  48.246  16.827  1.00  0.00    -0.345 OA
ATOM     39  H3  UNL     1      22.176  49.051  16.499  1.00  0.00     0.219 HD
ENDBRANCH  33  38
BRANCH  35  40
HETATM   40  C8  UNL     1      22.226  44.862  13.338  1.00  0.00     0.043 A
HETATM   41  C9  UNL     1      21.137  44.031  13.356  1.00  0.00     0.031 A
HETATM   42  C10 UNL     1      20.815  43.393  12.160  1.00  0.00     0.019 A
HETATM   43  C11 UNL     1      21.532  43.565  11.002  1.00  0.00     0.032 A
HETATM   44  C15 UNL     1      22.609  44.406  11.039  1.00  0.00     0.019 A
HETATM   45  C16 UNL     1      22.971  45.065  12.202  1.00  0.00     0.031 A
BRANCH  43  46
HETATM   46  C12 UNL     1      21.146  42.862   9.777  1.00  0.00     0.257 C
HETATM   47  O4  UNL     1      20.675  43.483   8.798  1.00  0.00    -0.267 OA
HETATM   48  N4  UNL     1      21.314  41.472   9.719  1.00  0.00    -0.302 N
ATOM     49  H4  UNL     1      22.012  41.026  10.315  1.00  0.00     0.171 HD
BRANCH  48  50
HETATM   50  C13 UNL     1      20.588  40.732   8.909  1.00  0.00     0.167 A
HETATM   51  N5  UNL     1      20.318  40.965   7.622  1.00  0.00    -0.279 N
HETATM   52  N6  UNL     1      19.597  40.139   6.990  1.00  0.00    -0.303 N
ATOM     53  H5  UNL     1      20.687  41.795   7.157  1.00  0.00     0.189 HD
HETATM   54  C14 UNL     1      19.120  39.061   7.598  1.00  0.00     0.160 A
ATOM     55  H6  UNL     1      19.382  40.303   6.006  1.00  0.00     0.186 HD
HETATM   56  S2  UNL     1      19.757  39.262   9.175  1.00  0.00    -0.046 SA
ENDBRANCH  48  50
ENDBRANCH  43  46
ENDBRANCH  35  40
ENDBRANCH  31  32
ENDBRANCH  30  31
ENDBRANCH   1  30
TORSDOF 14
ENDMDL