MODEL 3
REMARK VINA RESULT: -9.139921245      1.429      2.035
REMARK  12 active torsions:
REMARK  status: ('A' for Active; 'I' for Inactive)
REMARK    1  A    between atoms: S1_2  and  N1_5
REMARK    2  A    between atoms: N1_5  and  C2_7
REMARK    3  A    between atoms: C5_10  and  O3_11
REMARK    4  A    between atoms: O3_11  and  S2_12
REMARK    5  A    between atoms: S2_12  and  C6_15
REMARK    6  A    between atoms: C6_15  and  S3_16
REMARK    7  A    between atoms: S3_16  and  C7_17
REMARK    8  A    between atoms: C10_27  and  S4_28
REMARK    9  A    between atoms: S4_28  and  N5_29
REMARK   10  A    between atoms: N8_38  and  N9_40
REMARK       I    between atoms: N9_40  and  C13_42
REMARK   11  A    between atoms: C14_47  and  N12_48
REMARK   12  A    between atoms: C15_52  and  O7_53
ROOT
HETATM    1  C2  UNL     1      21.734  44.655  12.450  1.00  0.00     0.124 C
HETATM    2  C3  UNL     1      21.104  44.472  13.790  1.00  0.00     0.031 C
HETATM    3  C4  UNL     1      22.008  43.999  14.875  1.00  0.00     0.041 C
HETATM    4  C5  UNL     1      23.002  45.028  15.361  1.00  0.00     0.191 C
HETATM    5  C12 UNL     1      23.178  46.103  14.363  1.00  0.00     0.067 C
HETATM    6  N8  UNL     1      22.798  47.287  14.548  1.00  0.00    -0.302 N
ATOM      7  H8  UNL     1      22.990  47.915  13.767  1.00  0.00     0.186 HD
HETATM    8  C14 UNL     1      23.830  45.898  13.017  1.00  0.00     0.263 C
HETATM    9  C15 UNL     1      23.237  44.616  12.469  1.00  0.00     0.177 C
ENDROOT
BRANCH   4  10
HETATM   10  O3  UNL     1      22.763  45.464  16.637  1.00  0.00    -0.264 OA
BRANCH  10  11
HETATM   11  S2  UNL     1      23.829  44.704  17.728  1.00  0.00     0.275 S
HETATM   12  O4  UNL     1      25.232  44.743  17.195  1.00  0.00    -0.198 OA
HETATM   13  O5  UNL     1      23.404  43.274  17.768  1.00  0.00    -0.198 OA
BRANCH  11  14
HETATM   14  C6  UNL     1      23.730  45.411  19.322  1.00  0.00     0.252 C
BRANCH  14  15
HETATM   15  S3  UNL     1      22.684  44.422  20.394  1.00  0.00    -0.074 SA
BRANCH  15  16
HETATM   16  C7  UNL     1      23.397  42.899  20.899  1.00  0.00     0.183 A
HETATM   17  N2  UNL     1      23.470  41.772  20.193  1.00  0.00    -0.169 N
HETATM   18  C8  UNL     1      24.039  40.654  20.672  1.00  0.00     0.679 A
ATOM     19  H2  UNL     1      23.079  41.757  19.251  1.00  0.00     0.186 HD
HETATM   20  N3  UNL     1      24.066  39.607  19.918  1.00  0.00    -0.234 N
HETATM   21  N4  UNL     1      24.574  40.616  21.917  1.00  0.00    -0.173 N
ATOM     22  H32 UNL     1      23.663  39.636  18.981  1.00  0.00     0.174 HD
ATOM     23  H31 UNL     1      24.499  38.757  20.282  1.00  0.00     0.174 HD
HETATM   24  C9  UNL     1      24.513  41.733  22.642  1.00  0.00     0.167 A
ATOM     25  H4  UNL     1      25.006  39.768  22.283  1.00  0.00     0.186 HD
HETATM   26  C10 UNL     1      24.976  41.979  23.935  1.00  0.00     0.115 A
HETATM   27  N7  UNL     1      23.943  42.846  22.156  1.00  0.00    -0.215 N
HETATM   28  C11 UNL     1      24.647  43.294  24.183  1.00  0.00     0.134 A
HETATM   29  N6  UNL     1      24.028  43.793  23.099  1.00  0.00    -0.300 N
ATOM     30  H6  UNL     1      23.678  44.747  23.008  1.00  0.00     0.186 HD
BRANCH  26  31
HETATM   31  S4  UNL     1      25.785  40.885  25.006  1.00  0.00     0.149 S
HETATM   32  O6  UNL     1      27.436  40.879  24.839  1.00  0.00    -0.230 OA
BRANCH  31  33
HETATM   33  N5  UNL     1      25.198  39.278  24.870  1.00  0.00    -0.345 NA
ATOM     34  H52 UNL     1      24.575  39.215  24.065  1.00  0.00     0.166 HD
ATOM     35  H51 UNL     1      24.787  38.939  25.740  1.00  0.00     0.166 HD
ENDBRANCH  31  33
ENDBRANCH  26  31
ENDBRANCH  15  16
ENDBRANCH  14  15
ENDBRANCH  11  14
ENDBRANCH  10  11
ENDBRANCH   4  10
BRANCH   6  36
HETATM   36  N9  UNL     1      22.178  47.883  15.605  1.00  0.00    -0.274 N
HETATM   37  C13 UNL     1      20.775  48.082  15.602  1.00  0.00     0.200 C
HETATM   38  N10 UNL     1      19.985  47.562  14.727  1.00  0.00    -0.372 N
HETATM   39  N11 UNL     1      20.142  48.896  16.602  1.00  0.00    -0.062 NA
ATOM     40 2H10 UNL     1      20.434  46.985  14.018  1.00  0.00     0.158 HD
ATOM     41 1H10 UNL     1      18.975  47.706  14.726  1.00  0.00     0.158 HD
ATOM     42  H9  UNL     1      22.730  48.189  16.407  1.00  0.00     0.189 HD
ENDBRANCH   6  36
BRANCH   8  43
HETATM   43  N12 UNL     1      25.234  45.590  13.327  1.00  0.00    -0.067 N
ATOM     44 3H12 UNL     1      25.819  46.413  13.466  1.00  0.00     0.275 HD
ATOM     45 2H12 UNL     1      25.376  45.191  14.255  1.00  0.00     0.275 HD
ATOM     46 1H12 UNL     1      25.540  44.986  12.564  1.00  0.00     0.275 HD
ENDBRANCH   8  43
BRANCH   1  47
HETATM   47  N1  UNL     1      21.245  43.754  11.451  1.00  0.00    -0.312 N
ATOM     48  H1  UNL     1      20.798  44.068  10.590  1.00  0.00     0.172 HD
BRANCH  47  49
HETATM   49  S1  UNL     1      21.478  42.095  11.836  1.00  0.00     0.223 S
HETATM   50  C1  UNL     1      21.457  41.075  10.390  1.00  0.00     0.185 C
HETATM   51  O1  UNL     1      22.858  41.973  12.453  1.00  0.00    -0.206 OA
HETATM   52  O2  UNL     1      20.469  41.586  12.819  1.00  0.00    -0.206 OA
ENDBRANCH  47  49
ENDBRANCH   1  47
BRANCH   9  53
HETATM   53  O7  UNL     1      23.681  44.434  11.163  1.00  0.00    -0.391 OA
ATOM     54  H7  UNL     1      24.617  44.271  11.189  1.00  0.00     0.210 HD
ENDBRANCH   9  53
TORSDOF 12
ENDMDL