MODEL 2
REMARK VINA RESULT: -9.212123255      0.984      1.137
REMARK  17 active torsions:
REMARK  status: ('A' for Active; 'I' for Inactive)
REMARK    1  A    between atoms: C2_2  and  O1_4
REMARK    2  A    between atoms: C2_2  and  C4_6
REMARK    3  A    between atoms: C4_6  and  N1_7
REMARK       I    between atoms: N1_7  and  C5_9
REMARK    4  A    between atoms: C5_9  and  C6_11
REMARK    5  A    between atoms: C6_11  and  O3_12
REMARK    6  A    between atoms: C6_11  and  N2_14
REMARK    7  A    between atoms: N2_14  and  O4_15
REMARK    8  A    between atoms: O4_15  and  C7_16
REMARK    9  A    between atoms: C7_16  and  C8_18
REMARK   10  A    between atoms: C8_18  and  C9_19
REMARK   11  A    between atoms: C8_18  and  N6_36
REMARK   12  A    between atoms: C9_19  and  C10_20
REMARK   13  A    between atoms: C9_19  and  C11_23
REMARK   14  A    between atoms: C13_26  and  N4_27
REMARK   15  A    between atoms: C16_30  and  O8_31
REMARK   16  A    between atoms: N7_41  and  O10_42
REMARK   17  A    between atoms: C23_47  and  O12_48
ROOT
HETATM    1  C8  UNL     1      24.289  43.228  20.960  1.00  0.00     0.138 C
ENDROOT
BRANCH   1   2
HETATM    2  C7  UNL     1      23.018  42.657  20.470  1.00  0.00     0.330 C
HETATM    3  O5  UNL     1      21.953  43.274  20.542  1.00  0.00    -0.256 OA
BRANCH   2   4
HETATM    4  O4  UNL     1      23.008  41.404  19.909  1.00  0.00    -0.199 OA
BRANCH   4   5
HETATM    5  N2  UNL     1      23.763  41.087  18.791  1.00  0.00    -0.049 NA
BRANCH   5   6
HETATM    6  C6  UNL     1      24.390  39.813  18.907  1.00  0.00     0.331 C
BRANCH   6   7
HETATM    7  C5  UNL     1      23.753  38.837  17.998  1.00  0.00     0.264 C
HETATM    8  N1  UNL     1      23.869  37.432  18.161  1.00  0.00    -0.355 N
ATOM      9  H1  UNL     1      24.413  37.059  18.939  1.00  0.00     0.162 HD
HETATM   10  O2  UNL     1      23.073  39.252  17.028  1.00  0.00    -0.269 OA
BRANCH   8  11
HETATM   11  C4  UNL     1      23.232  36.527  17.245  1.00  0.00     0.159 C
BRANCH  11  12
HETATM   12  C2  UNL     1      22.735  35.317  17.964  1.00  0.00     0.066 C
HETATM   13  C1  UNL     1      22.310  34.225  16.989  1.00  0.00     0.047 C
HETATM   14  C3  UNL     1      23.894  34.758  18.778  1.00  0.00     0.047 C
BRANCH  12  15
HETATM   15  O1  UNL     1      21.676  35.542  18.813  1.00  0.00    -0.389 OA
ATOM     16  H1  UNL     1      20.935  35.800  18.278  1.00  0.00     0.210 HD
ENDBRANCH  12  15
ENDBRANCH  11  12
ENDBRANCH   8  11
ENDBRANCH   6   7
BRANCH   6  17
HETATM   17  O3  UNL     1      24.435  39.293  20.200  1.00  0.00    -0.369 OA
ATOM     18  H3  UNL     1      25.301  38.945  20.375  1.00  0.00     0.212 HD
ENDBRANCH   6  17
ENDBRANCH   5   6
ENDBRANCH   4   5
ENDBRANCH   2   4
ENDBRANCH   1   2
BRANCH   1  19
HETATM   19  C9  UNL     1      24.499  44.656  20.846  1.00  0.00     0.091 C
BRANCH  19  20
HETATM   20  C10 UNL     1      23.868  45.387  21.979  1.00  0.00     0.269 C
HETATM   21  N3  UNL     1      24.680  45.854  23.031  1.00  0.00    -0.057 NA
HETATM   22  O6  UNL     1      22.641  45.627  22.075  1.00  0.00    -0.271 OA
ENDBRANCH  19  20
BRANCH  19  23
HETATM   23  C11 UNL     1      24.340  45.400  19.603  1.00  0.00     0.075 A
HETATM   24  C12 UNL     1      25.274  46.407  19.281  1.00  0.00     0.176 A
HETATM   25  O7  UNL     1      24.928  46.905  18.140  1.00  0.00    -0.289 OA
HETATM   26  C13 UNL     1      23.851  46.324  17.675  1.00  0.00     0.226 A
HETATM   27  N5  UNL     1      23.495  45.403  18.572  1.00  0.00    -0.319 N
ATOM     28  H5  UNL     1      22.688  44.786  18.481  1.00  0.00     0.169 HD
BRANCH  26  29
HETATM   29  N4  UNL     1      23.197  46.620  16.453  1.00  0.00    -0.344 N
HETATM   30  C14 UNL     1      22.461  45.729  15.596  1.00  0.00     0.129 C
HETATM   31  C15 UNL     1      21.214  46.580  15.307  1.00  0.00     0.053 C
HETATM   32  C16 UNL     1      21.660  48.020  15.494  1.00  0.00     0.137 C
HETATM   33  C17 UNL     1      23.150  47.910  15.799  1.00  0.00     0.158 C
BRANCH  32  34
HETATM   34  O8  UNL     1      21.067  48.602  16.617  1.00  0.00    -0.394 OA
ATOM     35  H8  UNL     1      21.689  49.124  17.110  1.00  0.00     0.210 HD
ENDBRANCH  32  34
ENDBRANCH  26  29
ENDBRANCH  19  23
ENDBRANCH   1  19
BRANCH   1  36
HETATM   36  N6  UNL     1      24.950  42.437  21.977  1.00  0.00    -0.258 N
HETATM   37  C18 UNL     1      24.508  42.313  23.257  1.00  0.00     0.036 A
HETATM   38  C19 UNL     1      25.234  41.550  24.155  1.00  0.00     0.038 A
HETATM   39  C24 UNL     1      23.316  42.805  23.976  1.00  0.00     0.090 C
HETATM   40  C20 UNL     1      26.390  40.914  23.772  1.00  0.00     0.284 A
HETATM   41  C22 UNL     1      24.585  41.581  25.490  1.00  0.00     0.078 C
HETATM   42  O9  UNL     1      27.086  40.203  24.570  1.00  0.00    -0.265 OA
HETATM   43  N7  UNL     1      26.833  41.030  22.508  1.00  0.00    -0.133 N
HETATM   44  C21 UNL     1      26.117  41.766  21.682  1.00  0.00     0.361 A
HETATM   45  O11 UNL     1      26.575  41.845  20.484  1.00  0.00    -0.243 OA
HETATM   46  C23 UNL     1      23.147  41.729  25.070  1.00  0.00     0.128 C
BRANCH  43  47
HETATM   47  O10 UNL     1      27.998  40.406  22.086  1.00  0.00    -0.276 OA
ATOM     48  H10 UNL     1      27.982  39.687  21.465  1.00  0.00     0.245 HD
ENDBRANCH  43  47
BRANCH  46  49
HETATM   49  O12 UNL     1      22.404  42.295  26.108  1.00  0.00    -0.395 OA
ATOM     50  H12 UNL     1      22.018  43.114  25.819  1.00  0.00     0.210 HD
ENDBRANCH  46  49
ENDBRANCH   1  36
TORSDOF 17
ENDMDL