MODEL 1
REMARK VINA RESULT: -9.784335284      0.000      0.000
REMARK  17 active torsions:
REMARK  status: ('A' for Active; 'I' for Inactive)
REMARK    1  A    between atoms: C2_2  and  O1_3
REMARK    2  A    between atoms: O1_3  and  C3_4
REMARK    3  A    between atoms: C3_4  and  C4_6
REMARK    4  A    between atoms: C9_13  and  C10_14
REMARK    5  A    between atoms: C10_14  and  N2_15
REMARK    6  A    between atoms: C10_14  and  C19_44
REMARK    7  A    between atoms: N2_15  and  C11_17
REMARK    8  A    between atoms: C11_17  and  C12_18
REMARK    9  A    between atoms: C12_18  and  N3_20
REMARK   10  A    between atoms: N3_20  and  N4_22
REMARK       I    between atoms: N4_22  and  C13_24
REMARK   11  A    between atoms: C13_24  and  C14_26
REMARK   12  A    between atoms: C17_38  and  C18_39
REMARK   13  A    between atoms: C18_39  and  N8_40
REMARK   14  A    between atoms: N8_40  and  N9_41
REMARK   15  A    between atoms: C19_44  and  O8_46
REMARK   16  A    between atoms: C21_48  and  O9_49
REMARK   17  A    between atoms: C21_48  and  O10_51
ROOT
HETATM    1  C11 UNL     1      23.643  45.434  18.392  1.00  0.00     0.219 A
HETATM    2  O6  UNL     1      24.816  44.939  17.697  1.00  0.00    -0.340 OA
HETATM    3  C17 UNL     1      24.993  45.910  18.679  1.00  0.00     0.204 A
ENDROOT
BRANCH   1   4
HETATM    4  N2  UNL     1      22.696  45.902  17.456  1.00  0.00    -0.345 N
ATOM      5  H2  UNL     1      21.728  46.005  17.760  1.00  0.00     0.163 HD
BRANCH   4   6
HETATM    6  C10 UNL     1      23.009  46.227  16.160  1.00  0.00     0.120 C
BRANCH   6   7
HETATM    7  C9  UNL     1      22.713  45.448  14.979  1.00  0.00     0.059 A
HETATM    8  C7  UNL     1      21.492  45.368  14.471  1.00  0.00     0.019 A
HETATM    9  N1  UNL     1      21.211  44.607  13.322  1.00  0.00    -0.365 N
HETATM   10  C8  UNL     1      20.400  46.151  15.103  1.00  0.00     0.069 C
HETATM   11  C5  UNL     1      22.056  43.955  12.680  1.00  0.00     0.002 A
ATOM     12  H1  UNL     1      20.247  44.589  12.991  1.00  0.00     0.165 HD
HETATM   13  C4  UNL     1      23.476  43.941  13.108  1.00  0.00     0.198 A
HETATM   14  C6  UNL     1      21.660  43.169  11.464  1.00  0.00     0.064 C
HETATM   15  C21 UNL     1      23.830  44.773  14.262  1.00  0.00     0.211 A
BRANCH  13  16
HETATM   16  C3  UNL     1      24.379  44.154  11.959  1.00  0.00     0.274 C
HETATM   17  O2  UNL     1      25.410  43.492  11.801  1.00  0.00    -0.264 OA
BRANCH  16  18
HETATM   18  O1  UNL     1      24.084  45.133  11.003  1.00  0.00    -0.321 OA
BRANCH  18  19
HETATM   19  C2  UNL     1      25.110  46.064  10.640  1.00  0.00     0.174 C
HETATM   20  C1  UNL     1      24.582  47.072   9.666  1.00  0.00     0.034 C
ENDBRANCH  18  19
ENDBRANCH  16  18
ENDBRANCH  13  16
BRANCH  15  21
HETATM   21  O9  UNL     1      24.909  45.626  14.015  1.00  0.00    -0.361 OA
ATOM     22  H9  UNL     1      25.721  45.324  14.406  1.00  0.00     0.213 HD
ENDBRANCH  15  21
BRANCH  15  23
HETATM   23  O10 UNL     1      24.376  43.906  15.290  1.00  0.00    -0.361 OA
ATOM     24  H10 UNL     1      24.001  43.040  15.174  1.00  0.00     0.213 HD
ENDBRANCH  15  23
ENDBRANCH   6   7
BRANCH   6  25
HETATM   25  C19 UNL     1      22.815  47.674  15.902  1.00  0.00     0.310 C
HETATM   26  O7  UNL     1      22.195  48.417  16.728  1.00  0.00    -0.258 OA
BRANCH  25  27
HETATM   27  O8  UNL     1      23.300  48.265  14.760  1.00  0.00    -0.321 OA
HETATM   28  C20 UNL     1      22.452  48.639  13.702  1.00  0.00     0.213 C
ENDBRANCH  25  27
ENDBRANCH   6  25
ENDBRANCH   4   6
ENDBRANCH   1   4
BRANCH   1  29
HETATM   29  C12 UNL     1      23.135  44.406  19.402  1.00  0.00     0.151 C
HETATM   30  S1  UNL     1      22.212  44.915  20.597  1.00  0.00    -0.058 SA
BRANCH  29  31
HETATM   31  N3  UNL     1      23.510  43.074  19.282  1.00  0.00    -0.287 N
ATOM     32  H3  UNL     1      23.509  42.667  18.347  1.00  0.00     0.188 HD
BRANCH  31  33
HETATM   33  N4  UNL     1      23.889  42.251  20.344  1.00  0.00    -0.262 N
HETATM   34  C13 UNL     1      25.141  42.460  20.958  1.00  0.00     0.305 C
HETATM   35  O3  UNL     1      25.885  43.377  20.542  1.00  0.00    -0.263 OA
ATOM     36  H4  UNL     1      23.270  41.509  20.671  1.00  0.00     0.190 HD
BRANCH  34  37
HETATM   37  C14 UNL     1      25.622  41.650  22.068  1.00  0.00     0.194 A
HETATM   38  N5  UNL     1      24.701  41.010  22.821  1.00  0.00    -0.299 N
HETATM   39  C15 UNL     1      25.075  40.251  23.853  1.00  0.00     0.316 A
ATOM     40  H5  UNL     1      23.710  41.107  22.597  1.00  0.00     0.171 HD
HETATM   41  O4  UNL     1      24.209  39.644  24.566  1.00  0.00    -0.262 OA
HETATM   42  C16 UNL     1      26.420  40.120  24.154  1.00  0.00     0.328 A
HETATM   43  O5  UNL     1      26.771  39.404  25.125  1.00  0.00    -0.261 OA
HETATM   44  N6  UNL     1      27.299  40.775  23.378  1.00  0.00    -0.260 N
HETATM   45  N7  UNL     1      26.913  41.518  22.367  1.00  0.00    -0.278 N
ATOM     46  H6  UNL     1      28.295  40.693  23.581  1.00  0.00     0.190 HD
ATOM     47  H7  UNL     1      27.613  42.000  21.802  1.00  0.00     0.189 HD
ENDBRANCH  34  37
ENDBRANCH  31  33
ENDBRANCH  29  31
ENDBRANCH   1  29
BRANCH   3  48
HETATM   48  C18 UNL     1      25.623  47.202  18.327  1.00  0.00     0.171 C
BRANCH  48  49
HETATM   49  N8  UNL     1      27.076  47.179  18.437  1.00  0.00    -0.146 NA
BRANCH  49  50
HETATM   50  N9  UNL     1      27.433  45.960  19.021  1.00  0.00    -0.348 N
ATOM     51  H92 UNL     1      27.080  45.603  19.908  1.00  0.00     0.172 HD
ATOM     52  H91 UNL     1      28.102  45.507  18.399  1.00  0.00     0.172 HD
ENDBRANCH  49  50
ENDBRANCH  48  49
ENDBRANCH   3  48
TORSDOF 17
ENDMDL