MODEL 3
REMARK VINA RESULT: -5.298403189      3.062      5.256
REMARK  16 active torsions:
REMARK  status: ('A' for Active; 'I' for Inactive)
REMARK    1  A    between atoms: O1_2  and  C2_3
REMARK    2  A    between atoms: C2_3  and  C3_5
REMARK    3  A    between atoms: C8_13  and  O4_14
REMARK    4  A    between atoms: C9_16  and  C10_17
REMARK    5  A    between atoms: C10_17  and  N2_18
REMARK    6  A    between atoms: C10_17  and  C11_22
REMARK    7  A    between atoms: C14_29  and  C15_30
REMARK    8  A    between atoms: N5_32  and  O6_34
REMARK    9  A    between atoms: O6_34  and  C16_35
REMARK   10  A    between atoms: C16_35  and  C17_36
REMARK   11  A    between atoms: C17_36  and  N6_37
REMARK   12  A    between atoms: C18_41  and  O7_43
REMARK   13  A    between atoms: C20_45  and  O8_46
REMARK   14  A    between atoms: C20_45  and  C21_48
REMARK   15  A    between atoms: C21_48  and  N7_49
REMARK   16  A    between atoms: C21_48  and  O9_53
ROOT
HETATM    1  C3  UNL     1      20.621  37.269  11.327  1.00  0.00     0.189 C
HETATM    2  N1  UNL     1      21.968  37.707  11.787  1.00  0.00    -0.337 N
ATOM      3  H1  UNL     1      22.808  37.599  11.219  1.00  0.00     0.164 HD
HETATM    4  C4  UNL     1      21.986  38.280  13.069  1.00  0.00     0.230 C
HETATM    5  O3  UNL     1      22.926  38.344  13.915  1.00  0.00    -0.273 OA
HETATM    6  C5  UNL     1      20.621  38.833  13.235  1.00  0.00     0.078 C
HETATM    7  C6  UNL     1      20.183  39.118  14.607  1.00  0.00     0.029 C
HETATM    8  C7  UNL     1      20.562  40.130  12.525  1.00  0.00     0.054 C
HETATM    9  C8  UNL     1      21.743  41.038  12.755  1.00  0.00     0.126 C
HETATM   10  C9  UNL     1      21.320  42.417  12.284  1.00  0.00     0.064 C
HETATM   11  C12 UNL     1      20.435  42.381  11.047  1.00  0.00     0.096 C
HETATM   12  S1  UNL     1      21.278  42.016   9.537  1.00  0.00    -0.097 SA
HETATM   13  S2  UNL     1      20.363  40.601   8.269  1.00  0.00    -0.097 SA
HETATM   14  C13 UNL     1      19.027  39.695   8.934  1.00  0.00     0.101 C
HETATM   15  C14 UNL     1      19.143  38.313   9.392  1.00  0.00     0.099 C
HETATM   16  C18 UNL     1      20.318  37.691   9.957  1.00  0.00     0.103 C
HETATM   17  C19 UNL     1      21.632  38.139   9.286  1.00  0.00     0.050 C
HETATM   18  C20 UNL     1      19.892  37.646  12.555  1.00  0.00     0.163 C
ENDROOT
BRANCH  15  19
HETATM   19  C15 UNL     1      18.505  37.519   8.227  1.00  0.00     0.121 C
HETATM   20  N4  UNL     1      18.937  37.640   6.913  1.00  0.00    -0.085 NA
HETATM   21  N5  UNL     1      17.529  36.773   8.513  1.00  0.00    -0.257 N
ATOM     22  H5  UNL     1      17.289  36.791   9.504  1.00  0.00     0.195 HD
BRANCH  21  23
HETATM   23  O6  UNL     1      16.743  35.964   7.798  1.00  0.00    -0.278 OA
BRANCH  23  24
HETATM   24  C16 UNL     1      15.768  35.221   8.556  1.00  0.00     0.228 C
BRANCH  24  25
HETATM   25  C17 UNL     1      14.541  35.086   7.672  1.00  0.00     0.258 C
BRANCH  25  26
HETATM   26  N6  UNL     1      13.739  36.267   7.784  1.00  0.00    -0.077 N
ATOM     27  H63 UNL     1      12.775  36.054   8.041  1.00  0.00     0.274 HD
ATOM     28  H62 UNL     1      13.988  36.825   8.600  1.00  0.00     0.274 HD
ATOM     29  H61 UNL     1      13.798  36.802   6.917  1.00  0.00     0.274 HD
ENDBRANCH  25  26
ENDBRANCH  24  25
ENDBRANCH  23  24
ENDBRANCH  21  23
ENDBRANCH  15  19
BRANCH  16  30
HETATM   30  O7  UNL     1      20.242  36.420   9.187  1.00  0.00    -0.386 OA
ATOM     31  H7  UNL     1      20.039  36.692   8.300  1.00  0.00     0.210 HD
ENDBRANCH  16  30
BRANCH   1  32
HETATM   32  C2  UNL     1      20.935  35.801  11.214  1.00  0.00     0.293 C
HETATM   33  O2  UNL     1      22.077  35.262  11.222  1.00  0.00    -0.262 OA
BRANCH  32  34
HETATM   34  O1  UNL     1      19.958  34.803  11.057  1.00  0.00    -0.324 OA
HETATM   35  C1  UNL     1      20.281  33.435  10.958  1.00  0.00     0.213 C
ENDBRANCH  32  34
ENDBRANCH   1  32
BRANCH  18  36
HETATM   36  O8  UNL     1      18.604  38.084  12.417  1.00  0.00    -0.381 OA
ATOM     37  H8  UNL     1      18.399  38.955  12.737  1.00  0.00     0.211 HD
ENDBRANCH  18  36
BRANCH  18  38
HETATM   38  C21 UNL     1      19.743  36.640  13.672  1.00  0.00     0.357 C
BRANCH  38  39
HETATM   39  N7  UNL     1      20.836  35.720  13.901  1.00  0.00    -0.050 N
ATOM     40  H73 UNL     1      20.680  35.225  14.779  1.00  0.00     0.277 HD
ATOM     41  H72 UNL     1      20.773  34.951  13.233  1.00  0.00     0.277 HD
ATOM     42  H71 UNL     1      21.784  36.097  13.891  1.00  0.00     0.277 HD
ENDBRANCH  38  39
BRANCH  38  43
HETATM   43  O9  UNL     1      18.508  36.014  13.732  1.00  0.00    -0.362 OA
HETATM   44  C22 UNL     1      18.619  34.687  14.043  1.00  0.00     0.204 C
ENDBRANCH  38  43
ENDBRANCH  18  38
BRANCH  10  45
HETATM   45  C10 UNL     1      22.464  43.383  12.117  1.00  0.00     0.279 C
BRANCH  45  46
HETATM   46  N2  UNL     1      22.199  44.529  11.322  1.00  0.00    -0.066 N
ATOM     47  H23 UNL     1      23.019  45.134  11.303  1.00  0.00     0.275 HD
ATOM     48  H22 UNL     1      22.143  44.263  10.339  1.00  0.00     0.275 HD
ATOM     49  H21 UNL     1      21.375  45.072  11.581  1.00  0.00     0.275 HD
ENDBRANCH  45  46
BRANCH  45  50
HETATM   50  C11 UNL     1      22.881  43.821  13.473  1.00  0.00     0.262 C
HETATM   51  N3  UNL     1      21.888  44.230  14.420  1.00  0.00    -0.060 NA
HETATM   52  O5  UNL     1      24.074  43.867  13.867  1.00  0.00    -0.275 OA
ENDBRANCH  45  50
ENDBRANCH  10  45
BRANCH   9  53
HETATM   53  O4  UNL     1      22.925  40.622  12.219  1.00  0.00    -0.395 OA
ATOM     54  H4  UNL     1      23.032  40.770  11.287  1.00  0.00     0.210 HD
ENDBRANCH   9  53
TORSDOF 16
ENDMDL