MODEL 5
REMARK VINA RESULT: -9.649620472      2.514      4.733
REMARK  15 active torsions:
REMARK  status: ('A' for Active; 'I' for Inactive)
REMARK    1  A    between atoms: N1_1  and  N2_4
REMARK    2  A    between atoms: N2_4  and  N3_5
REMARK    3  A    between atoms: N3_5  and  C1_7
REMARK    4  A    between atoms: C3_9  and  N4_10
REMARK    5  A    between atoms: C5_15  and  N7_16
REMARK    6  A    between atoms: C6_21  and  N9_22
REMARK    7  A    between atoms: C8_29  and  C9_30
REMARK       I    between atoms: C9_30  and  N11_32
REMARK    8  A    between atoms: N11_32  and  C10_34
REMARK    9  A    between atoms: C10_34  and  C11_35
REMARK       I    between atoms: C11_35  and  N12_37
REMARK   10  A    between atoms: N12_37  and  C12_39
REMARK   11  A    between atoms: C12_39  and  C13_40
REMARK   12  A    between atoms: C12_39  and  C17_51
REMARK       I    between atoms: C13_40  and  N13_42
REMARK   13  A    between atoms: N13_42  and  C14_44
REMARK   14  A    between atoms: C14_44  and  C15_45
REMARK   15  A    between atoms: C14_44  and  C16_48
ROOT
HETATM    1  C9  UNL     1      25.285  44.032  20.424  1.00  0.00     0.249 C
HETATM    2  O2  UNL     1      26.384  44.264  19.877  1.00  0.00    -0.271 OA
HETATM    3  N11 UNL     1      24.157  44.791  20.070  1.00  0.00    -0.350 N
ATOM      4  H11 UNL     1      23.263  44.589  20.517  1.00  0.00     0.163 HD
ENDROOT
BRANCH   1   5
HETATM    5  C8  UNL     1      25.171  42.964  21.437  1.00  0.00     0.241 C
HETATM    6  C1  UNL     1      25.387  41.585  20.916  1.00  0.00     0.157 C
HETATM    7  C2  UNL     1      26.601  41.140  21.704  1.00  0.00     0.085 C
HETATM    8  C3  UNL     1      26.454  41.961  22.962  1.00  0.00     0.250 C
HETATM    9  O1  UNL     1      26.049  43.189  22.482  1.00  0.00    -0.349 OA
BRANCH   6  10
HETATM   10  N3  UNL     1      24.254  40.708  21.104  1.00  0.00    -0.245 N
ATOM     11  H3  UNL     1      23.762  40.755  21.996  1.00  0.00     0.197 HD
BRANCH  10  12
HETATM   12  N2  UNL     1      23.847  39.921  20.276  1.00  0.00    -0.248 NA
BRANCH  12  13
HETATM   13  N1  UNL     1      23.707  39.209  19.266  1.00  0.00    -0.261 N
ATOM     14  H12 UNL     1      24.422  38.542  19.557  1.00  0.00     0.193 HD
ATOM     15  H11 UNL     1      23.404  38.816  18.375  1.00  0.00     0.193 HD
ENDBRANCH  12  13
ENDBRANCH  10  12
ENDBRANCH   6  10
BRANCH   8  16
HETATM   16  N4  UNL     1      25.502  41.407  23.897  1.00  0.00    -0.148 N
HETATM   17  C4  UNL     1      25.432  40.124  24.294  1.00  0.00     0.222 A
HETATM   18  N5  UNL     1      24.415  39.997  25.169  1.00  0.00    -0.259 N
HETATM   19  N6  UNL     1      23.847  41.169  25.327  1.00  0.00     0.092 N
ATOM     20  H5  UNL     1      24.133  39.132  25.631  1.00  0.00     0.189 HD
HETATM   21  C5  UNL     1      22.801  41.546  26.092  1.00  0.00     0.727 A
HETATM   22  C7  UNL     1      24.508  42.041  24.551  1.00  0.00     0.738 A
HETATM   23  N8  UNL     1      22.435  42.836  26.053  1.00  0.00    -0.020 N
HETATM   24  C6  UNL     1      23.098  43.724  25.269  1.00  0.00     0.705 A
ATOM     25  H8  UNL     1      21.648  43.154  26.619  1.00  0.00     0.203 HD
HETATM   26  N10 UNL     1      24.134  43.324  24.518  1.00  0.00    -0.019 N
ATOM     27  H10 UNL     1      24.632  43.992  23.930  1.00  0.00     0.203 HD
BRANCH  21  28
HETATM   28  N7  UNL     1      22.173  40.702  26.835  1.00  0.00    -0.232 N
ATOM     29  H72 UNL     1      21.469  41.013  27.504  1.00  0.00     0.174 HD
ATOM     30  H71 UNL     1      22.358  39.700  26.777  1.00  0.00     0.174 HD
ENDBRANCH  21  28
BRANCH  24  31
HETATM   31  N9  UNL     1      22.710  44.976  25.259  1.00  0.00    -0.234 N
ATOM     32  H92 UNL     1      21.831  45.251  25.696  1.00  0.00     0.174 HD
ATOM     33  H91 UNL     1      23.301  45.673  24.805  1.00  0.00     0.174 HD
ENDBRANCH  24  31
ENDBRANCH   8  16
ENDBRANCH   1   5
BRANCH   3  34
HETATM   34  C10 UNL     1      24.230  45.842  19.097  1.00  0.00     0.225 C
BRANCH  34  35
HETATM   35  C11 UNL     1      23.755  45.496  17.755  1.00  0.00     0.236 C
HETATM   36  O3  UNL     1      24.018  44.353  17.276  1.00  0.00    -0.272 OA
HETATM   37  N12 UNL     1      23.004  46.417  16.982  1.00  0.00    -0.341 N
ATOM     38  H12 UNL     1      22.780  47.340  17.352  1.00  0.00     0.163 HD
BRANCH  37  39
HETATM   39  C12 UNL     1      22.561  46.030  15.663  1.00  0.00     0.227 C
BRANCH  39  40
HETATM   40  C13 UNL     1      23.698  46.031  14.729  1.00  0.00     0.247 C
HETATM   41  O4  UNL     1      24.785  46.549  15.086  1.00  0.00    -0.271 OA
HETATM   42  N13 UNL     1      23.556  45.450  13.443  1.00  0.00    -0.337 N
ATOM     43  H13 UNL     1      22.663  45.034  13.178  1.00  0.00     0.163 HD
BRANCH  42  44
HETATM   44  C14 UNL     1      24.665  45.435  12.487  1.00  0.00     0.275 C
BRANCH  44  45
HETATM   45  C15 UNL     1      24.335  46.347  11.392  1.00  0.00     0.264 C
HETATM   46  N14 UNL     1      24.938  46.193  10.137  1.00  0.00    -0.060 NA
HETATM   47  O5  UNL     1      23.513  47.278  11.557  1.00  0.00    -0.274 OA
ENDBRANCH  44  45
BRANCH  44  48
HETATM   48  C16 UNL     1      24.935  44.058  12.008  1.00  0.00     0.205 C
HETATM   49  O6  UNL     1      23.990  43.267  11.772  1.00  0.00    -0.646 OA
HETATM   50  O7  UNL     1      26.227  43.612  11.812  1.00  0.00    -0.646 OA
ENDBRANCH  44  48
ENDBRANCH  42  44
ENDBRANCH  39  40
BRANCH  39  51
HETATM   51  C17 UNL     1      21.542  47.071  15.259  1.00  0.00     0.047 A
HETATM   52  C18 UNL     1      21.900  48.008  14.348  1.00  0.00     0.045 A
HETATM   53  C19 UNL     1      20.965  48.970  13.973  1.00  0.00     0.095 A
HETATM   54  N15 UNL     1      19.746  48.935  14.525  1.00  0.00    -0.319 N
HETATM   55  C20 UNL     1      19.387  48.002  15.434  1.00  0.00     0.324 A
ATOM     56  H15 UNL     1      19.062  49.640  14.248  1.00  0.00     0.170 HD
HETATM   57  O8  UNL     1      18.226  47.986  15.946  1.00  0.00    -0.247 OA
HETATM   58  N16 UNL     1      20.302  47.080  15.785  1.00  0.00    -0.310 N
ATOM     59  H16 UNL     1      20.049  46.367  16.469  1.00  0.00     0.170 HD
ENDBRANCH  39  51
ENDBRANCH  37  39
ENDBRANCH  34  35
ENDBRANCH   3  34
TORSDOF 15
ENDMDL