MODEL 5
REMARK VINA RESULT: -8.151632846      1.388      2.322
REMARK  16 active torsions:
REMARK  status: ('A' for Active; 'I' for Inactive)
REMARK       I    between atoms: N1_2  and  C2_4
REMARK    1  A    between atoms: C2_4  and  C3_6
REMARK    2  A    between atoms: C5_8  and  N2_9
REMARK    3  A    between atoms: N2_9  and  C6_11
REMARK    4  A    between atoms: C7_16  and  S1_17
REMARK    5  A    between atoms: S1_17  and  C8_19
REMARK    6  A    between atoms: C8_19  and  N5_20
REMARK    7  A    between atoms: C8_19  and  O3_24
REMARK    8  A    between atoms: N6_26  and  C9_27
REMARK    9  A    between atoms: C10_30  and  N8_31
REMARK   10  A    between atoms: N8_31  and  C11_33
REMARK   11  A    between atoms: C11_33  and  C12_34
REMARK   12  A    between atoms: C12_34  and  O4_35
REMARK   13  A    between atoms: C13_39  and  N10_40
REMARK   14  A    between atoms: N10_40  and  C14_42
REMARK   15  A    between atoms: C15_45  and  N12_46
REMARK   16  A    between atoms: C18_51  and  N14_52
ROOT
HETATM    1  C9  UNL     1      22.551  44.168  14.090  1.00  0.00     0.734 A
HETATM    2  N7  UNL     1      21.588  45.085  13.917  1.00  0.00    -0.020 N
ATOM      3  H7  UNL     1      21.031  45.078  13.063  1.00  0.00     0.203 HD
HETATM    4  C10 UNL     1      21.351  46.011  14.857  1.00  0.00     0.707 A
HETATM    5  N9  UNL     1      22.108  45.986  15.966  1.00  0.00    -0.021 N
ATOM      6  H9  UNL     1      21.928  46.691  16.681  1.00  0.00     0.203 HD
HETATM    7  C13 UNL     1      23.086  45.093  16.194  1.00  0.00     0.726 A
HETATM    8  N16 UNL     1      23.287  44.177  15.214  1.00  0.00    -0.019 N
ATOM      9  H16 UNL     1      24.017  43.476  15.334  1.00  0.00     0.203 HD
ENDROOT
BRANCH   1  10
HETATM   10  N6  UNL     1      22.747  43.212  13.045  1.00  0.00     0.051 N
HETATM   11  C6  UNL     1      21.949  42.154  12.822  1.00  0.00     0.720 A
HETATM   12  N3  UNL     1      22.477  41.519  11.761  1.00  0.00    -0.129 N
HETATM   13  N4  UNL     1      23.571  42.156  11.334  1.00  0.00    -0.262 N
ATOM     14  H3  UNL     1      22.096  40.670  11.342  1.00  0.00     0.205 HD
HETATM   15  C7  UNL     1      23.748  43.220  12.137  1.00  0.00     0.235 A
ATOM     16  H4  UNL     1      24.162  41.885  10.547  1.00  0.00     0.189 HD
BRANCH  11  17
HETATM   17  N2  UNL     1      20.894  41.804  13.471  1.00  0.00    -0.189 N
ATOM     18  H2  UNL     1      20.357  42.499  13.990  1.00  0.00     0.184 HD
BRANCH  17  19
HETATM   19  C5  UNL     1      20.483  40.447  13.462  1.00  0.00     0.052 A
HETATM   20  C4  UNL     1      19.457  39.943  12.687  1.00  0.00     0.065 A
HETATM   21  C3  UNL     1      19.090  38.624  12.706  1.00  0.00     0.102 A
HETATM   22  N17 UNL     1      19.766  37.801  13.519  1.00  0.00    -0.361 N
HETATM   23  C20 UNL     1      20.783  38.236  14.306  1.00  0.00     0.090 A
ATOM     24  H17 UNL     1      19.507  36.815  13.548  1.00  0.00     0.165 HD
HETATM   25  C19 UNL     1      21.148  39.563  14.282  1.00  0.00     0.047 A
BRANCH  21  26
HETATM   26  C2  UNL     1      18.015  38.076  11.896  1.00  0.00     0.267 C
HETATM   27  N1  UNL     1      17.754  38.579  10.592  1.00  0.00    -0.360 N
HETATM   28  C1  UNL     1      16.698  38.045   9.787  1.00  0.00     0.149 C
ATOM     29  H1  UNL     1      18.331  39.336  10.224  1.00  0.00     0.162 HD
HETATM   30  O1  UNL     1      17.323  37.150  12.367  1.00  0.00    -0.266 OA
ENDBRANCH  21  26
ENDBRANCH  17  19
ENDBRANCH  11  17
BRANCH  15  31
HETATM   31  S1  UNL     1      25.061  44.367  11.969  1.00  0.00     0.144 S
HETATM   32  O2  UNL     1      26.370  43.758  11.574  1.00  0.00    -0.245 OA
BRANCH  31  33
HETATM   33  C8  UNL     1      24.603  45.760  10.929  1.00  0.00     0.419 C
BRANCH  33  34
HETATM   34  N5  UNL     1      24.179  46.884  11.739  1.00  0.00    -0.041 N
ATOM     35  H53 UNL     1      23.471  47.446  11.266  1.00  0.00     0.278 HD
ATOM     36  H52 UNL     1      23.625  46.585  12.541  1.00  0.00     0.278 HD
ATOM     37  H51 UNL     1      24.981  47.447  12.021  1.00  0.00     0.278 HD
ENDBRANCH  33  34
BRANCH  33  38
HETATM   38  O3  UNL     1      25.703  46.173  10.173  1.00  0.00    -0.360 OA
ATOM     39  H3  UNL     1      25.469  46.214   9.254  1.00  0.00     0.213 HD
ENDBRANCH  33  38
ENDBRANCH  31  33
ENDBRANCH  15  31
ENDBRANCH   1  10
BRANCH   4  40
HETATM   40  N8  UNL     1      20.409  46.914  14.700  1.00  0.00    -0.223 N
ATOM     41  H8  UNL     1      19.440  46.609  14.607  1.00  0.00     0.177 HD
BRANCH  40  42
HETATM   42  C11 UNL     1      20.705  48.315  14.657  1.00  0.00     0.164 C
BRANCH  42  43
HETATM   43  C12 UNL     1      21.563  48.693  13.470  1.00  0.00     0.184 C
BRANCH  43  44
HETATM   44  O4  UNL     1      22.869  48.880  13.921  1.00  0.00    -0.399 OA
ATOM     45  H4  UNL     1      23.447  48.862  13.167  1.00  0.00     0.209 HD
ENDBRANCH  43  44
ENDBRANCH  42  43
ENDBRANCH  40  42
ENDBRANCH   4  40
BRANCH   7  46
HETATM   46  N10 UNL     1      23.849  45.125  17.392  1.00  0.00    -0.020 N
ATOM     47  H10 UNL     1      24.726  45.648  17.390  1.00  0.00     0.203 HD
BRANCH  46  48
HETATM   48  C14 UNL     1      23.501  44.533  18.480  1.00  0.00     0.726 A
HETATM   49  N11 UNL     1      23.833  43.263  18.700  1.00  0.00    -0.021 N
HETATM   50  C15 UNL     1      23.498  42.585  19.821  1.00  0.00     0.708 A
ATOM     51  H11 UNL     1      24.369  42.775  17.983  1.00  0.00     0.203 HD
HETATM   52  N13 UNL     1      22.788  43.253  20.758  1.00  0.00    -0.022 N
HETATM   53  C18 UNL     1      22.427  44.542  20.583  1.00  0.00     0.705 A
ATOM     54  H13 UNL     1      22.519  42.772  21.616  1.00  0.00     0.203 HD
HETATM   55  N15 UNL     1      22.795  45.152  19.440  1.00  0.00    -0.021 N
ATOM     56  H15 UNL     1      22.526  46.126  19.298  1.00  0.00     0.203 HD
BRANCH  50  57
HETATM   57  N12 UNL     1      23.882  41.230  19.998  1.00  0.00    -0.225 N
HETATM   58  C16 UNL     1      24.183  40.405  18.853  1.00  0.00     0.168 C
HETATM   59  C17 UNL     1      23.967  40.682  21.320  1.00  0.00     0.168 C
ENDBRANCH  50  57
BRANCH  53  60
HETATM   60  N14 UNL     1      21.750  45.143  21.499  1.00  0.00    -0.234 N
ATOM     61 2H14 UNL     1      21.042  45.845  21.283  1.00  0.00     0.174 HD
ATOM     62 1H14 UNL     1      21.918  44.918  22.480  1.00  0.00     0.174 HD
ENDBRANCH  53  60
ENDBRANCH  46  48
ENDBRANCH   7  46
TORSDOF 16
ENDMDL