MODEL 3
REMARK VINA RESULT: -8.570057701      1.487      2.615
REMARK  16 active torsions:
REMARK  status: ('A' for Active; 'I' for Inactive)
REMARK    1  A    between atoms: C2_2  and  O1_3
REMARK    2  A    between atoms: C2_2  and  C3_5
REMARK    3  A    between atoms: C6_9  and  O3_10
REMARK    4  A    between atoms: O3_10  and  C7_11
REMARK    5  A    between atoms: C7_11  and  C8_13
REMARK    6  A    between atoms: C8_13  and  N1_14
REMARK    7  A    between atoms: N1_14  and  C9_15
REMARK    8  A    between atoms: N1_14  and  C16_34
REMARK    9  A    between atoms: C9_15  and  C10_16
REMARK   10  A    between atoms: C13_23  and  N4_24
REMARK   11  A    between atoms: C16_34  and  C17_35
REMARK   12  A    between atoms: C18_36  and  N7_37
REMARK   13  A    between atoms: C21_43  and  N10_44
REMARK   14  A    between atoms: C24_52  and  O7_53
REMARK   15  A    between atoms: C24_52  and  C25_55
REMARK   16  A    between atoms: C25_55  and  O8_56
ROOT
HETATM    1  N7  UNL     1      25.021  40.454  21.999  1.00  0.00    -0.274 N
HETATM    2  C19 UNL     1      24.129  40.011  23.042  1.00  0.00     0.170 C
HETATM    3  C20 UNL     1      26.287  40.929  22.340  1.00  0.00     0.185 C
HETATM    4  N8  UNL     1      27.342  41.313  22.639  1.00  0.00    -0.172 NA
ENDROOT
BRANCH   1   5
HETATM    5  C18 UNL     1      24.584  40.392  20.656  1.00  0.00     0.144 A
HETATM    6  C17 UNL     1      24.425  41.584  19.913  1.00  0.00     0.069 A
HETATM    7  C22 UNL     1      23.999  41.420  18.622  1.00  0.00     0.270 A
HETATM    8  N11 UNL     1      23.742  40.181  18.093  1.00  0.00    -0.156 N
HETATM    9  O6  UNL     1      23.809  42.360  17.810  1.00  0.00    -0.267 OA
HETATM   10  C21 UNL     1      23.906  39.074  18.836  1.00  0.00     0.680 A
ATOM     11  H11 UNL     1      23.424  40.099  17.127  1.00  0.00     0.187 HD
HETATM   12  N9  UNL     1      24.327  39.204  20.111  1.00  0.00    -0.175 N
ATOM     13  H9  UNL     1      24.452  38.364  20.676  1.00  0.00     0.186 HD
BRANCH   6  14
HETATM   14  C16 UNL     1      24.784  42.859  20.546  1.00  0.00     0.143 C
BRANCH  14  15
HETATM   15  N1  UNL     1      23.636  43.582  21.012  1.00  0.00    -0.277 NA
BRANCH  15  16
HETATM   16  C8  UNL     1      23.086  44.456  20.006  1.00  0.00     0.143 C
BRANCH  16  17
HETATM   17  C7  UNL     1      23.985  45.266  19.214  1.00  0.00     0.298 C
HETATM   18  O4  UNL     1      25.207  45.064  19.140  1.00  0.00    -0.259 OA
BRANCH  17  19
HETATM   19  O3  UNL     1      23.542  46.370  18.451  1.00  0.00    -0.279 OA
BRANCH  19  20
HETATM   20  C6  UNL     1      23.409  46.272  17.071  1.00  0.00     0.063 C
HETATM   21  C5  UNL     1      23.403  45.011  16.604  1.00  0.00     0.083 C
HETATM   22  C4  UNL     1      23.268  44.810  15.171  1.00  0.00     0.161 C
HETATM   23  C3  UNL     1      23.559  45.974  14.302  1.00  0.00     0.125 C
HETATM   24  O2  UNL     1      22.925  43.713  14.693  1.00  0.00    -0.293 OA
HETATM   25  C24 UNL     1      22.810  47.144  14.822  1.00  0.00     0.098 C
HETATM   26  C23 UNL     1      23.288  47.459  16.222  1.00  0.00     0.106 C
BRANCH  23  27
HETATM   27  C2  UNL     1      23.271  45.595  12.888  1.00  0.00     0.128 C
HETATM   28  C1  UNL     1      24.430  45.070  12.114  1.00  0.00     0.040 C
BRANCH  27  29
HETATM   29  O1  UNL     1      22.638  46.593  12.168  1.00  0.00    -0.395 OA
ATOM     30  H1  UNL     1      22.861  47.443  12.528  1.00  0.00     0.210 HD
ENDBRANCH  27  29
ENDBRANCH  23  27
BRANCH  25  31
HETATM   31  O7  UNL     1      23.054  48.317  14.075  1.00  0.00    -0.386 OA
ATOM     32  H7  UNL     1      22.647  49.084  14.460  1.00  0.00     0.210 HD
ENDBRANCH  25  31
BRANCH  25  33
HETATM   33  C25 UNL     1      21.314  46.961  14.842  1.00  0.00     0.203 C
BRANCH  33  34
HETATM   34  O8  UNL     1      20.727  47.949  14.022  1.00  0.00    -0.398 OA
ATOM     35  H8  UNL     1      21.386  48.273  13.419  1.00  0.00     0.209 HD
ENDBRANCH  33  34
ENDBRANCH  25  33
ENDBRANCH  19  20
ENDBRANCH  17  19
ENDBRANCH  16  17
ENDBRANCH  15  16
BRANCH  15  36
HETATM   36  C9  UNL     1      24.043  44.420  22.170  1.00  0.00     0.153 C
BRANCH  36  37
HETATM   37  C10 UNL     1      23.241  44.229  23.352  1.00  0.00     0.039 A
HETATM   38  C11 UNL     1      22.240  45.152  23.661  1.00  0.00     0.116 A
HETATM   39  N2  UNL     1      21.474  44.999  24.762  1.00  0.00    -0.348 N
HETATM   40  C12 UNL     1      21.661  43.944  25.589  1.00  0.00     0.153 A
ATOM     41  H2  UNL     1      20.749  45.684  24.972  1.00  0.00     0.167 HD
HETATM   42  N3  UNL     1      20.890  43.794  26.693  1.00  0.00    -0.174 N
HETATM   43  C15 UNL     1      22.643  43.031  25.293  1.00  0.00     0.147 A
HETATM   44  C13 UNL     1      21.106  42.732  27.494  1.00  0.00     0.680 A
ATOM     45  H3  UNL     1      20.160  44.471  26.913  1.00  0.00     0.186 HD
HETATM   46  N5  UNL     1      22.068  41.830  27.211  1.00  0.00    -0.154 N
HETATM   47  C14 UNL     1      22.858  41.931  26.134  1.00  0.00     0.290 A
ATOM     48  H5  UNL     1      22.199  41.040  27.843  1.00  0.00     0.187 HD
HETATM   49  O5  UNL     1      23.763  41.112  25.837  1.00  0.00    -0.265 OA
HETATM   50  N6  UNL     1      23.386  43.214  24.194  1.00  0.00    -0.350 N
ATOM     51  H6  UNL     1      24.111  42.526  23.990  1.00  0.00     0.166 HD
BRANCH  44  52
HETATM   52  N4  UNL     1      20.398  42.543  28.559  1.00  0.00    -0.234 N
ATOM     53  H42 UNL     1      20.776  42.877  29.445  1.00  0.00     0.174 HD
ATOM     54  H41 UNL     1      19.493  42.074  28.515  1.00  0.00     0.174 HD
ENDBRANCH  44  52
ENDBRANCH  36  37
ENDBRANCH  15  36
ENDBRANCH  14  15
ENDBRANCH   6  14
BRANCH  10  55
HETATM   55  N10 UNL     1      23.665  37.901  18.339  1.00  0.00    -0.234 N
ATOM     56 2H10 UNL     1      22.722  37.642  18.049  1.00  0.00     0.174 HD
ATOM     57 1H10 UNL     1      24.417  37.220  18.229  1.00  0.00     0.174 HD
ENDBRANCH  10  55
ENDBRANCH   1   5
TORSDOF 16
ENDMDL