MODEL 1
REMARK VINA RESULT: -8.821060494      0.000      0.000
REMARK  14 active torsions:
REMARK  status: ('A' for Active; 'I' for Inactive)
REMARK    1  A    between atoms: C6_11  and  C7_12
REMARK       I    between atoms: C7_12  and  N3_14
REMARK    2  A    between atoms: N3_14  and  S1_16
REMARK    3  A    between atoms: S1_16  and  C8_19
REMARK    4  A    between atoms: C10_21  and  N4_22
REMARK       I    between atoms: N6_30  and  C12_31
REMARK    5  A    between atoms: C12_31  and  C13_33
REMARK    6  A    between atoms: C13_33  and  C14_35
REMARK    7  A    between atoms: C14_35  and  O8_36
REMARK    8  A    between atoms: C14_35  and  N7_38
REMARK    9  A    between atoms: N7_38  and  O9_39
REMARK   10  A    between atoms: O9_39  and  C15_40
REMARK   11  A    between atoms: C15_40  and  C16_41
REMARK   12  A    between atoms: C15_40  and  C17_44
REMARK   13  A    between atoms: C17_44  and  O12_45
REMARK   14  A    between atoms: C17_44  and  O13_47
ROOT
HETATM    1  C1  UNL     1      24.855  45.068  25.004  1.00  0.00     0.089 C
HETATM    2  C2  UNL     1      24.606  43.841  24.195  1.00  0.00     0.080 A
HETATM    3  N1  UNL     1      24.892  42.665  24.807  1.00  0.00    -0.312 N
ATOM      4  H1  UNL     1      25.253  42.654  25.761  1.00  0.00     0.170 HD
HETATM    5  C3  UNL     1      24.695  41.520  24.145  1.00  0.00     0.267 A
HETATM    6  O1  UNL     1      24.962  40.440  24.717  1.00  0.00    -0.267 OA
HETATM    7  C4  UNL     1      24.207  41.595  22.860  1.00  0.00     0.115 A
HETATM    8  C5  UNL     1      23.914  42.772  22.232  1.00  0.00     0.068 A
HETATM    9  N2  UNL     1      24.126  43.916  22.934  1.00  0.00    -0.346 N
ATOM     10  H2  UNL     1      23.924  44.823  22.513  1.00  0.00     0.167 HD
HETATM   11  C6  UNL     1      23.374  42.612  20.852  1.00  0.00     0.244 C
HETATM   12  N6  UNL     1      23.942  41.450  20.246  1.00  0.00    -0.260 N
HETATM   13  C12 UNL     1      24.435  41.014  19.034  1.00  0.00     0.305 C
HETATM   14  O6  UNL     1      24.455  41.730  18.010  1.00  0.00    -0.263 OA
HETATM   15  S3  UNL     1      23.855  40.310  21.666  1.00  0.00    -0.001 SA
ENDROOT
BRANCH  11  16
HETATM   16  C7  UNL     1      23.462  43.876  20.145  1.00  0.00     0.261 C
HETATM   17  O2  UNL     1      22.495  44.624  19.971  1.00  0.00    -0.270 OA
HETATM   18  N3  UNL     1      24.723  44.287  19.622  1.00  0.00    -0.248 N
ATOM     19  H3  UNL     1      25.538  43.687  19.752  1.00  0.00     0.182 HD
BRANCH  18  20
HETATM   20  S1  UNL     1      24.898  45.774  18.779  1.00  0.00     0.272 S
HETATM   21  O3  UNL     1      24.421  46.936  19.602  1.00  0.00    -0.200 OA
HETATM   22  O4  UNL     1      26.368  45.975  18.478  1.00  0.00    -0.200 OA
BRANCH  20  23
HETATM   23  C8  UNL     1      24.029  45.758  17.261  1.00  0.00     0.129 A
HETATM   24  C9  UNL     1      23.753  46.925  16.598  1.00  0.00     0.081 A
HETATM   25  C10 UNL     1      23.089  47.013  15.414  1.00  0.00     0.103 A
HETATM   26  N5  UNL     1      22.594  46.007  14.691  1.00  0.00    -0.304 N
HETATM   27  C11 UNL     1      22.657  44.704  14.998  1.00  0.00     0.290 A
ATOM     28  H5  UNL     1      22.122  46.254  13.821  1.00  0.00     0.171 HD
HETATM   29  O5  UNL     1      22.169  43.793  14.276  1.00  0.00    -0.260 OA
HETATM   30  S2  UNL     1      23.466  44.357  16.478  1.00  0.00    -0.015 SA
BRANCH  25  31
HETATM   31  N4  UNL     1      22.918  48.221  14.929  1.00  0.00    -0.385 N
ATOM     32  H42 UNL     1      23.412  48.976  15.406  1.00  0.00     0.157 HD
ATOM     33  H41 UNL     1      22.306  48.301  14.117  1.00  0.00     0.157 HD
ENDBRANCH  25  31
ENDBRANCH  20  23
ENDBRANCH  18  20
ENDBRANCH  11  16
BRANCH  13  34
HETATM   34  C13 UNL     1      24.972  39.670  18.867  1.00  0.00     0.263 C
HETATM   35  O7  UNL     1      26.020  39.367  19.489  1.00  0.00    -0.283 OA
BRANCH  34  36
HETATM   36  C14 UNL     1      24.337  38.638  17.991  1.00  0.00     0.319 C
BRANCH  36  37
HETATM   37  O8  UNL     1      23.145  39.064  17.452  1.00  0.00    -0.370 OA
ATOM     38  H8  UNL     1      23.240  39.857  16.937  1.00  0.00     0.212 HD
ENDBRANCH  36  37
BRANCH  36  39
HETATM   39  N7  UNL     1      24.135  37.462  18.806  1.00  0.00    -0.059 NA
BRANCH  39  40
HETATM   40  O9  UNL     1      23.843  36.374  18.055  1.00  0.00    -0.262 OA
BRANCH  40  41
HETATM   41  C15 UNL     1      24.569  35.266  18.423  1.00  0.00     0.302 C
BRANCH  41  42
HETATM   42  C16 UNL     1      25.629  35.001  17.445  1.00  0.00     0.210 C
HETATM   43  O10 UNL     1      26.444  34.036  17.587  1.00  0.00    -0.646 OA
HETATM   44  O11 UNL     1      25.782  35.796  16.328  1.00  0.00    -0.646 OA
ENDBRANCH  41  42
BRANCH  41  45
HETATM   45  C17 UNL     1      25.203  35.442  19.806  1.00  0.00     0.295 C
BRANCH  45  46
HETATM   46  O12 UNL     1      26.389  36.141  19.748  1.00  0.00    -0.368 OA
ATOM     47  H12 UNL     1      27.125  35.623  20.050  1.00  0.00     0.212 HD
ENDBRANCH  45  46
BRANCH  45  48
HETATM   48  O13 UNL     1      25.380  34.215  20.418  1.00  0.00    -0.368 OA
ATOM     49  H13 UNL     1      25.515  34.326  21.352  1.00  0.00     0.212 HD
ENDBRANCH  45  48
ENDBRANCH  41  45
ENDBRANCH  40  41
ENDBRANCH  39  40
ENDBRANCH  36  39
ENDBRANCH  34  36
ENDBRANCH  13  34
TORSDOF 14
ENDMDL