MODEL 4
REMARK VINA RESULT: -8.102175685      3.336      5.332
REMARK  4 active torsions:
REMARK  status: ('A' for Active; 'I' for Inactive)
REMARK    1  A    between atoms: N2_6  and  C3_7
REMARK    2  A    between atoms: C8_12  and  O2_13
REMARK    3  A    between atoms: O2_13  and  S1_14
REMARK    4  A    between atoms: S1_14  and  C9_17
ROOT
HETATM    1  C3  UNL     1      16.480 -12.361   7.185  1.00  0.00     0.075 A
HETATM    2  C4  UNL     1      15.547 -11.376   6.819  1.00  0.00     0.033 A
HETATM    3  C5  UNL     1      15.912 -10.064   6.661  1.00  0.00     0.002 A
HETATM    4  C6  UNL     1      17.209  -9.661   6.854  1.00  0.00     0.003 A
HETATM    5  C7  UNL     1      18.136 -10.599   7.209  1.00  0.00     0.040 A
HETATM    6  C8  UNL     1      17.773 -11.944   7.374  1.00  0.00     0.116 A
ENDROOT
BRANCH   1   7
HETATM    7  N2  UNL     1      16.031 -13.681   7.350  1.00  0.00    -0.280 N
HETATM    8  C2  UNL     1      15.841 -14.506   6.189  1.00  0.00     0.261 C
HETATM    9  N1  UNL     1      15.817 -15.918   6.515  1.00  0.00    -0.326 N
HETATM   10  C1  UNL     1      15.577 -16.450   7.796  1.00  0.00     0.325 C
ATOM     11  H1  UNL     1      15.989 -16.579   5.757  1.00  0.00     0.165 HD
HETATM   12  O1  UNL     1      15.380 -17.704   7.927  1.00  0.00    -0.247 OA
HETATM   13  N3  UNL     1      15.563 -15.569   8.908  1.00  0.00    -0.260 N
HETATM   14  C15 UNL     1      15.795 -14.172   8.655  1.00  0.00     0.332 C
ATOM     15  H3  UNL     1      15.393 -15.913   9.853  1.00  0.00     0.175 HD
HETATM   16  O5  UNL     1      15.775 -13.415   9.662  1.00  0.00    -0.246 OA
ENDBRANCH   1   7
BRANCH   6  17
HETATM   17  O2  UNL     1      18.743 -12.836   7.731  1.00  0.00    -0.227 OA
BRANCH  17  18
HETATM   18  S1  UNL     1      19.463 -14.023   6.810  1.00  0.00     0.303 S
HETATM   19  O3  UNL     1      18.979 -13.858   5.371  1.00  0.00    -0.193 OA
HETATM   20  O4  UNL     1      19.055 -15.415   7.279  1.00  0.00    -0.193 OA
BRANCH  18  21
HETATM   21  C9  UNL     1      21.192 -14.015   6.766  1.00  0.00     0.086 A
HETATM   22  C10 UNL     1      21.825 -13.256   5.807  1.00  0.00     0.026 A
HETATM   23  C11 UNL     1      23.207 -13.165   5.697  1.00  0.00     0.002 A
HETATM   24  C12 UNL     1      23.993 -13.865   6.587  1.00  0.00     0.000 A
HETATM   25  C13 UNL     1      23.385 -14.638   7.561  1.00  0.00     0.002 A
HETATM   26  C14 UNL     1      21.990 -14.712   7.650  1.00  0.00     0.026 A
ENDBRANCH  18  21
ENDBRANCH  17  18
ENDBRANCH   6  17
TORSDOF 4
ENDMDL