MODEL 1
REMARK VINA RESULT: -8.745714408      0.000      0.000
REMARK  4 active torsions:
REMARK  status: ('A' for Active; 'I' for Inactive)
REMARK    1  A    between atoms: C2_3  and  C3_4
REMARK    2  A    between atoms: C3_4  and  C4_5
REMARK    3  A    between atoms: C14_17  and  C15_18
REMARK    4  A    between atoms: C15_18  and  N3_19
ROOT
HETATM    1  C1  UNL     1      18.615 -15.725   6.733  1.00  0.00     0.156 C
HETATM    2  N1  UNL     1      19.053 -14.439   7.152  1.00  0.00    -0.354 N
HETATM    3  C2  UNL     1      20.355 -14.211   7.360  1.00  0.00     0.019 A
HETATM    4  C10 UNL     1      20.684 -12.915   7.776  1.00  0.00     0.081 A
HETATM    5  C11 UNL     1      19.754 -11.928   7.963  1.00  0.00     0.186 A
HETATM    6  O1  UNL     1      20.080 -10.774   8.337  1.00  0.00    -0.287 OA
HETATM    7  C12 UNL     1      18.425 -12.210   7.736  1.00  0.00     0.041 A
HETATM    8  C13 UNL     1      17.488 -11.228   7.921  1.00  0.00     0.026 A
HETATM    9  C14 UNL     1      16.170 -11.507   7.696  1.00  0.00    -0.039 A
HETATM   10  C19 UNL     1      15.795 -12.764   7.287  1.00  0.00     0.011 A
HETATM   11  C20 UNL     1      16.765 -13.747   7.105  1.00  0.00     0.031 A
HETATM   12  C21 UNL     1      18.107 -13.486   7.328  1.00  0.00     0.048 A
ENDROOT
BRANCH   3  13
HETATM   13  C3  UNL     1      21.447 -15.174   7.192  1.00  0.00     0.095 C
BRANCH  13  14
HETATM   14  C4  UNL     1      22.800 -14.558   7.163  1.00  0.00    -0.052 A
HETATM   15  C5  UNL     1      23.781 -15.062   8.014  1.00  0.00     0.009 A
HETATM   16  C6  UNL     1      25.052 -14.536   8.027  1.00  0.00     0.027 A
HETATM   17  C7  UNL     1      25.425 -13.490   7.210  1.00  0.00     0.046 A
HETATM   18  N2  UNL     1      26.740 -12.958   7.235  1.00  0.00    -0.102 NA
HETATM   19  C8  UNL     1      24.445 -13.000   6.372  1.00  0.00     0.027 A
HETATM   20  C9  UNL     1      23.166 -13.514   6.343  1.00  0.00     0.009 A
ENDBRANCH  13  14
ENDBRANCH   3  13
BRANCH   9  21
HETATM   21  C15 UNL     1      15.144 -10.457   7.892  1.00  0.00     0.171 C
BRANCH  21  22
HETATM   22  N3  UNL     1      14.819  -9.871   6.587  1.00  0.00    -0.304 N
HETATM   23  C16 UNL     1      13.749 -10.154   5.821  1.00  0.00     0.113 A
HETATM   24  C17 UNL     1      13.818  -9.379   4.663  1.00  0.00     0.110 A
HETATM   25  N4  UNL     1      14.925  -8.641   4.745  1.00  0.00    -0.317 N
HETATM   26  C18 UNL     1      15.524  -8.945   5.912  1.00  0.00     0.326 A
ATOM     27  H4  UNL     1      15.257  -7.971   4.052  1.00  0.00     0.170 HD
HETATM   28  O2  UNL     1      16.602  -8.403   6.275  1.00  0.00    -0.246 OA
ENDBRANCH  21  22
ENDBRANCH   9  21
TORSDOF 4
ENDMDL