MODEL 5
REMARK VINA RESULT: -6.983562014      1.189      1.677
REMARK  6 active torsions:
REMARK  status: ('A' for Active; 'I' for Inactive)
REMARK    1  A    between atoms: S1_2  and  C1_4
REMARK    2  A    between atoms: S1_2  and  C12_22
REMARK    3  A    between atoms: C1_4  and  C2_5
REMARK    4  A    between atoms: C2_5  and  C3_6
REMARK    5  A    between atoms: C3_6  and  O3_7
REMARK    6  A    between atoms: N1_9  and  O4_11
ROOT
HETATM    1  C2  UNL     1      17.674 -12.420   6.570  1.00  0.00     0.043 C
HETATM    2  C4  UNL     1      16.437 -12.710   5.802  1.00  0.00     0.049 C
HETATM    3  C5  UNL     1      15.423 -13.580   6.457  1.00  0.00     0.274 C
HETATM    4  N2  UNL     1      15.157 -13.356   7.831  1.00  0.00     0.093 N
HETATM    5  C6  UNL     1      13.781 -13.054   8.137  1.00  0.00     0.273 C
HETATM    6  C7  UNL     1      13.634 -12.348   9.466  1.00  0.00     0.030 C
HETATM    7  C8  UNL     1      14.666 -12.862  10.429  1.00  0.00     0.004 C
HETATM    8  C9  UNL     1      16.030 -12.413   9.921  1.00  0.00     0.036 C
HETATM    9  C10 UNL     1      16.091 -12.456   8.412  1.00  0.00     0.224 C
HETATM   10  C11 UNL     1      17.470 -12.945   8.019  1.00  0.00     0.055 C
ENDROOT
BRANCH   1  11
HETATM   11  C1  UNL     1      18.939 -13.004   6.053  1.00  0.00     0.163 C
BRANCH  11  12
HETATM   12  S1  UNL     1      20.029 -13.587   7.283  1.00  0.00     0.176 S
HETATM   13  O1  UNL     1      19.730 -15.009   7.642  1.00  0.00    -0.223 OA
HETATM   14  O2  UNL     1      20.056 -12.737   8.530  1.00  0.00    -0.223 OA
BRANCH  12  15
HETATM   15  C12 UNL     1      21.707 -13.583   6.710  1.00  0.00     0.059 A
HETATM   16  C13 UNL     1      22.703 -14.239   7.391  1.00  0.00     0.023 A
HETATM   17  C14 UNL     1      24.000 -14.235   6.943  1.00  0.00     0.002 A
HETATM   18  C15 UNL     1      24.333 -13.558   5.777  1.00  0.00     0.000 A
HETATM   19  C16 UNL     1      23.348 -12.902   5.090  1.00  0.00     0.002 A
HETATM   20  C17 UNL     1      22.044 -12.916   5.555  1.00  0.00     0.023 A
ENDBRANCH  12  15
ENDBRANCH  11  12
ENDBRANCH   1  11
BRANCH   1  21
HETATM   21  C3  UNL     1      17.829 -10.944   6.771  1.00  0.00     0.145 C
HETATM   22  N1  UNL     1      17.051 -10.136   6.122  1.00  0.00    -0.250 N
ATOM     23  H1  UNL     1      16.357 -10.540   5.492  1.00  0.00     0.196 HD
BRANCH  21  24
HETATM   24  O3  UNL     1      18.780 -10.400   7.627  1.00  0.00    -0.347 OA
ATOM     25  H3  UNL     1      19.484  -9.840   7.321  1.00  0.00     0.219 HD
ENDBRANCH  21  24
BRANCH  22  26
HETATM   26  O4  UNL     1      17.104  -8.787   6.229  1.00  0.00    -0.288 OA
ATOM     27  H4  UNL     1      16.683  -8.190   5.621  1.00  0.00     0.244 HD
ENDBRANCH  22  26
ENDBRANCH   1  21
TORSDOF 6
ENDMDL