MODEL 2
REMARK VINA RESULT: -7.568382148      1.050      1.518
REMARK  6 active torsions:
REMARK  status: ('A' for Active; 'I' for Inactive)
REMARK    1  A    between atoms: C5_6  and  N1_7
REMARK    2  A    between atoms: C8_10  and  C9_11
REMARK    3  A    between atoms: C8_10  and  S1_18
REMARK    4  A    between atoms: C9_11  and  O2_12
REMARK    5  A    between atoms: N2_14  and  O3_16
REMARK    6  A    between atoms: S1_18  and  C10_20
ROOT
HETATM    1  N1  UNL     1      20.611 -13.550   7.059  1.00  0.00    -0.378 N
HETATM    2  C6  UNL     1      20.224 -12.266   7.626  1.00  0.00     0.125 C
HETATM    3  C7  UNL     1      18.854 -12.486   8.231  1.00  0.00     0.052 C
HETATM    4  C8  UNL     1      17.862 -12.519   7.093  1.00  0.00     0.111 C
HETATM    5  C16 UNL     1      18.482 -13.290   5.955  1.00  0.00     0.052 C
HETATM    6  C17 UNL     1      19.544 -14.274   6.394  1.00  0.00     0.125 C
ENDROOT
BRANCH   4   7
HETATM    7  C9  UNL     1      17.588 -11.126   6.695  1.00  0.00     0.157 C
HETATM    8  N2  UNL     1      18.366 -10.184   7.051  1.00  0.00    -0.250 N
ATOM      9  H2  UNL     1      19.176 -10.436   7.616  1.00  0.00     0.196 HD
BRANCH   7  10
HETATM   10  O2  UNL     1      16.477 -10.849   5.931  1.00  0.00    -0.347 OA
ATOM     11  H2  UNL     1      16.324  -9.959   5.636  1.00  0.00     0.219 HD
ENDBRANCH   7  10
BRANCH   8  12
HETATM   12  O3  UNL     1      18.209  -8.872   6.742  1.00  0.00    -0.288 OA
ATOM     13  H3  UNL     1      18.027  -8.527   5.876  1.00  0.00     0.244 HD
ENDBRANCH   8  12
ENDBRANCH   4   7
BRANCH   4  14
HETATM   14  S1  UNL     1      16.291 -13.208   7.605  1.00  0.00     0.067 S
HETATM   15  O4  UNL     1      16.272 -14.683   7.267  1.00  0.00    -0.251 OA
BRANCH  14  16
HETATM   16  C10 UNL     1      15.806 -12.833   9.224  1.00  0.00     0.032 A
HETATM   17  C11 UNL     1      15.144 -13.761   9.992  1.00  0.00     0.021 A
HETATM   18  C12 UNL     1      14.750 -13.481  11.300  1.00  0.00     0.001 A
HETATM   19  C13 UNL     1      15.019 -12.256  11.847  1.00  0.00     0.000 A
HETATM   20  C14 UNL     1      15.678 -11.320  11.094  1.00  0.00     0.001 A
HETATM   21  C15 UNL     1      16.074 -11.605   9.781  1.00  0.00     0.021 A
ENDBRANCH  14  16
ENDBRANCH   4  14
BRANCH   1  22
HETATM   22  C5  UNL     1      21.943 -14.061   7.151  1.00  0.00     0.072 C
HETATM   23  C1  UNL     1      23.082 -13.603   6.343  1.00  0.00     0.175 C
HETATM   24  O1  UNL     1      22.941 -12.850   5.331  1.00  0.00    -0.291 OA
HETATM   25  C2  UNL     1      24.340 -14.138   6.882  1.00  0.00     0.089 C
HETATM   26  C3  UNL     1      23.841 -15.266   7.756  1.00  0.00     0.037 C
HETATM   27  C4  UNL     1      22.398 -15.010   7.949  1.00  0.00     0.007 C
ENDBRANCH   1  22
TORSDOF 6
ENDMDL