MODEL 2
REMARK VINA RESULT: -7.953712038      0.938      1.655
REMARK  5 active torsions:
REMARK  status: ('A' for Active; 'I' for Inactive)
REMARK    1  A    between atoms: S1_2  and  C1_4
REMARK    2  A    between atoms: S1_2  and  N1_10
REMARK    3  A    between atoms: N2_15  and  C11_16
REMARK    4  A    between atoms: C11_16  and  C12_17
REMARK    5  A    between atoms: C16_21  and  O3_22
ROOT
HETATM    1  N1  UNL     1      18.159 -12.784   6.718  1.00  0.00    -0.183 NA
HETATM    2  C7  UNL     1      17.286 -13.348   5.646  1.00  0.00     0.188 C
HETATM    3  C8  UNL     1      17.592 -14.712   5.493  1.00  0.00    -0.167 C
HETATM    4  C9  UNL     1      18.012 -16.055   5.535  1.00  0.00     0.096 C
HETATM    5  C10 UNL     1      19.052 -16.156   6.711  1.00  0.00     0.107 C
HETATM    6  N2  UNL     1      19.536 -14.831   7.067  1.00  0.00    -0.278 NA
HETATM    7  C18 UNL     1      18.726 -13.841   7.579  1.00  0.00     0.203 C
ENDROOT
BRANCH   1   8
HETATM    8  S1  UNL     1      17.297 -11.729   7.737  1.00  0.00     0.245 S
HETATM    9  O1  UNL     1      16.430 -12.537   8.680  1.00  0.00    -0.206 OA
HETATM   10  O2  UNL     1      18.294 -11.010   8.601  1.00  0.00    -0.206 OA
BRANCH   8  11
HETATM   11  C1  UNL     1      16.351 -10.559   6.908  1.00  0.00     0.074 A
HETATM   12  C2  UNL     1      14.992 -10.698   6.769  1.00  0.00     0.025 A
HETATM   13  C3  UNL     1      14.236  -9.747   6.097  1.00  0.00     0.002 A
HETATM   14  C4  UNL     1      14.860  -8.641   5.557  1.00  0.00     0.000 A
HETATM   15  C5  UNL     1      16.223  -8.478   5.684  1.00  0.00     0.002 A
HETATM   16  C6  UNL     1      16.957  -9.451   6.365  1.00  0.00     0.025 A
ENDBRANCH   8  11
ENDBRANCH   1   8
BRANCH   6  17
HETATM   17  C11 UNL     1      20.707 -15.011   7.892  1.00  0.00     0.072 C
BRANCH  17  18
HETATM   18  C12 UNL     1      21.965 -14.511   7.373  1.00  0.00    -0.023 A
HETATM   19  C13 UNL     1      23.152 -15.074   7.752  1.00  0.00     0.012 A
HETATM   20  C14 UNL     1      24.332 -14.584   7.249  1.00  0.00     0.004 A
HETATM   21  C15 UNL     1      24.365 -13.529   6.363  1.00  0.00     0.036 A
HETATM   22  C16 UNL     1      23.163 -12.970   5.990  1.00  0.00     0.066 A
HETATM   23  C17 UNL     1      21.976 -13.457   6.492  1.00  0.00     0.048 A
BRANCH  22  24
HETATM   24  O3  UNL     1      23.187 -11.893   5.087  1.00  0.00    -0.361 OA
ATOM     25  H3  UNL     1      22.480 -11.260   5.128  1.00  0.00     0.217 HD
ENDBRANCH  22  24
ENDBRANCH  17  18
ENDBRANCH   6  17
TORSDOF 5
ENDMDL