MODEL 3
REMARK VINA RESULT: -6.845229672      2.867      3.918
REMARK  5 active torsions:
REMARK  status: ('A' for Active; 'I' for Inactive)
REMARK    1  A    between atoms: N1_1  and  S1_4
REMARK    2  A    between atoms: S1_4  and  C1_7
REMARK    3  A    between atoms: C4_10  and  C5_11
REMARK    4  A    between atoms: C8_14  and  C9_15
REMARK    5  A    between atoms: C13_23  and  N4_24
ROOT
HETATM    1  C5  UNL     1      20.941 -15.529   7.807  1.00  0.00     0.007 A
HETATM    2  C6  UNL     1      21.537 -14.263   7.753  1.00  0.00     0.016 A
HETATM    3  C7  UNL     1      20.844 -13.101   7.571  1.00  0.00     0.015 A
HETATM    4  C8  UNL     1      19.472 -13.155   7.431  1.00  0.00    -0.006 A
HETATM    5  C12 UNL     1      18.861 -14.380   7.480  1.00  0.00     0.050 A
HETATM    6  C13 UNL     1      19.573 -15.582   7.668  1.00  0.00     0.114 A
ENDROOT
BRANCH   1   7
HETATM    7  C4  UNL     1      21.806 -16.693   7.959  1.00  0.00    -0.023 A
HETATM    8  C3  UNL     1      23.180 -16.598   8.085  1.00  0.00     0.014 A
HETATM    9  C2  UNL     1      23.994 -17.703   8.193  1.00  0.00     0.026 A
HETATM   10  C1  UNL     1      23.450 -18.958   8.180  1.00  0.00     0.079 A
HETATM   11  C15 UNL     1      22.094 -19.087   8.057  1.00  0.00     0.026 A
HETATM   12  C14 UNL     1      21.290 -17.965   7.949  1.00  0.00     0.014 A
BRANCH  10  13
HETATM   13  S1  UNL     1      24.392 -20.430   8.312  1.00  0.00     0.256 S
HETATM   14  O1  UNL     1      23.503 -21.633   8.039  1.00  0.00    -0.201 OA
HETATM   15  O2  UNL     1      24.945 -20.520   9.686  1.00  0.00    -0.201 OA
BRANCH  13  16
HETATM   16  N1  UNL     1      25.599 -20.403   7.092  1.00  0.00    -0.324 N
ATOM     17  H12 UNL     1      25.439 -20.220   6.102  1.00  0.00     0.169 HD
ATOM     18  H11 UNL     1      26.491 -20.601   7.546  1.00  0.00     0.169 HD
ENDBRANCH  13  16
ENDBRANCH  10  13
ENDBRANCH   1   7
BRANCH   6  19
HETATM   19  N4  UNL     1      18.849 -16.794   7.719  1.00  0.00    -0.115 N
HETATM   20  O3  UNL     1      18.409 -17.261   8.769  1.00  0.00    -0.532 OA
HETATM   21  O4  UNL     1      18.601 -17.458   6.546  1.00  0.00    -0.532 OA
ENDBRANCH   6  19
BRANCH   4  22
HETATM   22  C9  UNL     1      18.733 -11.915   7.238  1.00  0.00     0.059 A
HETATM   23  C10 UNL     1      17.518 -11.770   6.584  1.00  0.00     0.050 A
HETATM   24  C11 UNL     1      17.183 -10.435   6.633  1.00  0.00     0.109 A
HETATM   25  N2  UNL     1      18.170  -9.797   7.299  1.00  0.00    -0.311 N
HETATM   26  N3  UNL     1      19.067 -10.679   7.645  1.00  0.00    -0.300 N
ATOM     27  H2  UNL     1      18.209  -8.797   7.497  1.00  0.00     0.186 HD
ATOM     28  H3  UNL     1      19.918 -10.457   8.161  1.00  0.00     0.187 HD
ENDBRANCH   4  22
TORSDOF 5
ENDMDL