MODEL 3
REMARK VINA RESULT: -8.904367882      2.152      2.807
REMARK  5 active torsions:
REMARK  status: ('A' for Active; 'I' for Inactive)
REMARK    1  A    between atoms: C1_2  and  C2_3
REMARK    2  A    between atoms: C1_2  and  C14_18
REMARK    3  A    between atoms: C5_6  and  S1_7
REMARK    4  A    between atoms: S1_7  and  C6_10
REMARK    5  A    between atoms: C18_25  and  O5_26
ROOT
HETATM    1  C2  UNL     1      22.833 -13.584   6.448  1.00  0.00     0.015 A
HETATM    2  C3  UNL     1      22.558 -14.426   7.500  1.00  0.00     0.017 A
HETATM    3  C4  UNL     1      21.277 -14.896   7.742  1.00  0.00     0.025 A
HETATM    4  C5  UNL     1      20.214 -14.551   6.947  1.00  0.00     0.064 A
HETATM    5  C12 UNL     1      20.493 -13.709   5.893  1.00  0.00     0.025 A
HETATM    6  C13 UNL     1      21.745 -13.228   5.629  1.00  0.00     0.017 A
ENDROOT
BRANCH   1   7
HETATM    7  C1  UNL     1      24.139 -13.021   6.153  1.00  0.00     0.196 C
HETATM    8  O1  UNL     1      24.918 -13.734   5.407  1.00  0.00    -0.286 OA
BRANCH   7   9
HETATM    9  C14 UNL     1      24.687 -11.765   6.585  1.00  0.00     0.066 A
HETATM   10  C15 UNL     1      23.995 -10.598   6.439  1.00  0.00     0.025 A
HETATM   11  C16 UNL     1      24.572  -9.402   6.820  1.00  0.00     0.075 A
HETATM   12  C17 UNL     1      25.841  -9.379   7.345  1.00  0.00     0.247 A
HETATM   13  O4  UNL     1      26.383  -8.281   7.700  1.00  0.00    -0.268 OA
HETATM   14  N1  UNL     1      26.536 -10.516   7.495  1.00  0.00    -0.303 N
HETATM   15  C18 UNL     1      25.968 -11.670   7.123  1.00  0.00     0.157 A
ATOM     16  H1  UNL     1      27.479 -10.502   7.884  1.00  0.00     0.171 HD
BRANCH  15  17
HETATM   17  O5  UNL     1      26.669 -12.875   7.267  1.00  0.00    -0.345 OA
ATOM     18  H5  UNL     1      27.565 -12.804   7.574  1.00  0.00     0.219 HD
ENDBRANCH  15  17
ENDBRANCH   7   9
ENDBRANCH   1   7
BRANCH   4  19
HETATM   19  S1  UNL     1      18.577 -15.084   7.161  1.00  0.00     0.206 S
HETATM   20  O2  UNL     1      18.574 -16.195   8.202  1.00  0.00    -0.217 OA
HETATM   21  O3  UNL     1      17.809 -13.941   7.811  1.00  0.00    -0.217 OA
BRANCH  19  22
HETATM   22  C6  UNL     1      17.833 -15.608   5.698  1.00  0.00     0.064 A
HETATM   23  C7  UNL     1      17.812 -16.948   5.383  1.00  0.00     0.024 A
HETATM   24  C8  UNL     1      17.219 -17.411   4.209  1.00  0.00     0.002 A
HETATM   25  C9  UNL     1      16.632 -16.535   3.324  1.00  0.00     0.000 A
HETATM   26  C10 UNL     1      16.649 -15.194   3.634  1.00  0.00     0.002 A
HETATM   27  C11 UNL     1      17.243 -14.741   4.806  1.00  0.00     0.024 A
ENDBRANCH  19  22
ENDBRANCH   4  19
TORSDOF 5
ENDMDL