MODEL 1
REMARK VINA RESULT: -8.031231004      0.000      0.000
REMARK  4 active torsions:
REMARK  status: ('A' for Active; 'I' for Inactive)
REMARK    1  A    between atoms: C9_12  and  N2_13
REMARK    2  A    between atoms: N2_13  and  S1_15
REMARK    3  A    between atoms: S1_15  and  C10_18
REMARK    4  A    between atoms: C14_22  and  N3_23
ROOT
HETATM    1  N2  UNL     1      19.045 -13.196   7.912  1.00  0.00    -0.277 N
ATOM      2  H2  UNL     1      19.485 -12.766   8.725  1.00  0.00     0.179 HD
ENDROOT
BRANCH   1   3
HETATM    3  C9  UNL     1      17.798 -12.715   7.469  1.00  0.00     0.093 C
HETATM    4  C1  UNL     1      16.652 -13.413   7.874  1.00  0.00     0.199 C
HETATM    5  O1  UNL     1      16.921 -14.568   8.281  1.00  0.00    -0.286 OA
HETATM    6  C2  UNL     1      15.334 -12.990   7.874  1.00  0.00     0.059 C
HETATM    7  C3  UNL     1      14.860 -11.728   7.581  1.00  0.00     0.034 C
HETATM    8  C4  UNL     1      15.515 -10.645   7.003  1.00  0.00     0.042 A
HETATM    9  N1  UNL     1      14.971  -9.446   6.749  1.00  0.00    -0.365 N
HETATM   10  C7  UNL     1      16.834 -10.577   6.577  1.00  0.00    -0.006 A
HETATM   11  C5  UNL     1      15.850  -8.600   6.186  1.00  0.00     0.089 A
ATOM     12  H1  UNL     1      14.002  -9.204   6.958  1.00  0.00     0.165 HD
HETATM   13  C6  UNL     1      17.042  -9.313   6.073  1.00  0.00     0.030 A
HETATM   14  C8  UNL     1      17.772 -11.609   6.653  1.00  0.00     0.048 C
ENDBRANCH   1   3
BRANCH   1  15
HETATM   15  S1  UNL     1      19.834 -14.485   7.117  1.00  0.00     0.263 S
HETATM   16  O2  UNL     1      19.848 -15.730   8.011  1.00  0.00    -0.200 OA
HETATM   17  O3  UNL     1      19.101 -14.805   5.853  1.00  0.00    -0.200 OA
BRANCH  15  18
HETATM   18  C10 UNL     1      21.490 -14.064   6.702  1.00  0.00     0.082 A
HETATM   19  C11 UNL     1      21.705 -13.214   5.632  1.00  0.00     0.025 A
HETATM   20  C12 UNL     1      22.987 -12.852   5.274  1.00  0.00     0.004 A
HETATM   21  C13 UNL     1      24.046 -13.354   6.003  1.00  0.00     0.036 A
HETATM   22  C14 UNL     1      23.876 -14.202   7.072  1.00  0.00     0.104 A
HETATM   23  C15 UNL     1      22.558 -14.538   7.396  1.00  0.00     0.061 A
BRANCH  22  24
HETATM   24  N3  UNL     1      24.966 -14.719   7.823  1.00  0.00    -0.116 N
HETATM   25  O4  UNL     1      26.121 -14.372   7.547  1.00  0.00    -0.532 OA
HETATM   26  O5  UNL     1      24.777 -15.599   8.854  1.00  0.00    -0.532 OA
ENDBRANCH  22  24
ENDBRANCH  15  18
ENDBRANCH   1  15
TORSDOF 4
ENDMDL