MODEL 4
REMARK VINA RESULT: -7.681391994      3.083      7.312
REMARK  4 active torsions:
REMARK  status: ('A' for Active; 'I' for Inactive)
REMARK       I    between atoms: C1_2  and  N1_3
REMARK    1  A    between atoms: C1_2  and  C12_23
REMARK    2  A    between atoms: C3_6  and  C4_7
REMARK    3  A    between atoms: N3_13  and  C6_14
REMARK    4  A    between atoms: C9_17  and  N4_18
ROOT
HETATM    1  O1  UNL     1      17.038 -11.519   9.620  1.00  0.00    -0.267 OA
HETATM    2  C1  UNL     1      17.044 -11.818   8.361  1.00  0.00     0.257 C
HETATM    3  N1  UNL     1      17.518 -13.015   7.988  1.00  0.00    -0.306 N
ATOM      4  H1  UNL     1      18.500 -12.860   7.761  1.00  0.00     0.170 HD
HETATM    5  C2  UNL     1      17.321 -14.215   7.791  1.00  0.00     0.148 A
HETATM    6  C3  UNL     1      16.183 -14.981   7.930  1.00  0.00     0.103 A
HETATM    7  C5  UNL     1      16.584 -16.273   7.557  1.00  0.00     0.130 A
HETATM    8  N2  UNL     1      17.871 -16.226   7.228  1.00  0.00    -0.302 N
ATOM      9  H2  UNL     1      18.408 -17.036   6.917  1.00  0.00     0.186 HD
HETATM   10  N3  UNL     1      18.368 -15.029   7.347  1.00  0.00    -0.239 N
ENDROOT
BRANCH   6  11
HETATM   11  C4  UNL     1      14.853 -14.597   8.360  1.00  0.00     0.214 C
HETATM   12  O2  UNL     1      14.586 -13.904   9.332  1.00  0.00    -0.644 OA
HETATM   13  O3  UNL     1      13.757 -15.058   7.594  1.00  0.00    -0.644 OA
ENDBRANCH   6  11
BRANCH  10  14
HETATM   14  C6  UNL     1      19.706 -14.582   7.088  1.00  0.00     0.058 A
HETATM   15  C7  UNL     1      19.947 -13.754   6.029  1.00  0.00     0.034 A
HETATM   16  C8  UNL     1      21.252 -13.332   5.797  1.00  0.00     0.038 A
HETATM   17  C9  UNL     1      22.304 -13.718   6.595  1.00  0.00     0.103 A
HETATM   18  C10 UNL     1      22.053 -14.554   7.662  1.00  0.00     0.038 A
HETATM   19  C11 UNL     1      20.760 -14.967   7.886  1.00  0.00     0.034 A
BRANCH  17  20
HETATM   20  N4  UNL     1      23.608 -13.276   6.335  1.00  0.00    -0.116 N
HETATM   21  O4  UNL     1      23.804 -12.097   6.008  1.00  0.00    -0.532 OA
HETATM   22  O5  UNL     1      24.671 -14.130   6.437  1.00  0.00    -0.532 OA
ENDBRANCH  17  20
ENDBRANCH  10  14
BRANCH   2  23
HETATM   23  C12 UNL     1      16.511 -10.772   7.457  1.00  0.00     0.032 A
HETATM   24  C13 UNL     1      15.166 -10.665   7.192  1.00  0.00     0.017 A
HETATM   25  C14 UNL     1      14.668  -9.680   6.343  1.00  0.00     0.001 A
HETATM   26  C15 UNL     1      15.528  -8.783   5.745  1.00  0.00     0.000 A
HETATM   27  C16 UNL     1      16.860  -8.883   6.003  1.00  0.00     0.001 A
HETATM   28  C17 UNL     1      17.353  -9.868   6.852  1.00  0.00     0.017 A
ENDBRANCH   2  23
TORSDOF 4
ENDMDL