MODEL 4
REMARK VINA RESULT: -7.580126285      1.699      2.123
REMARK  5 active torsions:
REMARK  status: ('A' for Active; 'I' for Inactive)
REMARK    1  A    between atoms: O1_2  and  C2_3
REMARK    2  A    between atoms: C9_10  and  C10_11
REMARK    3  A    between atoms: C13_14  and  O2_15
REMARK    4  A    between atoms: O2_15  and  S1_16
REMARK    5  A    between atoms: S1_16  and  N1_17
ROOT
HETATM    1  C2  UNL     1      24.596 -13.728   6.887  1.00  0.00     0.069 A
HETATM    2  C3  UNL     1      24.938 -14.727   7.783  1.00  0.00     0.039 A
HETATM    3  C4  UNL     1      24.024 -15.578   8.358  1.00  0.00     0.033 A
HETATM    4  C5  UNL     1      22.680 -15.405   8.001  1.00  0.00     0.046 A
HETATM    5  C6  UNL     1      22.321 -14.415   7.111  1.00  0.00     0.009 A
HETATM    6  C7  UNL     1      23.272 -13.584   6.558  1.00  0.00     0.051 A
HETATM    7  C8  UNL     1      20.854 -14.435   6.898  1.00  0.00     0.045 A
HETATM    8  C9  UNL     1      20.195 -13.603   6.141  1.00  0.00     0.029 C
HETATM    9  C16 UNL     1      20.388 -15.516   7.738  1.00  0.00     0.257 A
HETATM   10  O5  UNL     1      19.217 -15.925   7.904  1.00  0.00    -0.267 OA
HETATM   11  N2  UNL     1      21.532 -16.100   8.409  1.00  0.00    -0.322 N
ATOM     12  H2  UNL     1      21.507 -16.881   9.064  1.00  0.00     0.169 HD
ENDROOT
BRANCH   8  13
HETATM   13  C10 UNL     1      18.779 -13.585   5.899  1.00  0.00    -0.035 A
HETATM   14  C11 UNL     1      17.921 -12.634   6.399  1.00  0.00     0.014 A
HETATM   15  C12 UNL     1      16.580 -12.682   6.086  1.00  0.00     0.039 A
HETATM   16  C13 UNL     1      16.057 -13.659   5.282  1.00  0.00     0.091 A
HETATM   17  C14 UNL     1      16.906 -14.613   4.779  1.00  0.00     0.039 A
HETATM   18  C15 UNL     1      18.243 -14.586   5.077  1.00  0.00     0.014 A
BRANCH  16  19
HETATM   19  O2  UNL     1      14.706 -13.727   4.951  1.00  0.00    -0.217 OA
BRANCH  19  20
HETATM   20  S1  UNL     1      14.219 -13.353   3.360  1.00  0.00     0.360 S
HETATM   21  O3  UNL     1      13.316 -14.465   2.897  1.00  0.00    -0.176 OA
HETATM   22  O4  UNL     1      13.433 -12.071   3.298  1.00  0.00    -0.176 OA
BRANCH  20  23
HETATM   23  N1  UNL     1      15.551 -13.244   2.281  1.00  0.00    -0.305 N
ATOM     24  H12 UNL     1      16.388 -13.819   2.372  1.00  0.00     0.171 HD
ATOM     25  H11 UNL     1      15.402 -12.545   1.553  1.00  0.00     0.171 HD
ENDBRANCH  20  23
ENDBRANCH  19  20
ENDBRANCH  16  19
ENDBRANCH   8  13
BRANCH   1  26
HETATM   26  O1  UNL     1      25.597 -12.898   6.343  1.00  0.00    -0.356 OA
HETATM   27  C1  UNL     1      25.716 -11.603   6.898  1.00  0.00     0.210 C
ENDBRANCH   1  26
TORSDOF 5
ENDMDL