MODEL 5
REMARK VINA RESULT: -7.765993717      2.449      3.263
REMARK  9 active torsions:
REMARK  status: ('A' for Active; 'I' for Inactive)
REMARK    1  A    between atoms: C2_2  and  C3_3
REMARK    2  A    between atoms: C3_3  and  C4_4
REMARK    3  A    between atoms: C3_3  and  C20_31
REMARK    4  A    between atoms: C4_4  and  N1_5
REMARK    5  A    between atoms: N2_8  and  C7_9
REMARK    6  A    between atoms: C7_9  and  C8_10
REMARK    7  A    between atoms: C7_9  and  C14_23
REMARK    8  A    between atoms: N6_17  and  C9_18
REMARK    9  A    between atoms: C18_27  and  C19_28
ROOT
HETATM    1  C7  UNL     1       4.995  36.736  25.259  1.00  0.00     0.162 C
ENDROOT
BRANCH   1   2
HETATM    2  N2  UNL     1       3.681  36.202  25.370  1.00  0.00    -0.358 N
HETATM    3  C6  UNL     1       2.652  36.933  25.938  1.00  0.00     0.094 C
HETATM    4  C5  UNL     1       1.302  36.788  25.357  1.00  0.00     0.318 C
HETATM    5  N1  UNL     1       0.950  35.561  24.709  1.00  0.00     0.109 N
HETATM    6  C18 UNL     1       1.986  34.565  24.711  1.00  0.00     0.326 C
HETATM    7  C17 UNL     1       3.392  35.077  24.599  1.00  0.00     0.105 C
BRANCH   5   8
HETATM    8  C4  UNL     1       0.519  35.877  23.336  1.00  0.00     0.289 C
BRANCH   8   9
HETATM    9  C3  UNL     1      -0.955  35.832  23.216  1.00  0.00     0.115 C
BRANCH   9  10
HETATM   10  C2  UNL     1      -1.507  34.470  23.683  1.00  0.00     0.012 C
HETATM   11  C1  UNL     1      -2.283  34.585  24.959  1.00  0.00     0.006 C
ENDBRANCH   9  10
BRANCH   9  12
HETATM   12  C20 UNL     1      -1.373  35.896  21.763  1.00  0.00     0.178 C
HETATM   13  O1  UNL     1      -2.356  35.233  21.322  1.00  0.00    -0.648 OA
HETATM   14  O2  UNL     1      -0.683  36.685  20.881  1.00  0.00    -0.648 OA
ENDBRANCH   9  12
ENDBRANCH   8   9
ENDBRANCH   5   8
BRANCH   6  15
HETATM   15  C19 UNL     1       1.817  33.505  25.781  1.00  0.00     0.391 C
HETATM   16  F1  UNL     1       1.654  32.243  25.322  1.00  0.00    -0.212 F
HETATM   17  F2  UNL     1       0.650  33.848  26.479  1.00  0.00    -0.212 F
ENDBRANCH   6  15
ENDBRANCH   1   2
BRANCH   1  18
HETATM   18  C8  UNL     1       5.907  36.194  26.282  1.00  0.00     0.139 A
HETATM   19  N3  UNL     1       5.911  36.562  27.577  1.00  0.00    -0.270 N
HETATM   20  N4  UNL     1       6.857  35.866  28.228  1.00  0.00    -0.227 N
ATOM     21  H3  UNL     1       5.294  37.258  27.997  1.00  0.00     0.190 HD
HETATM   22  N5  UNL     1       7.419  35.083  27.332  1.00  0.00    -0.224 N
ATOM     23  H4  UNL     1       7.094  35.931  29.218  1.00  0.00     0.210 HD
HETATM   24  N6  UNL     1       6.848  35.270  26.130  1.00  0.00    -0.257 N
ATOM     25  H5  UNL     1       8.178  34.430  27.523  1.00  0.00     0.210 HD
BRANCH  24  26
HETATM   26  C9  UNL     1       7.212  34.577  24.939  1.00  0.00     0.111 C
HETATM   27  C10 UNL     1       8.725  34.285  24.956  1.00  0.00     0.027 C
HETATM   28  C11 UNL     1       8.934  33.168  23.973  1.00  0.00     0.002 C
HETATM   29  C12 UNL     1       7.617  32.436  23.918  1.00  0.00     0.002 C
HETATM   30  C13 UNL     1       6.697  33.141  24.901  1.00  0.00     0.027 C
ENDBRANCH  24  26
ENDBRANCH   1  18
BRANCH   1  31
HETATM   31  C14 UNL     1       4.962  38.251  25.277  1.00  0.00     0.008 C
HETATM   32  C15 UNL     1       4.185  38.836  24.119  1.00  0.00     0.012 C
HETATM   33  C16 UNL     1       6.337  38.877  25.234  1.00  0.00     0.012 C
ENDBRANCH   1  31
TORSDOF 9
ENDMDL