MODEL 4
REMARK VINA RESULT: -8.768707261      2.992      7.266
REMARK  8 active torsions:
REMARK  status: ('A' for Active; 'I' for Inactive)
REMARK    1  A    between atoms: C3_3  and  C4_4
REMARK       I    between atoms: N1_5  and  C5_7
REMARK    2  A    between atoms: C5_7  and  C6_9
REMARK    3  A    between atoms: C6_9  and  S1_10
REMARK    4  A    between atoms: S1_10  and  C7_11
REMARK    5  A    between atoms: C8_16  and  C9_17
REMARK    6  A    between atoms: N5_24  and  C14_25
REMARK    7  A    between atoms: C17_28  and  O2_29
REMARK    8  A    between atoms: O2_29  and  C18_30
ROOT
HETATM    1  C7  UNL     1       2.089  32.556  25.179  1.00  0.00     0.168 A
HETATM    2  N2  UNL     1       2.016  31.270  24.875  1.00  0.00    -0.278 N
ATOM      3  H2  UNL     1       1.218  30.659  25.050  1.00  0.00     0.189 HD
HETATM    4  N3  UNL     1       3.131  30.918  24.317  1.00  0.00    -0.286 N
ATOM      5  H3  UNL     1       3.344  29.978  23.984  1.00  0.00     0.188 HD
HETATM    6  C8  UNL     1       3.987  31.990  24.240  1.00  0.00     0.109 A
HETATM    7  N5  UNL     1       3.325  33.006  24.781  1.00  0.00    -0.279 N
ENDROOT
BRANCH   1   8
HETATM    8  S1  UNL     1       0.873  33.612  25.962  1.00  0.00    -0.083 SA
BRANCH   8   9
HETATM    9  C6  UNL     1      -0.758  32.893  25.723  1.00  0.00     0.185 C
BRANCH   9  10
HETATM   10  C5  UNL     1      -1.822  33.906  25.653  1.00  0.00     0.231 C
HETATM   11  N1  UNL     1      -1.835  34.791  24.545  1.00  0.00    -0.337 N
HETATM   12  C4  UNL     1      -1.096  34.597  23.511  1.00  0.00     0.090 C
ATOM     13  H1  UNL     1      -2.448  35.605  24.570  1.00  0.00     0.168 HD
HETATM   14  O1  UNL     1      -2.721  34.020  26.535  1.00  0.00    -0.272 OA
BRANCH  12  15
HETATM   15  C3  UNL     1      -1.124  35.515  22.385  1.00  0.00     0.013 C
HETATM   16  C2  UNL     1      -0.174  36.411  22.224  1.00  0.00    -0.030 C
HETATM   17  C1  UNL     1      -0.219  37.328  21.080  1.00  0.00     0.036 C
ENDBRANCH  12  15
ENDBRANCH   9  10
ENDBRANCH   8   9
ENDBRANCH   1   8
BRANCH   7  18
HETATM   18  C14 UNL     1       3.794  34.327  24.936  1.00  0.00     0.043 A
HETATM   19  C15 UNL     1       3.420  35.321  24.072  1.00  0.00     0.033 A
HETATM   20  C16 UNL     1       3.898  36.631  24.223  1.00  0.00     0.039 A
HETATM   21  C17 UNL     1       4.763  36.906  25.271  1.00  0.00     0.075 A
HETATM   22  C19 UNL     1       5.143  35.899  26.148  1.00  0.00     0.039 A
HETATM   23  C20 UNL     1       4.646  34.630  25.955  1.00  0.00     0.033 A
BRANCH  21  24
HETATM   24  O2  UNL     1       5.286  38.158  25.502  1.00  0.00    -0.290 OA
BRANCH  24  25
HETATM   25  C18 UNL     1       6.505  38.665  25.066  1.00  0.00     0.505 C
HETATM   26  F1  UNL     1       7.314  37.679  24.505  1.00  0.00    -0.184 F
HETATM   27  F2  UNL     1       6.209  39.583  24.045  1.00  0.00    -0.184 F
ENDBRANCH  24  25
ENDBRANCH  21  24
ENDBRANCH   7  18
BRANCH   6  28
HETATM   28  C9  UNL     1       5.318  31.893  23.665  1.00  0.00     0.058 C
HETATM   29  C10 UNL     1       5.665  30.640  22.943  1.00  0.00     0.031 C
HETATM   30  C11 UNL     1       6.877  30.987  22.059  1.00  0.00     0.114 C
HETATM   31  N4  UNL     1       7.481  32.219  22.425  1.00  0.00    -0.421 N
HETATM   32  C12 UNL     1       7.679  32.463  23.811  1.00  0.00     0.114 C
ATOM     33  H4  UNL     1       7.761  32.901  21.721  1.00  0.00     0.153 HD
HETATM   34  C13 UNL     1       6.455  32.115  24.673  1.00  0.00     0.031 C
ENDBRANCH   6  28
TORSDOF 8
ENDMDL