MODEL 3
REMARK VINA RESULT: -8.940972040      3.366      7.395
REMARK  9 active torsions:
REMARK  status: ('A' for Active; 'I' for Inactive)
REMARK    1  A    between atoms: C1_2  and  C2_3
REMARK       I    between atoms: C1_2  and  N4_22
REMARK    2  A    between atoms: C2_3  and  O2_4
REMARK    3  A    between atoms: O2_4  and  C3_5
REMARK    4  A    between atoms: C3_5  and  C4_7
REMARK    5  A    between atoms: C7_10  and  N1_11
REMARK    6  A    between atoms: C11_17  and  N3_18
REMARK    7  A    between atoms: N4_22  and  C13_24
REMARK    8  A    between atoms: C16_27  and  O6_28
REMARK    9  A    between atoms: O6_28  and  C17_29
ROOT
HETATM    1  C3  UNL     1      -1.340  34.368  25.358  1.00  0.00     0.293 C
HETATM    2  O3  UNL     1      -2.541  34.394  25.728  1.00  0.00    -0.259 OA
ENDROOT
BRANCH   1   3
HETATM    3  O2  UNL     1      -0.462  33.492  25.968  1.00  0.00    -0.308 OA
BRANCH   3   4
HETATM    4  C2  UNL     1       0.122  32.382  25.348  1.00  0.00     0.282 C
BRANCH   4   5
HETATM    5  C1  UNL     1       1.586  32.504  25.301  1.00  0.00     0.246 C
HETATM    6  O1  UNL     1       2.062  33.486  25.941  1.00  0.00    -0.271 OA
HETATM    7  N4  UNL     1       2.388  31.610  24.602  1.00  0.00    -0.325 N
ATOM      8  H4  UNL     1       1.897  30.862  24.111  1.00  0.00     0.169 HD
BRANCH   7   9
HETATM    9  C13 UNL     1       3.798  31.605  24.486  1.00  0.00     0.035 A
HETATM   10  C14 UNL     1       4.625  32.656  24.787  1.00  0.00     0.032 A
HETATM   11  C15 UNL     1       6.016  32.589  24.632  1.00  0.00     0.039 A
HETATM   12  C16 UNL     1       6.647  31.466  24.170  1.00  0.00     0.075 A
HETATM   13  C18 UNL     1       5.802  30.388  23.862  1.00  0.00     0.039 A
HETATM   14  C19 UNL     1       4.441  30.454  24.012  1.00  0.00     0.032 A
BRANCH  12  15
HETATM   15  O6  UNL     1       8.010  31.339  23.996  1.00  0.00    -0.290 OA
BRANCH  15  16
HETATM   16  C17 UNL     1       8.741  31.982  22.998  1.00  0.00     0.505 C
HETATM   17  F1  UNL     1       9.126  33.212  23.514  1.00  0.00    -0.184 F
HETATM   18  F2  UNL     1       7.856  32.308  21.952  1.00  0.00    -0.184 F
ENDBRANCH  15  16
ENDBRANCH  12  15
ENDBRANCH   7   9
ENDBRANCH   4   5
ENDBRANCH   3   4
ENDBRANCH   1   3
BRANCH   1  19
HETATM   19  C4  UNL     1      -0.842  35.240  24.298  1.00  0.00     0.042 A
HETATM   20  C5  UNL     1      -1.157  35.022  22.974  1.00  0.00     0.020 A
HETATM   21  C6  UNL     1      -0.682  35.853  21.980  1.00  0.00     0.035 A
HETATM   22  C7  UNL     1       0.130  36.941  22.268  1.00  0.00     0.088 A
HETATM   23  C11 UNL     1       0.444  37.161  23.590  1.00  0.00     0.132 A
HETATM   24  C12 UNL     1      -0.038  36.316  24.595  1.00  0.00     0.056 A
BRANCH  22  25
HETATM   25  N1  UNL     1       0.579  37.748  21.189  1.00  0.00    -0.266 N
HETATM   26  C8  UNL     1       1.669  37.499  20.429  1.00  0.00     0.118 A
HETATM   27  C9  UNL     1       1.785  38.492  19.497  1.00  0.00     0.038 A
HETATM   28  C10 UNL     1       0.735  39.364  19.699  1.00  0.00     0.109 A
HETATM   29  N2  UNL     1       0.040  38.865  20.734  1.00  0.00    -0.305 N
ATOM     30  H2  UNL     1      -0.801  39.296  21.120  1.00  0.00     0.186 HD
ENDBRANCH  22  25
BRANCH  23  31
HETATM   31  N3  UNL     1       1.274  38.265  23.921  1.00  0.00    -0.113 N
HETATM   32  O4  UNL     1       2.451  38.071  24.279  1.00  0.00    -0.532 OA
HETATM   33  O5  UNL     1       0.823  39.558  23.862  1.00  0.00    -0.532 OA
ENDBRANCH  23  31
ENDBRANCH   1  19
TORSDOF 9
ENDMDL