MODEL 5
REMARK VINA RESULT: -9.036812274      2.036      2.777
REMARK  9 active torsions:
REMARK  status: ('A' for Active; 'I' for Inactive)
REMARK    1  A    between atoms: C1_2  and  C2_3
REMARK       I    between atoms: C1_2  and  N1_19
REMARK    2  A    between atoms: C2_3  and  C3_4
REMARK    3  A    between atoms: C3_4  and  C4_6
REMARK    4  A    between atoms: C4_6  and  O4_8
REMARK    5  A    between atoms: O4_8  and  C5_9
REMARK    6  A    between atoms: C5_9  and  C6_10
REMARK    7  A    between atoms: C6_10  and  C7_12
REMARK    8  A    between atoms: N1_19  and  C11_21
REMARK    9  A    between atoms: C15_25  and  N2_26
ROOT
HETATM    1  C3  UNL     1      -0.564  34.028  25.155  1.00  0.00     0.232 C
HETATM    2  O2  UNL     1      -1.565  33.526  25.696  1.00  0.00    -0.286 OA
ENDROOT
BRANCH   1   3
HETATM    3  C2  UNL     1       0.734  34.047  25.805  1.00  0.00     0.192 C
BRANCH   3   4
HETATM    4  C1  UNL     1       1.575  32.881  25.342  1.00  0.00     0.229 C
HETATM    5  O1  UNL     1       1.049  31.748  25.304  1.00  0.00    -0.273 OA
HETATM    6  N1  UNL     1       2.919  33.113  24.971  1.00  0.00    -0.327 N
ATOM      7  H1  UNL     1       3.278  34.065  25.035  1.00  0.00     0.169 HD
BRANCH   6   8
HETATM    8  C11 UNL     1       3.789  32.106  24.520  1.00  0.00     0.037 A
HETATM    9  C12 UNL     1       3.458  30.885  24.020  1.00  0.00     0.029 A
HETATM   10  C13 UNL     1       4.418  29.975  23.630  1.00  0.00     0.005 A
HETATM   11  C14 UNL     1       5.763  30.267  23.729  1.00  0.00     0.036 A
HETATM   12  C15 UNL     1       6.153  31.505  24.234  1.00  0.00     0.105 A
HETATM   13  C16 UNL     1       5.170  32.374  24.609  1.00  0.00     0.065 A
BRANCH  12  14
HETATM   14  N2  UNL     1       7.531  31.827  24.346  1.00  0.00    -0.116 N
HETATM   15  O6  UNL     1       8.401  31.076  23.921  1.00  0.00    -0.532 OA
HETATM   16  O7  UNL     1       7.891  33.004  24.941  1.00  0.00    -0.532 OA
ENDBRANCH  12  14
ENDBRANCH   6   8
ENDBRANCH   3   4
ENDBRANCH   1   3
BRANCH   1  17
HETATM   17  C4  UNL     1      -0.710  34.627  23.794  1.00  0.00     0.330 C
HETATM   18  O3  UNL     1      -1.738  34.433  23.135  1.00  0.00    -0.256 OA
BRANCH  17  19
HETATM   19  O4  UNL     1       0.304  35.389  23.288  1.00  0.00    -0.307 OA
BRANCH  19  20
HETATM   20  C5  UNL     1       0.152  36.531  22.501  1.00  0.00     0.263 C
BRANCH  20  21
HETATM   21  C6  UNL     1       1.003  37.653  22.921  1.00  0.00     0.190 C
HETATM   22  O5  UNL     1       0.926  38.806  22.452  1.00  0.00    -0.289 OA
BRANCH  21  23
HETATM   23  C7  UNL     1       2.009  37.366  23.970  1.00  0.00     0.056 A
HETATM   24  C8  UNL     1       3.238  36.794  23.804  1.00  0.00     0.048 A
HETATM   25  C9  UNL     1       3.996  36.625  24.909  1.00  0.00     0.064 A
HETATM   26 CL1  UNL     1       5.633  35.894  24.895  1.00  0.00    -0.082 Cl
HETATM   27  C10 UNL     1       3.463  37.044  26.095  1.00  0.00     0.097 A
HETATM   28 CL2  UNL     1       4.172  36.976  27.720  1.00  0.00    -0.074 Cl
HETATM   29  S1  UNL     1       1.941  37.653  25.648  1.00  0.00    -0.073 SA
ENDBRANCH  21  23
ENDBRANCH  20  21
ENDBRANCH  19  20
ENDBRANCH  17  19
ENDBRANCH   1  17
TORSDOF 9
ENDMDL