MODEL 1
REMARK VINA RESULT: -10.003030197      0.000      0.000
REMARK  9 active torsions:
REMARK  status: ('A' for Active; 'I' for Inactive)
REMARK    1  A    between atoms: C1_2  and  C2_3
REMARK       I    between atoms: C1_2  and  N3_21
REMARK    2  A    between atoms: C2_3  and  S1_4
REMARK    3  A    between atoms: S1_4  and  C3_5
REMARK    4  A    between atoms: N2_10  and  C6_11
REMARK    5  A    between atoms: C6_11  and  C7_12
REMARK    6  A    between atoms: C10_15  and  C11_16
REMARK    7  A    between atoms: N3_21  and  N4_23
REMARK    8  A    between atoms: C14_25  and  C15_26
REMARK    9  A    between atoms: C18_29  and  N5_30
ROOT
HETATM    1  S1  UNL     1       2.429  36.964  25.697  1.00  0.00    -0.084 SA
ENDROOT
BRANCH   1   2
HETATM    2  C2  UNL     1       3.977  36.855  24.808  1.00  0.00     0.186 C
BRANCH   2   3
HETATM    3  C1  UNL     1       5.093  36.791  25.760  1.00  0.00     0.245 C
HETATM    4  O1  UNL     1       4.844  36.836  26.990  1.00  0.00    -0.271 OA
HETATM    5  N3  UNL     1       6.420  36.680  25.330  1.00  0.00    -0.270 N
ATOM      6  H3  UNL     1       6.623  36.648  24.331  1.00  0.00     0.190 HD
BRANCH   5   7
HETATM    7  N4  UNL     1       7.463  36.614  26.241  1.00  0.00    -0.307 N
HETATM    8  C14 UNL     1       8.322  35.664  26.271  1.00  0.00     0.144 C
ATOM      9  H4  UNL     1       7.552  37.364  26.927  1.00  0.00     0.186 HD
BRANCH   8  10
HETATM   10  C15 UNL     1       8.319  34.536  25.359  1.00  0.00     0.095 A
HETATM   11  C16 UNL     1       7.246  33.685  25.120  1.00  0.00     0.043 A
HETATM   12  C17 UNL     1       7.700  32.773  24.191  1.00  0.00     0.065 A
HETATM   13  C18 UNL     1       9.006  33.125  23.929  1.00  0.00     0.215 A
HETATM   14  O4  UNL     1       9.345  34.173  24.636  1.00  0.00    -0.287 OA
BRANCH  13  15
HETATM   15  N5  UNL     1       9.844  32.407  22.997  1.00  0.00    -0.090 N
HETATM   16  O2  UNL     1      10.680  31.572  23.396  1.00  0.00    -0.530 OA
HETATM   17  O3  UNL     1       9.748  32.616  21.646  1.00  0.00    -0.530 OA
ENDBRANCH  13  15
ENDBRANCH   8  10
ENDBRANCH   5   7
ENDBRANCH   2   3
ENDBRANCH   1   2
BRANCH   1  18
HETATM   18  C3  UNL     1       1.092  36.190  24.815  1.00  0.00     0.146 A
HETATM   19  N1  UNL     1       0.323  36.687  23.832  1.00  0.00    -0.345 N
HETATM   20  C4  UNL     1      -0.590  35.798  23.424  1.00  0.00     0.107 A
ATOM     21  H1  UNL     1       0.423  37.626  23.444  1.00  0.00     0.167 HD
HETATM   22  C5  UNL     1      -0.369  34.684  24.204  1.00  0.00     0.110 A
HETATM   23  N2  UNL     1       0.656  34.947  25.040  1.00  0.00    -0.332 N
BRANCH  23  24
HETATM   24  C6  UNL     1       1.140  33.945  25.992  1.00  0.00     0.169 C
BRANCH  24  25
HETATM   25  C7  UNL     1       2.140  33.075  25.377  1.00  0.00    -0.040 A
HETATM   26  C8  UNL     1       1.742  31.819  24.962  1.00  0.00     0.009 A
HETATM   27  C9  UNL     1       2.591  30.925  24.378  1.00  0.00     0.013 A
HETATM   28  C10 UNL     1       3.916  31.269  24.181  1.00  0.00     0.006 A
HETATM   29  C12 UNL     1       4.328  32.517  24.590  1.00  0.00     0.013 A
HETATM   30  C13 UNL     1       3.450  33.428  25.188  1.00  0.00     0.009 A
BRANCH  28  31
HETATM   31  C11 UNL     1       4.883  30.334  23.548  1.00  0.00     0.386 C
HETATM   32  F1  UNL     1       4.207  29.200  23.101  1.00  0.00    -0.209 F
HETATM   33  F2  UNL     1       5.864  29.899  24.405  1.00  0.00    -0.209 F
ENDBRANCH  28  31
ENDBRANCH  24  25
ENDBRANCH  23  24
ENDBRANCH   1  18
TORSDOF 9
ENDMDL