MODEL 2
REMARK VINA RESULT: -9.241116348      3.174      4.725
REMARK  9 active torsions:
REMARK  status: ('A' for Active; 'I' for Inactive)
REMARK    1  A    between atoms: C4_5  and  C5_6
REMARK    2  A    between atoms: C5_6  and  O1_7
REMARK    3  A    between atoms: C5_6  and  C6_9
REMARK    4  A    between atoms: C6_9  and  C7_10
REMARK    5  A    between atoms: C6_9  and  N4_22
REMARK       I    between atoms: C7_10  and  N2_12
REMARK    6  A    between atoms: N2_12  and  C8_14
REMARK    7  A    between atoms: C11_18  and  N3_19
REMARK    8  A    between atoms: C14_27  and  O7_28
REMARK    9  A    between atoms: O7_28  and  C15_29
ROOT
HETATM    1  N1  UNL     1       3.463  31.012  23.875  1.00  0.00    -0.191 NA
HETATM    2  C1  UNL     1       4.242  31.767  24.279  1.00  0.00     0.102 C
HETATM    3  C2  UNL     1       5.226  32.712  24.769  1.00  0.00     0.079 A
HETATM    4  C3  UNL     1       4.823  33.880  25.393  1.00  0.00     0.039 A
HETATM    5  C4  UNL     1       5.736  34.777  25.861  1.00  0.00    -0.003 A
HETATM    6  C12 UNL     1       7.072  34.450  25.672  1.00  0.00     0.017 A
HETATM    7  C13 UNL     1       7.460  33.296  25.055  1.00  0.00     0.039 A
HETATM    8  C14 UNL     1       6.567  32.374  24.575  1.00  0.00     0.095 A
ENDROOT
BRANCH   8   9
HETATM    9  O7  UNL     1       6.905  31.193  23.946  1.00  0.00    -0.289 OA
BRANCH   9  10
HETATM   10  C15 UNL     1       7.236  31.070  22.612  1.00  0.00     0.505 C
HETATM   11  F1  UNL     1       7.356  32.343  22.033  1.00  0.00    -0.184 F
HETATM   12  F2  UNL     1       6.245  30.378  21.918  1.00  0.00    -0.184 F
ENDBRANCH   9  10
ENDBRANCH   8   9
BRANCH   5  13
HETATM   13  C5  UNL     1       5.405  35.978  26.546  1.00  0.00     0.091 C
BRANCH  13  14
HETATM   14  O1  UNL     1       6.411  36.777  26.794  1.00  0.00    -0.361 OA
ATOM     15  H1  UNL     1       6.532  37.484  26.171  1.00  0.00     0.217 HD
ENDBRANCH  13  14
BRANCH  13  16
HETATM   16  C6  UNL     1       4.130  36.447  27.012  1.00  0.00     0.304 C
BRANCH  16  17
HETATM   17  C7  UNL     1       3.342  37.153  25.934  1.00  0.00     0.258 C
HETATM   18  O2  UNL     1       3.976  37.641  25.004  1.00  0.00    -0.270 OA
HETATM   19  N2  UNL     1       1.952  37.191  26.084  1.00  0.00    -0.322 N
ATOM     20  H2  UNL     1       1.568  36.741  26.916  1.00  0.00     0.169 HD
BRANCH  19  21
HETATM   21  C8  UNL     1       0.996  37.808  25.177  1.00  0.00     0.075 A
HETATM   22  C9  UNL     1       0.620  39.094  25.294  1.00  0.00     0.040 A
HETATM   23  C10 UNL     1      -0.289  39.591  24.395  1.00  0.00     0.054 A
HETATM   24  S1  UNL     1      -0.606  38.265  23.400  1.00  0.00    -0.076 SA
HETATM   25  C11 UNL     1       0.427  37.093  24.147  1.00  0.00     0.170 A
BRANCH  25  26
HETATM   26  N3  UNL     1       0.589  35.731  23.727  1.00  0.00    -0.106 N
HETATM   27  O3  UNL     1       1.411  34.934  24.136  1.00  0.00    -0.531 OA
HETATM   28  O4  UNL     1      -0.312  35.302  22.736  1.00  0.00    -0.531 OA
ENDBRANCH  25  26
ENDBRANCH  19  21
ENDBRANCH  16  17
BRANCH  16  29
HETATM   29  N4  UNL     1       4.205  37.321  28.139  1.00  0.00    -0.134 N
HETATM   30  O5  UNL     1       4.085  38.571  28.068  1.00  0.00    -0.535 OA
HETATM   31  O6  UNL     1       4.470  36.839  29.415  1.00  0.00    -0.535 OA
ENDBRANCH  16  29
ENDBRANCH  13  16
ENDBRANCH   5  13
TORSDOF 9
ENDMDL