MODEL 1
REMARK VINA RESULT: -6.938047647      0.000      0.000
REMARK  9 active torsions:
REMARK  status: ('A' for Active; 'I' for Inactive)
REMARK    1  A    between atoms: C1_2  and  C2_3
REMARK    2  A    between atoms: C1_2  and  S1_5
REMARK    3  A    between atoms: S1_5  and  C3_6
REMARK    4  A    between atoms: C3_6  and  C4_7
REMARK    5  A    between atoms: C4_7  and  S2_8
REMARK    6  A    between atoms: S2_8  and  C5_9
REMARK    7  A    between atoms: C6_14  and  C7_15
REMARK    8  A    between atoms: C7_15  and  N3_16
REMARK       I    between atoms: N3_16  and  C8_18
REMARK    9  A    between atoms: C8_18  and  C9_20
ROOT
HETATM    1  C5  UNL     1       6.325  37.987  25.374  1.00  0.00     0.203 A
HETATM    2  N1  UNL     1       7.569  38.446  25.652  1.00  0.00    -0.272 N
ATOM      3  H1  UNL     1       7.849  39.418  25.780  1.00  0.00     0.189 HD
HETATM    4  N2  UNL     1       8.336  37.390  25.724  1.00  0.00    -0.279 N
ATOM      5  H2  UNL     1       9.336  37.411  25.922  1.00  0.00     0.189 HD
HETATM    6  C6  UNL     1       7.611  36.257  25.497  1.00  0.00     0.159 A
HETATM    7  O3  UNL     1       6.395  36.688  25.291  1.00  0.00    -0.270 OA
ENDROOT
BRANCH   6   8
HETATM    8  C7  UNL     1       8.133  34.870  25.494  1.00  0.00     0.209 C
BRANCH   8   9
HETATM    9  N3  UNL     1       7.045  33.956  25.237  1.00  0.00    -0.349 N
HETATM   10  C8  UNL     1       7.234  32.756  24.505  1.00  0.00     0.258 C
HETATM   11  O2  UNL     1       8.344  32.422  24.046  1.00  0.00    -0.267 OA
ATOM     12  H3  UNL     1       6.115  34.179  25.592  1.00  0.00     0.163 HD
BRANCH  10  13
HETATM   13  C9  UNL     1       6.086  31.867  24.276  1.00  0.00     0.072 A
HETATM   14  C10 UNL     1       6.110  30.545  23.926  1.00  0.00     0.025 A
HETATM   15  C11 UNL     1       4.934  29.928  23.771  1.00  0.00     0.009 A
HETATM   16  C12 UNL     1       3.799  30.670  23.977  1.00  0.00     0.050 A
HETATM   17  S3  UNL     1       4.422  32.205  24.379  1.00  0.00    -0.097 SA
ENDBRANCH  10  13
ENDBRANCH   8   9
ENDBRANCH   6   8
BRANCH   1  18
HETATM   18  S2  UNL     1       4.944  39.091  25.185  1.00  0.00    -0.084 SA
BRANCH  18  19
HETATM   19  C4  UNL     1       3.552  38.147  24.536  1.00  0.00     0.093 C
BRANCH  19  20
HETATM   20  C3  UNL     1       2.582  37.875  25.691  1.00  0.00     0.093 C
BRANCH  20  21
HETATM   21  S1  UNL     1       1.174  36.925  25.073  1.00  0.00    -0.091 SA
BRANCH  21  22
HETATM   22  C1  UNL     1       1.342  35.200  25.490  1.00  0.00     0.195 C
HETATM   23  O1  UNL     1       2.195  34.876  26.291  1.00  0.00    -0.285 OA
BRANCH  22  24
HETATM   24  C2  UNL     1       0.451  34.198  24.863  1.00  0.00     0.175 C
HETATM   25 BR1  UNL     1       0.797  32.474  25.623  1.00  0.00    -0.088 Br
ENDBRANCH  22  24
ENDBRANCH  21  22
ENDBRANCH  20  21
ENDBRANCH  19  20
ENDBRANCH  18  19
ENDBRANCH   1  18
TORSDOF 9
ENDMDL