MODEL 1
REMARK VINA RESULT: -8.823624932      0.000      0.000
REMARK  8 active torsions:
REMARK  status: ('A' for Active; 'I' for Inactive)
REMARK    1  A    between atoms: C2_2  and  O1_5
REMARK    2  A    between atoms: O1_5  and  C3_6
REMARK    3  A    between atoms: C6_9  and  N1_10
REMARK    4  A    between atoms: C7_11  and  S1_12
REMARK    5  A    between atoms: S1_12  and  C8_13
REMARK    6  A    between atoms: C8_13  and  C9_14
REMARK       I    between atoms: C9_14  and  N2_16
REMARK    7  A    between atoms: N2_16  and  C10_18
REMARK    8  A    between atoms: C10_18  and  C11_19
ROOT
HETATM    1  N1  UNL     1       3.493  36.475  25.903  1.00  0.00    -0.260 N
HETATM    2  C7  UNL     1       2.554  37.136  25.199  1.00  0.00     0.174 A
HETATM    3  N3  UNL     1       2.288  38.248  25.916  1.00  0.00    -0.236 N
ATOM      4  H3  UNL     1       1.614  38.969  25.658  1.00  0.00     0.197 HD
HETATM    5  O4  UNL     1       3.023  38.255  26.984  1.00  0.00    -0.205 OA
HETATM    6  C15 UNL     1       3.772  37.203  27.026  1.00  0.00     0.248 A
HETATM    7  S2  UNL     1       4.852  36.792  28.184  1.00  0.00    -0.030 SA
ENDROOT
BRANCH   2   8
HETATM    8  S1  UNL     1       1.824  36.689  23.654  1.00  0.00    -0.082 SA
BRANCH   8   9
HETATM    9  C8  UNL     1       0.183  37.453  23.439  1.00  0.00     0.185 C
BRANCH   9  10
HETATM   10  C9  UNL     1      -0.772  36.300  23.290  1.00  0.00     0.227 C
HETATM   11  O2  UNL     1      -0.991  35.843  22.115  1.00  0.00    -0.273 OA
HETATM   12  N2  UNL     1      -1.379  35.768  24.423  1.00  0.00    -0.358 N
ATOM     13  H2  UNL     1      -1.167  36.183  25.330  1.00  0.00     0.162 HD
BRANCH  12  14
HETATM   14  C10 UNL     1      -2.295  34.653  24.370  1.00  0.00     0.154 C
BRANCH  14  15
HETATM   15  C11 UNL     1      -1.981  33.605  25.383  1.00  0.00     0.139 C
HETATM   16  C12 UNL     1      -0.460  33.649  25.607  1.00  0.00     0.035 C
HETATM   17  C13 UNL     1      -0.329  33.008  26.966  1.00  0.00     0.029 C
HETATM   18  C14 UNL     1      -1.764  32.956  27.442  1.00  0.00     0.168 C
HETATM   19  O3  UNL     1      -2.461  33.879  26.644  1.00  0.00    -0.384 OA
ENDBRANCH  14  15
ENDBRANCH  12  14
ENDBRANCH   9  10
ENDBRANCH   8   9
ENDBRANCH   2   8
BRANCH   1  20
HETATM   20  C6  UNL     1       4.062  35.220  25.532  1.00  0.00     0.044 A
HETATM   21  C5  UNL     1       3.370  34.038  25.508  1.00  0.00     0.033 A
HETATM   22  C4  UNL     1       3.960  32.840  25.127  1.00  0.00     0.039 A
HETATM   23  C3  UNL     1       5.299  32.782  24.748  1.00  0.00     0.075 A
HETATM   24  C17 UNL     1       5.994  33.971  24.775  1.00  0.00     0.039 A
HETATM   25  C16 UNL     1       5.410  35.159  25.152  1.00  0.00     0.033 A
BRANCH  23  26
HETATM   26  O1  UNL     1       5.882  31.577  24.366  1.00  0.00    -0.284 OA
BRANCH  26  27
HETATM   27  C2  UNL     1       5.529  30.907  23.182  1.00  0.00     0.355 C
HETATM   28  C1  UNL     1       4.591  29.759  23.345  1.00  0.00     0.126 C
HETATM   29  F1  UNL     1       5.065  31.795  22.232  1.00  0.00    -0.176 F
HETATM   30  F2  UNL     1       6.724  30.378  22.664  1.00  0.00    -0.176 F
ENDBRANCH  26  27
ENDBRANCH  23  26
ENDBRANCH   1  20
TORSDOF 8
ENDMDL