MODEL 1
REMARK VINA RESULT: -9.720275158      0.000      0.000
REMARK  8 active torsions:
REMARK  status: ('A' for Active; 'I' for Inactive)
REMARK    1  A    between atoms: C1_2  and  C2_3
REMARK       I    between atoms: C1_2  and  N6_27
REMARK    2  A    between atoms: C2_3  and  S1_4
REMARK    3  A    between atoms: S1_4  and  C3_5
REMARK    4  A    between atoms: C4_10  and  N3_11
REMARK    5  A    between atoms: N3_11  and  C5_12
REMARK    6  A    between atoms: N3_11  and  C9_20
REMARK    7  A    between atoms: N6_27  and  C13_29
REMARK    8  A    between atoms: C13_29  and  C14_30
ROOT
HETATM    1  C3  UNL     1       5.174  36.673  25.482  1.00  0.00     0.130 A
HETATM    2  N1  UNL     1       4.371  37.051  26.477  1.00  0.00    -0.286 N
ATOM      3  H1  UNL     1       4.762  37.516  27.296  1.00  0.00     0.188 HD
HETATM    4  N2  UNL     1       3.128  36.835  26.409  1.00  0.00    -0.278 N
ATOM      5  H2  UNL     1       2.521  37.126  27.176  1.00  0.00     0.189 HD
HETATM    6  C4  UNL     1       2.611  36.237  25.356  1.00  0.00     0.170 A
HETATM    7  S2  UNL     1       4.018  35.968  24.419  1.00  0.00    -0.026 SA
ENDROOT
BRANCH   6   8
HETATM    8  N3  UNL     1       1.228  35.955  24.996  1.00  0.00    -0.307 N
BRANCH   8   9
HETATM    9  C5  UNL     1       0.588  36.695  24.003  1.00  0.00     0.111 A
HETATM   10  C6  UNL     1       0.019  37.944  24.315  1.00  0.00     0.066 A
HETATM   11  C7  UNL     1      -0.596  38.710  23.352  1.00  0.00     0.092 A
HETATM   12  N4  UNL     1      -0.655  38.250  22.079  1.00  0.00    -0.362 N
HETATM   13  C8  UNL     1      -0.124  37.067  21.751  1.00  0.00     0.181 A
ATOM     14  H4  UNL     1      -1.111  38.814  21.360  1.00  0.00     0.165 HD
HETATM   15  N5  UNL     1       0.459  36.364  22.715  1.00  0.00    -0.338 N
ATOM     16  H5  UNL     1       0.856  35.465  22.440  1.00  0.00     0.168 HD
ENDBRANCH   8   9
BRANCH   8  17
HETATM   17  C9  UNL     1       0.678  34.877  25.767  1.00  0.00     0.105 C
HETATM   18  C10 UNL     1       1.657  33.738  26.019  1.00  0.00     0.105 C
HETATM   19  C11 UNL     1       0.496  32.793  25.847  1.00  0.00     0.247 C
HETATM   20  F1  UNL     1       0.047  32.377  27.097  1.00  0.00    -0.206 F
HETATM   21  F2  UNL     1       0.675  31.794  24.925  1.00  0.00    -0.206 F
HETATM   22  C12 UNL     1      -0.357  33.974  25.311  1.00  0.00     0.105 C
ENDBRANCH   8  17
ENDBRANCH   6   8
BRANCH   1  23
HETATM   23  S1  UNL     1       6.934  36.968  25.269  1.00  0.00    -0.094 SA
BRANCH  23  24
HETATM   24  C2  UNL     1       7.839  35.744  26.220  1.00  0.00     0.184 C
BRANCH  24  25
HETATM   25  C1  UNL     1       8.151  34.555  25.370  1.00  0.00     0.227 C
HETATM   26  O1  UNL     1       9.376  34.329  25.122  1.00  0.00    -0.273 OA
HETATM   27  N6  UNL     1       7.111  33.748  24.897  1.00  0.00    -0.356 N
ATOM     28  H6  UNL     1       6.133  33.970  25.087  1.00  0.00     0.162 HD
BRANCH  27  29
HETATM   29  C13 UNL     1       7.496  32.556  24.108  1.00  0.00     0.161 C
BRANCH  29  30
HETATM   30  C14 UNL     1       6.202  31.790  23.992  1.00  0.00    -0.041 A
HETATM   31  C15 UNL     1       6.094  30.549  23.446  1.00  0.00     0.009 A
HETATM   32  C16 UNL     1       4.882  29.861  23.398  1.00  0.00     0.001 A
HETATM   33  C17 UNL     1       3.750  30.426  23.906  1.00  0.00     0.000 A
HETATM   34  C18 UNL     1       3.862  31.703  24.466  1.00  0.00     0.001 A
HETATM   35  C19 UNL     1       5.056  32.381  24.514  1.00  0.00     0.009 A
ENDBRANCH  29  30
ENDBRANCH  27  29
ENDBRANCH  24  25
ENDBRANCH  23  24
ENDBRANCH   1  23
TORSDOF 8
ENDMDL