MODEL 1
REMARK VINA RESULT: -7.703865535      0.000      0.000
REMARK  9 active torsions:
REMARK  status: ('A' for Active; 'I' for Inactive)
REMARK    1  A    between atoms: N1_2  and  O3_4
REMARK    2  A    between atoms: O3_4  and  C1_5
REMARK    3  A    between atoms: C1_5  and  C2_6
REMARK    4  A    between atoms: C2_6  and  S1_7
REMARK    5  A    between atoms: S1_7  and  C3_8
REMARK    6  A    between atoms: C3_8  and  C4_9
REMARK    7  A    between atoms: N2_10  and  N3_12
REMARK    8  A    between atoms: N3_12  and  C5_14
REMARK    9  A    between atoms: C6_15  and  N4_16
ROOT
HETATM    1  C5  UNL     1       3.272  33.546  25.433  1.00  0.00     0.089 A
HETATM    2  C6  UNL     1       2.216  32.643  25.276  1.00  0.00     0.075 A
HETATM    3  C12 UNL     1       2.381  31.411  24.679  1.00  0.00     0.120 A
HETATM    4  N5  UNL     1       3.597  31.076  24.238  1.00  0.00    -0.357 N
ATOM      5  H5  UNL     1       3.737  30.168  23.793  1.00  0.00     0.166 HD
HETATM    6  C13 UNL     1       4.658  31.933  24.373  1.00  0.00     0.086 A
HETATM    7  S2  UNL     1       6.309  31.849  23.942  1.00  0.00    -0.083 SA
HETATM    8  C14 UNL     1       6.825  33.364  24.506  1.00  0.00     0.053 A
HETATM    9  C15 UNL     1       5.678  33.907  25.025  1.00  0.00     0.024 A
HETATM   10  C16 UNL     1       4.549  33.165  24.957  1.00  0.00     0.029 A
ENDROOT
BRANCH   1  11
HETATM   11  N3  UNL     1       3.006  34.631  25.970  1.00  0.00    -0.298 N
ATOM     12  H3  UNL     1       3.019  34.531  26.984  1.00  0.00     0.187 HD
BRANCH  11  13
HETATM   13  N2  UNL     1       2.709  35.884  25.641  1.00  0.00    -0.315 N
HETATM   14  C4  UNL     1       1.563  36.399  25.384  1.00  0.00     0.090 C
ATOM     15  H2  UNL     1       3.501  36.524  25.586  1.00  0.00     0.185 HD
BRANCH  14  16
HETATM   16  C3  UNL     1       1.471  37.821  25.039  1.00  0.00     0.120 C
BRANCH  16  17
HETATM   17  S1  UNL     1       3.035  38.492  24.423  1.00  0.00    -0.162 SA
BRANCH  17  18
HETATM   18  C2  UNL     1       3.794  39.622  25.609  1.00  0.00     0.103 C
BRANCH  18  19
HETATM   19  C1  UNL     1       4.710  38.860  26.562  1.00  0.00     0.218 C
BRANCH  19  20
HETATM   20  O3  UNL     1       3.919  38.224  27.553  1.00  0.00    -0.221 OA
BRANCH  20  21
HETATM   21  N1  UNL     1       4.412  37.147  28.248  1.00  0.00     0.004 N
HETATM   22  O1  UNL     1       5.061  36.287  27.584  1.00  0.00    -0.511 OA
HETATM   23  O2  UNL     1       4.214  37.004  29.597  1.00  0.00    -0.511 OA
ENDBRANCH  20  21
ENDBRANCH  19  20
ENDBRANCH  18  19
ENDBRANCH  17  18
ENDBRANCH  16  17
ENDBRANCH  14  16
ENDBRANCH  11  13
ENDBRANCH   1  11
BRANCH   2  24
HETATM   24  N4  UNL     1       0.890  32.931  25.766  1.00  0.00    -0.378 N
HETATM   25  C7  UNL     1      -0.116  33.234  24.731  1.00  0.00     0.129 C
HETATM   26  C8  UNL     1      -1.234  34.073  25.310  1.00  0.00     0.099 C
HETATM   27  C9  UNL     1      -1.907  33.235  26.342  1.00  0.00     0.246 C
HETATM   28  F1  UNL     1      -2.557  32.189  25.699  1.00  0.00    -0.206 F
HETATM   29  F2  UNL     1      -2.908  33.991  26.924  1.00  0.00    -0.206 F
HETATM   30  C10 UNL     1      -0.986  32.704  27.373  1.00  0.00     0.099 C
HETATM   31  C11 UNL     1       0.485  32.920  27.129  1.00  0.00     0.129 C
ENDBRANCH   2  24
TORSDOF 9
ENDMDL