MODEL 4
REMARK VINA RESULT: -6.782023946      2.253      3.446
REMARK  6 active torsions:
REMARK  status: ('A' for Active; 'I' for Inactive)
REMARK    1  A    between atoms: N1_2  and  C1_4
REMARK    2  A    between atoms: C3_6  and  O3_7
REMARK    3  A    between atoms: C5_10  and  N2_11
REMARK    4  A    between atoms: N2_11  and  C6_13
REMARK    5  A    between atoms: C6_13  and  N3_15
REMARK    6  A    between atoms: N3_15  and  C7_17
ROOT
HETATM    1  N2  UNL     1      63.823  36.046  24.412  1.00  0.00    -0.333 N
ATOM      2  H2  UNL     1      62.948  36.130  23.896  1.00  0.00     0.168 HD
ENDROOT
BRANCH   1   3
HETATM    3  C5  UNL     1      63.943  34.954  25.277  1.00  0.00     0.039 A
HETATM    4  C4  UNL     1      62.938  34.384  26.019  1.00  0.00     0.066 A
HETATM    5  C3  UNL     1      63.146  33.280  26.825  1.00  0.00     0.070 A
HETATM    6  C2  UNL     1      64.380  32.695  26.920  1.00  0.00     0.072 A
HETATM    7  C1  UNL     1      65.415  33.225  26.200  1.00  0.00     0.107 A
HETATM    8  C13 UNL     1      65.196  34.310  25.413  1.00  0.00     0.065 A
BRANCH   5   9
HETATM    9  O3  UNL     1      62.094  32.747  27.551  1.00  0.00    -0.361 OA
ATOM     10  H3  UNL     1      61.224  32.746  27.168  1.00  0.00     0.217 HD
ENDBRANCH   5   9
BRANCH   7  11
HETATM   11  N1  UNL     1      66.700  32.626  26.292  1.00  0.00    -0.116 N
HETATM   12  O1  UNL     1      66.831  31.432  25.974  1.00  0.00    -0.532 OA
HETATM   13  O2  UNL     1      67.813  33.306  26.716  1.00  0.00    -0.532 OA
ENDBRANCH   7  11
ENDBRANCH   1   3
BRANCH   1  14
HETATM   14  C6  UNL     1      64.784  37.034  24.187  1.00  0.00     0.172 C
HETATM   15  S1  UNL     1      64.781  38.362  25.134  1.00  0.00    -0.041 SA
BRANCH  14  16
HETATM   16  N3  UNL     1      65.745  36.919  23.114  1.00  0.00    -0.362 N
ATOM     17  H3  UNL     1      66.218  36.020  23.020  1.00  0.00     0.162 HD
BRANCH  16  18
HETATM   18  C7  UNL     1      66.097  37.914  22.185  1.00  0.00     0.083 C
HETATM   19  C8  UNL     1      67.278  37.624  21.293  1.00  0.00     0.025 C
HETATM   20  C9  UNL     1      67.707  38.919  20.636  1.00  0.00     0.002 C
HETATM   21  C10 UNL     1      66.611  39.381  19.725  1.00  0.00     0.000 C
HETATM   22  C11 UNL     1      65.377  38.563  19.881  1.00  0.00     0.002 C
HETATM   23  C12 UNL     1      64.951  38.316  21.303  1.00  0.00     0.025 C
ENDBRANCH  16  18
ENDBRANCH  14  16
ENDBRANCH   1  14
TORSDOF 6
ENDMDL