MODEL 1
REMARK VINA RESULT: -7.215550694      0.000      0.000
REMARK  4 active torsions:
REMARK  status: ('A' for Active; 'I' for Inactive)
REMARK    1  A    between atoms: C4_4  and  C5_5
REMARK    2  A    between atoms: C7_7  and  C8_8
REMARK    3  A    between atoms: C13_13  and  N1_14
REMARK    4  A    between atoms: C14_17  and  N2_18
ROOT
HETATM    1  C8  UNL     1      65.215  35.281  24.774  1.00  0.00     0.107 C
HETATM    2  C9  UNL     1      66.323  36.014  25.448  1.00  0.00     0.034 C
HETATM    3  C10 UNL     1      66.823  37.240  24.788  1.00  0.00     0.045 C
HETATM    4  C11 UNL     1      66.393  37.448  23.380  1.00  0.00    -0.012 A
HETATM    5  C12 UNL     1      67.157  38.263  22.584  1.00  0.00     0.051 A
HETATM    6  C13 UNL     1      66.763  38.487  21.263  1.00  0.00     0.146 A
HETATM    7  C14 UNL     1      65.621  37.880  20.807  1.00  0.00     0.134 A
HETATM    8  N3  UNL     1      64.877  37.071  21.621  1.00  0.00    -0.327 N
ATOM      9  H3  UNL     1      64.031  36.629  21.261  1.00  0.00     0.169 HD
HETATM   10  C15 UNL     1      65.255  36.856  22.888  1.00  0.00     0.109 A
HETATM   11  N4  UNL     1      64.511  36.020  23.759  1.00  0.00    -0.368 N
ATOM     12  H4  UNL     1      63.498  35.943  23.667  1.00  0.00     0.161 HD
ENDROOT
BRANCH   1  13
HETATM   13  C7  UNL     1      64.328  34.540  25.679  1.00  0.00     0.005 C
HETATM   14  C5  UNL     1      64.573  33.333  26.212  1.00  0.00    -0.064 C
HETATM   15  C6  UNL     1      65.831  32.617  25.914  1.00  0.00     0.048 C
BRANCH  14  16
HETATM   16  C4  UNL     1      63.569  32.765  27.085  1.00  0.00     0.008 C
HETATM   17  C2  UNL     1      63.684  32.255  28.278  1.00  0.00    -0.087 C
HETATM   18  C1  UNL     1      62.389  31.749  28.899  1.00  0.00     0.043 C
HETATM   19  C3  UNL     1      64.867  32.091  29.117  1.00  0.00     0.043 C
ENDBRANCH  14  16
ENDBRANCH   1  13
BRANCH   7  20
HETATM   20  N2  UNL     1      65.230  38.038  19.601  1.00  0.00    -0.383 N
ATOM     21  H22 UNL     1      64.227  38.111  19.429  1.00  0.00     0.157 HD
ATOM     22  H21 UNL     1      65.900  38.075  18.833  1.00  0.00     0.157 HD
ENDBRANCH   7  20
BRANCH   6  23
HETATM   23  N1  UNL     1      67.606  39.333  20.521  1.00  0.00    -0.112 N
HETATM   24  O1  UNL     1      67.125  40.290  19.852  1.00  0.00    -0.532 OA
HETATM   25  O2  UNL     1      68.949  39.176  20.484  1.00  0.00    -0.532 OA
ENDBRANCH   6  23
TORSDOF 4
ENDMDL