MODEL 3
REMARK VINA RESULT: -8.014588847      1.741      6.143
REMARK  5 active torsions:
REMARK  status: ('A' for Active; 'I' for Inactive)
REMARK    1  A    between atoms: C2_2  and  C3_3
REMARK    2  A    between atoms: C6_6  and  N1_7
REMARK    3  A    between atoms: N1_7  and  C7_9
REMARK    4  A    between atoms: C8_12  and  C9_13
REMARK    5  A    between atoms: C16_22  and  N4_23
ROOT
HETATM    1  C7  UNL     1      64.328  35.835  23.431  1.00  0.00     0.700 A
HETATM    2  N2  UNL     1      65.167  36.325  24.356  1.00  0.00    -0.179 N
ATOM      3  H2  UNL     1      65.199  35.873  25.270  1.00  0.00     0.185 HD
HETATM    4  C8  UNL     1      65.963  37.376  24.137  1.00  0.00     0.117 A
HETATM    5  N3  UNL     1      65.906  37.956  22.926  1.00  0.00    -0.179 N
ATOM      6  H3  UNL     1      66.505  38.760  22.737  1.00  0.00     0.185 HD
HETATM    7  C16 UNL     1      65.087  37.516  21.955  1.00  0.00     0.691 A
HETATM    8  N5  UNL     1      64.311  36.455  22.237  1.00  0.00    -0.022 N
ATOM      9  H5  UNL     1      63.682  36.105  21.515  1.00  0.00     0.203 HD
ENDROOT
BRANCH   1  10
HETATM   10  N1  UNL     1      63.567  34.821  23.658  1.00  0.00    -0.169 N
ATOM     11  H1  UNL     1      62.971  34.476  22.906  1.00  0.00     0.186 HD
BRANCH  10  12
HETATM   12  C6  UNL     1      63.529  34.165  24.923  1.00  0.00     0.163 A
HETATM   13  C5  UNL     1      62.504  34.138  25.846  1.00  0.00     0.060 A
HETATM   14  C4  UNL     1      62.891  33.387  26.924  1.00  0.00     0.041 A
HETATM   15  C3  UNL     1      64.187  32.967  26.606  1.00  0.00     0.077 A
HETATM   16  O1  UNL     1      64.500  33.445  25.444  1.00  0.00    -0.293 OA
BRANCH  15  17
HETATM   17  C2  UNL     1      64.998  32.122  27.497  1.00  0.00     0.027 C
HETATM   18  C1  UNL     1      64.777  32.060  28.780  1.00  0.00     0.014 C
ENDBRANCH  15  17
ENDBRANCH  10  12
ENDBRANCH   1  10
BRANCH   4  19
HETATM   19  C9  UNL     1      66.907  37.953  25.127  1.00  0.00     0.054 C
HETATM   20  C10 UNL     1      66.145  38.132  26.404  1.00  0.00     0.012 C
HETATM   21  C11 UNL     1      66.912  38.742  27.514  1.00  0.00     0.001 C
HETATM   22  C12 UNL     1      68.380  38.468  27.371  1.00  0.00     0.000 C
HETATM   23  C13 UNL     1      69.064  39.414  26.447  1.00  0.00     0.000 C
HETATM   24  C14 UNL     1      68.127  40.122  25.498  1.00  0.00     0.001 C
HETATM   25  C15 UNL     1      67.445  39.215  24.547  1.00  0.00     0.012 C
ENDBRANCH   4  19
BRANCH   7  26
HETATM   26  N4  UNL     1      65.025  38.062  20.800  1.00  0.00    -0.234 N
ATOM     27  H42 UNL     1      64.678  37.528  20.003  1.00  0.00     0.174 HD
ATOM     28  H41 UNL     1      65.312  39.026  20.628  1.00  0.00     0.174 HD
ENDBRANCH   7  26
TORSDOF 5
ENDMDL