MODEL 4
REMARK VINA RESULT: -6.699118396      3.104      4.094
REMARK  6 active torsions:
REMARK  status: ('A' for Active; 'I' for Inactive)
REMARK    1  A    between atoms: O1_1  and  C1_3
REMARK    2  A    between atoms: C3_5  and  C4_6
REMARK    3  A    between atoms: C4_6  and  O2_7
REMARK    4  A    between atoms: C4_6  and  N1_9
REMARK    5  A    between atoms: C10_15  and  O3_16
REMARK    6  A    between atoms: N2_18  and  C11_19
ROOT
HETATM    1  C1  UNL     1      63.496  35.446  23.053  1.00  0.00     0.145 A
HETATM    2  C2  UNL     1      63.872  36.558  22.328  1.00  0.00     0.072 A
HETATM    3  C3  UNL     1      65.121  37.003  22.726  1.00  0.00     0.055 A
HETATM    4  C10 UNL     1      65.478  36.098  23.734  1.00  0.00     0.155 A
HETATM    5  N2  UNL     1      64.502  35.190  23.905  1.00  0.00    -0.303 N
ENDROOT
BRANCH   3   6
HETATM    6  C4  UNL     1      65.928  38.147  22.234  1.00  0.00     0.395 C
BRANCH   6   7
HETATM    7  O2  UNL     1      66.642  38.673  23.311  1.00  0.00    -0.364 OA
ATOM      8  H2  UNL     1      67.035  39.493  23.036  1.00  0.00     0.212 HD
ENDBRANCH   6   7
BRANCH   6   9
HETATM    9  N1  UNL     1      66.713  37.849  21.086  1.00  0.00     0.121 N
HETATM   10  C5  UNL     1      67.892  38.611  20.892  1.00  0.00     0.276 C
HETATM   11  C6  UNL     1      67.644  39.976  20.292  1.00  0.00     0.030 C
HETATM   12  C7  UNL     1      66.768  39.893  19.059  1.00  0.00     0.003 C
HETATM   13  C8  UNL     1      65.563  39.037  19.260  1.00  0.00     0.030 C
HETATM   14  C9  UNL     1      65.959  37.729  19.872  1.00  0.00     0.276 C
ENDBRANCH   6   9
ENDBRANCH   3   6
BRANCH   4  15
HETATM   15  O3  UNL     1      66.697  36.202  24.407  1.00  0.00    -0.345 OA
ATOM     16  H3  UNL     1      66.976  37.018  24.804  1.00  0.00     0.219 HD
ENDBRANCH   4  15
BRANCH   1  17
HETATM   17  O1  UNL     1      62.296  34.729  22.921  1.00  0.00    -0.346 OA
ATOM     18  H1  UNL     1      61.551  34.759  23.510  1.00  0.00     0.219 HD
ENDBRANCH   1  17
BRANCH   5  19
HETATM   19  C11 UNL     1      64.560  34.123  24.865  1.00  0.00     0.094 C
HETATM   20  C12 UNL     1      63.353  34.102  25.792  1.00  0.00     0.026 C
HETATM   21  C13 UNL     1      63.666  33.346  27.064  1.00  0.00     0.002 C
HETATM   22  C14 UNL     1      64.654  32.231  26.826  1.00  0.00     0.000 C
HETATM   23  C15 UNL     1      65.976  32.860  26.452  1.00  0.00     0.002 C
HETATM   24  C16 UNL     1      65.782  34.171  25.720  1.00  0.00     0.026 C
ENDBRANCH   5  19
TORSDOF 6
ENDMDL