MODEL 2
REMARK VINA RESULT: -6.860085566      0.954      1.153
REMARK  4 active torsions:
REMARK  status: ('A' for Active; 'I' for Inactive)
REMARK    1  A    between atoms: S1_2  and  C2_3
REMARK    2  A    between atoms: C7_8  and  C8_9
REMARK    3  A    between atoms: C8_9  and  N1_10
REMARK       I    between atoms: N1_10  and  C9_12
REMARK       I    between atoms: C9_12  and  N2_14
REMARK       I    between atoms: N2_14  and  C10_16
REMARK       I    between atoms: C10_16  and  N3_17
REMARK       I    between atoms: C10_16  and  N4_20
REMARK    4  A    between atoms: N4_20  and  C11_22
ROOT
HETATM    1  N1  UNL     1      67.211  35.655  25.927  1.00  0.00    -0.338 N
ATOM      2  H1  UNL     1      67.370  35.325  26.879  1.00  0.00     0.164 HD
HETATM    3  C9  UNL     1      67.756  36.895  25.613  1.00  0.00     0.334 C
HETATM    4  O1  UNL     1      67.685  37.449  24.507  1.00  0.00    -0.246 OA
HETATM    5  N2  UNL     1      68.487  37.670  26.647  1.00  0.00    -0.142 N
ATOM      6  H2  UNL     1      68.611  37.283  27.583  1.00  0.00     0.189 HD
HETATM    7  C10 UNL     1      68.999  38.916  26.341  1.00  0.00     0.676 C
HETATM    8  N3  UNL     1      69.420  39.920  26.116  1.00  0.00    -0.235 N
ATOM      9  H31 UNL     1      69.798  40.839  25.890  1.00  0.00     0.174 HD
ATOM     10  H32 UNL     1      69.100  39.813  25.153  1.00  0.00     0.174 HD
HETATM   11  N4  UNL     1      69.553  39.101  28.005  1.00  0.00    -0.218 N
ATOM     12  H4  UNL     1      70.473  38.825  28.349  1.00  0.00     0.178 HD
ENDROOT
BRANCH   1  13
HETATM   13  C8  UNL     1      66.439  34.766  25.060  1.00  0.00     0.164 C
BRANCH  13  14
HETATM   14  C7  UNL     1      65.586  33.872  25.888  1.00  0.00    -0.024 A
HETATM   15  C2  UNL     1      64.221  34.208  25.927  1.00  0.00     0.008 A
HETATM   16  C3  UNL     1      63.333  33.500  26.695  1.00  0.00     0.019 A
HETATM   17  C4  UNL     1      63.761  32.441  27.452  1.00  0.00     0.001 A
HETATM   18  C5  UNL     1      65.124  32.112  27.409  1.00  0.00     0.001 A
HETATM   19  C6  UNL     1      66.019  32.818  26.639  1.00  0.00     0.010 A
BRANCH  15  20
HETATM   20  S1  UNL     1      63.653  35.514  24.866  1.00  0.00    -0.134 SA
HETATM   21  C1  UNL     1      63.454  34.961  23.174  1.00  0.00     0.095 C
ENDBRANCH  15  20
ENDBRANCH  13  14
ENDBRANCH   1  13
BRANCH  11  22
HETATM   22  C11 UNL     1      68.571  39.664  28.764  1.00  0.00     0.036 C
HETATM   23  C12 UNL     1      68.702  39.093  30.199  1.00  0.00     0.038 C
HETATM   24  C13 UNL     1      67.128  39.466  28.351  1.00  0.00     0.038 C
HETATM   25  C14 UNL     1      68.709  41.195  28.944  1.00  0.00     0.038 C
ENDBRANCH  11  22
TORSDOF 4
ENDMDL