MODEL 2
REMARK VINA RESULT: -6.893641511      1.204      1.507
REMARK  5 active torsions:
REMARK  status: ('A' for Active; 'I' for Inactive)
REMARK    1  A    between atoms: C2_2  and  C3_3
REMARK    2  A    between atoms: C2_2  and  C4_6
REMARK    3  A    between atoms: C5_8  and  O4_9
REMARK    4  A    between atoms: C13_18  and  C14_19
REMARK    5  A    between atoms: C14_19  and  O5_20
ROOT
HETATM    1  C4  UNL     1      64.841  35.001  24.927  1.00  0.00     0.102 A
HETATM    2  O3  UNL     1      64.031  34.596  23.940  1.00  0.00    -0.286 OA
HETATM    3  C5  UNL     1      63.812  35.536  23.083  1.00  0.00     0.191 A
HETATM    4  C6  UNL     1      64.515  36.632  23.519  1.00  0.00     0.018 A
HETATM    5  C7  UNL     1      65.179  36.297  24.708  1.00  0.00     0.001 A
HETATM    6  C8  UNL     1      65.967  37.368  25.355  1.00  0.00     0.004 C
HETATM    7  C9  UNL     1      66.291  37.149  26.803  1.00  0.00     0.025 C
HETATM    8  C10 UNL     1      65.112  38.621  25.282  1.00  0.00    -0.016 C
HETATM    9  C11 UNL     1      64.513  38.910  24.143  1.00  0.00    -0.020 C
HETATM   10  C12 UNL     1      64.687  38.006  22.959  1.00  0.00     0.055 C
HETATM   11  C13 UNL     1      66.079  38.239  22.433  1.00  0.00     0.058 C
HETATM   12  C15 UNL     1      67.112  37.403  23.115  1.00  0.00     0.012 C
HETATM   13  C16 UNL     1      67.234  37.692  24.590  1.00  0.00     0.019 C
ENDROOT
BRANCH   1  14
HETATM   14  C2  UNL     1      65.243  34.137  26.010  1.00  0.00     0.066 C
HETATM   15  C1  UNL     1      64.411  33.828  26.963  1.00  0.00     0.033 C
BRANCH  14  16
HETATM   16  C3  UNL     1      66.591  33.614  26.023  1.00  0.00     0.211 C
HETATM   17  O1  UNL     1      67.558  34.349  26.357  1.00  0.00    -0.644 OA
HETATM   18  O2  UNL     1      66.789  32.278  25.657  1.00  0.00    -0.644 OA
ENDBRANCH  14  16
ENDBRANCH   1  14
BRANCH   3  19
HETATM   19  O4  UNL     1      63.010  35.467  21.921  1.00  0.00    -0.340 OA
ATOM     20  H4  UNL     1      62.263  34.899  21.771  1.00  0.00     0.220 HD
ENDBRANCH   3  19
BRANCH  11  21
HETATM   21  C14 UNL     1      66.114  37.941  20.954  1.00  0.00     0.309 C
HETATM   22  F1  UNL     1      67.123  37.073  20.591  1.00  0.00    -0.220 F
BRANCH  21  23
HETATM   23  O5  UNL     1      64.870  37.539  20.460  1.00  0.00    -0.366 OA
ATOM     24  H5  UNL     1      64.642  36.656  20.726  1.00  0.00     0.213 HD
ENDBRANCH  21  23
ENDBRANCH  11  21
TORSDOF 5
ENDMDL