MODEL 5
REMARK VINA RESULT: -5.823926295      2.886      5.955
REMARK  4 active torsions:
REMARK  status: ('A' for Active; 'I' for Inactive)
REMARK    1  A    between atoms: C2_2  and  C3_3
REMARK    2  A    between atoms: C3_3  and  C4_5
REMARK    3  A    between atoms: N1_7  and  C6_8
REMARK    4  A    between atoms: C13_17  and  N3_18
ROOT
HETATM    1  C4  UNL     1      65.803  37.342  23.151  1.00  0.00     0.042 A
HETATM    2  C5  UNL     1      65.100  36.200  23.577  1.00  0.00     0.109 A
HETATM    3  N1  UNL     1      65.458  35.854  24.827  1.00  0.00    -0.336 N
HETATM    4  C12 UNL     1      66.383  36.717  25.276  1.00  0.00     0.138 A
HETATM    5  N2  UNL     1      67.026  36.781  26.449  1.00  0.00    -0.176 N
ATOM      6  H2  UNL     1      66.849  36.096  27.185  1.00  0.00     0.186 HD
HETATM    7  C13 UNL     1      67.928  37.795  26.629  1.00  0.00     0.678 A
HETATM    8  N4  UNL     1      68.159  38.693  25.666  1.00  0.00    -0.181 N
ATOM      9  H4  UNL     1      68.838  39.435  25.837  1.00  0.00     0.185 HD
HETATM   10  C14 UNL     1      67.514  38.648  24.461  1.00  0.00     0.131 A
HETATM   11  S1  UNL     1      67.865  39.806  23.369  1.00  0.00    -0.059 SA
HETATM   12  C15 UNL     1      66.599  37.639  24.246  1.00  0.00     0.062 A
ENDROOT
BRANCH   3  13
HETATM   13  C6  UNL     1      64.934  34.738  25.562  1.00  0.00     0.091 C
HETATM   14  C7  UNL     1      63.553  34.305  25.189  1.00  0.00     0.026 C
HETATM   15  C8  UNL     1      63.002  33.550  26.387  1.00  0.00     0.002 C
HETATM   16  C9  UNL     1      64.026  33.183  27.402  1.00  0.00     0.000 C
HETATM   17  C10 UNL     1      65.351  32.759  26.890  1.00  0.00     0.002 C
HETATM   18  C11 UNL     1      65.820  33.541  25.659  1.00  0.00     0.026 C
ENDBRANCH   3  13
BRANCH   1  19
HETATM   19  C3  UNL     1      65.676  37.955  21.854  1.00  0.00     0.161 C
HETATM   20  O1  UNL     1      64.915  38.836  21.496  1.00  0.00    -0.292 OA
BRANCH  19  21
HETATM   21  C2  UNL     1      66.610  37.449  20.774  1.00  0.00     0.079 C
HETATM   22  C1  UNL     1      66.093  37.721  19.400  1.00  0.00     0.013 C
ENDBRANCH  19  21
ENDBRANCH   1  19
BRANCH   7  23
HETATM   23  N3  UNL     1      68.552  37.865  27.751  1.00  0.00    -0.234 N
ATOM     24  H32 UNL     1      69.355  37.264  27.936  1.00  0.00     0.174 HD
ATOM     25  H31 UNL     1      68.224  38.536  28.446  1.00  0.00     0.174 HD
ENDBRANCH   7  23
TORSDOF 4
ENDMDL