MODEL 2
REMARK VINA RESULT: -6.600276856      1.341      2.081
REMARK  5 active torsions:
REMARK  status: ('A' for Active; 'I' for Inactive)
REMARK    1  A    between atoms: C5_7  and  C6_8
REMARK    2  A    between atoms: C6_8  and  C7_9
REMARK    3  A    between atoms: C10_12  and  C11_13
REMARK    4  A    between atoms: C11_13  and  O1_14
REMARK    5  A    between atoms: C12_16  and  O2_17
ROOT
HETATM    1  C7  UNL     1      64.678  34.894  24.833  1.00  0.00    -0.010 C
HETATM    2  C8  UNL     1      63.292  34.351  24.832  1.00  0.00     0.032 C
HETATM    3  C9  UNL     1      62.861  33.766  26.113  1.00  0.00    -0.019 C
HETATM    4  C10 UNL     1      63.502  32.936  26.893  1.00  0.00    -0.032 C
HETATM    5  C12 UNL     1      64.825  32.326  26.755  1.00  0.00     0.149 C
HETATM    6  C13 UNL     1      65.842  33.154  26.057  1.00  0.00     0.037 C
HETATM    7  C14 UNL     1      65.393  34.609  26.119  1.00  0.00     0.007 C
ENDROOT
BRANCH   1   8
HETATM    8  C6  UNL     1      64.732  36.379  24.536  1.00  0.00     0.017 C
BRANCH   8   9
HETATM    9  C5  UNL     1      66.048  36.760  23.895  1.00  0.00     0.055 C
HETATM   10  C2  UNL     1      65.940  37.946  23.000  1.00  0.00     0.015 C
HETATM   11  C1  UNL     1      64.861  37.968  21.986  1.00  0.00     0.028 C
HETATM   12  C3  UNL     1      67.259  38.385  22.401  1.00  0.00     0.028 C
HETATM   13  S1  UNL     1      65.619  38.916  24.508  1.00  0.00    -0.112 SA
HETATM   14  C4  UNL     1      66.815  37.628  24.853  1.00  0.00     0.051 C
HETATM   15  S2  UNL     1      67.958  37.567  25.692  1.00  0.00    -0.077 SA
ENDBRANCH   8   9
ENDBRANCH   1   8
BRANCH   4  16
HETATM   16  C11 UNL     1      62.771  32.525  28.147  1.00  0.00     0.200 C
BRANCH  16  17
HETATM   17  O1  UNL     1      61.662  31.763  27.878  1.00  0.00    -0.397 OA
ATOM     18  H1  UNL     1      61.850  30.832  27.903  1.00  0.00     0.209 HD
ENDBRANCH  16  17
ENDBRANCH   4  16
BRANCH   5  19
HETATM   19  O2  UNL     1      65.319  32.022  28.037  1.00  0.00    -0.391 OA
ATOM     20  H2  UNL     1      65.984  32.660  28.268  1.00  0.00     0.210 HD
ENDBRANCH   5  19
TORSDOF 5
ENDMDL