MODEL 2
REMARK VINA RESULT: -7.244924725      1.041      2.589
REMARK  5 active torsions:
REMARK  status: ('A' for Active; 'I' for Inactive)
REMARK    1  A    between atoms: C2_2  and  O1_3
REMARK    2  A    between atoms: C2_2  and  C3_5
REMARK    3  A    between atoms: C5_11  and  C6_12
REMARK    4  A    between atoms: C7_13  and  C8_14
REMARK    5  A    between atoms: C17_23  and  O4_24
ROOT
HETATM    1  C6  UNL     1      64.869  36.932  25.839  1.00  0.00     0.021 C
HETATM    2  C7  UNL     1      66.151  37.089  26.027  1.00  0.00     0.014 C
ENDROOT
BRANCH   2   3
HETATM    3  C8  UNL     1      66.747  38.179  26.852  1.00  0.00    -0.011 C
HETATM    4  C9  UNL     1      66.148  39.470  26.672  1.00  0.00    -0.013 C
HETATM    5  C10 UNL     1      66.810  40.575  25.976  1.00  0.00     0.028 C
HETATM    6  C11 UNL     1      66.701  41.906  26.724  1.00  0.00     0.004 C
HETATM    7  C12 UNL     1      68.044  42.354  27.288  1.00  0.00     0.000 C
HETATM    8  C13 UNL     1      68.334  41.790  28.639  1.00  0.00     0.000 C
HETATM    9  C14 UNL     1      69.239  40.594  28.470  1.00  0.00     0.000 C
HETATM   10  C15 UNL     1      68.539  39.390  29.057  1.00  0.00     0.006 C
HETATM   11  C16 UNL     1      68.763  38.133  28.356  1.00  0.00     0.065 C
HETATM   12  C17 UNL     1      68.195  37.937  26.987  1.00  0.00     0.053 C
BRANCH  12  13
HETATM   13  O4  UNL     1      68.998  38.377  25.950  1.00  0.00    -0.364 OA
ATOM     14  H4  UNL     1      68.683  38.218  25.068  1.00  0.00     0.217 HD
ENDBRANCH  12  13
ENDBRANCH   2   3
BRANCH   1  15
HETATM   15  C5  UNL     1      64.374  35.837  25.029  1.00  0.00     0.068 A
HETATM   16  C3  UNL     1      64.288  35.999  23.637  1.00  0.00     0.077 A
HETATM   17  N1  UNL     1      63.719  34.876  23.179  1.00  0.00    -0.258 N
HETATM   18  O2  UNL     1      63.467  34.070  24.183  1.00  0.00    -0.195 OA
ATOM     19  H1  UNL     1      63.514  34.678  22.199  1.00  0.00     0.194 HD
HETATM   20  C4  UNL     1      63.850  34.611  25.325  1.00  0.00     0.317 A
HETATM   21  O3  UNL     1      63.773  34.118  26.472  1.00  0.00    -0.257 OA
BRANCH  16  22
HETATM   22  C2  UNL     1      64.863  37.076  22.873  1.00  0.00     0.166 C
HETATM   23  C1  UNL     1      64.269  38.439  23.150  1.00  0.00     0.046 C
BRANCH  22  24
HETATM   24  O1  UNL     1      64.400  36.837  21.483  1.00  0.00    -0.390 OA
ATOM     25  H1  UNL     1      63.578  37.313  21.478  1.00  0.00     0.210 HD
ENDBRANCH  22  24
ENDBRANCH  16  22
ENDBRANCH   1  15
TORSDOF 5
ENDMDL