MODEL 5
REMARK VINA RESULT: -5.829785447      2.274      3.203
REMARK  5 active torsions:
REMARK  status: ('A' for Active; 'I' for Inactive)
REMARK    1  A    between atoms: C4_6  and  C5_7
REMARK    2  A    between atoms: C5_7  and  C6_12
REMARK    3  A    between atoms: N2_8  and  O1_10
REMARK    4  A    between atoms: C10_16  and  S1_17
REMARK    5  A    between atoms: S1_17  and  C11_18
ROOT
HETATM    1  C1  UNL     1      67.257  38.410  20.907  1.00  0.00     0.069 C
HETATM    2  C2  UNL     1      66.145  37.836  21.699  1.00  0.00     0.023 A
HETATM    3  N1  UNL     1      64.907  37.568  21.285  1.00  0.00    -0.367 N
ATOM      4  H1  UNL     1      64.557  37.722  20.340  1.00  0.00     0.165 HD
HETATM    5  C3  UNL     1      64.194  37.066  22.297  1.00  0.00     0.103 A
HETATM    6  C4  UNL     1      64.979  36.985  23.468  1.00  0.00     0.023 A
HETATM    7  C10 UNL     1      66.189  37.471  23.063  1.00  0.00     0.036 A
ENDROOT
BRANCH   6   8
HETATM    8  C5  UNL     1      64.466  36.516  24.727  1.00  0.00     0.052 C
HETATM    9  N2  UNL     1      64.122  37.183  25.691  1.00  0.00    -0.272 N
ATOM     10  H2  UNL     1      63.805  36.557  26.431  1.00  0.00     0.194 HD
BRANCH   9  11
HETATM   11  O1  UNL     1      64.019  38.392  26.098  1.00  0.00    -0.290 OA
ATOM     12  H1  UNL     1      64.445  39.240  26.045  1.00  0.00     0.244 HD
ENDBRANCH   9  11
BRANCH   8  13
HETATM   13  C6  UNL     1      64.296  35.021  24.963  1.00  0.00    -0.006 C
HETATM   14  C7  UNL     1      65.644  34.452  25.363  1.00  0.00     0.021 C
HETATM   15  C8  UNL     1      63.875  34.310  23.704  1.00  0.00     0.021 C
HETATM   16  C9  UNL     1      63.357  34.724  26.075  1.00  0.00     0.021 C
ENDBRANCH   8  13
ENDBRANCH   6   8
BRANCH   7  17
HETATM   17  S1  UNL     1      67.668  37.638  24.023  1.00  0.00    -0.122 SA
BRANCH  17  18
HETATM   18  C11 UNL     1      67.315  38.689  25.459  1.00  0.00     0.055 C
HETATM   19  C12 UNL     1      67.464  37.941  26.761  1.00  0.00     0.043 C
HETATM   20  C13 UNL     1      67.495  38.958  27.911  1.00  0.00     0.233 C
HETATM   21  N3  UNL     1      68.718  39.704  27.849  1.00  0.00    -0.075 N
HETATM   22  C14 UNL     1      69.267  39.818  26.521  1.00  0.00     0.233 C
ATOM     23  H32 UNL     1      68.598  40.626  28.268  1.00  0.00     0.277 HD
ATOM     24  H31 UNL     1      69.409  39.312  28.489  1.00  0.00     0.277 HD
HETATM   25  C15 UNL     1      68.198  39.922  25.459  1.00  0.00     0.043 C
ENDBRANCH  17  18
ENDBRANCH   7  17
TORSDOF 5
ENDMDL