MODEL 4
REMARK VINA RESULT: -5.954024247      2.439      2.901
REMARK  4 active torsions:
REMARK  status: ('A' for Active; 'I' for Inactive)
REMARK    1  A    between atoms: C2_2  and  C4_4
REMARK    2  A    between atoms: C5_5  and  C6_7
REMARK    3  A    between atoms: C8_10  and  C9_11
REMARK    4  A    between atoms: C12_18  and  N3_19
ROOT
HETATM    1  C6  UNL     1      65.361  34.974  24.490  1.00  0.00     0.045 A
HETATM    2  C7  UNL     1      66.062  34.437  25.567  1.00  0.00     0.051 A
HETATM    3  S1  UNL     1      67.498  35.290  26.127  1.00  0.00    -0.049 SA
HETATM    4  C8  UNL     1      65.701  33.281  26.224  1.00  0.00     0.048 A
HETATM    5  N1  UNL     1      64.585  32.700  25.723  1.00  0.00    -0.302 N
ATOM      6  H1  UNL     1      64.251  31.840  26.159  1.00  0.00     0.186 HD
HETATM    7  N2  UNL     1      63.919  33.176  24.718  1.00  0.00    -0.285 N
ATOM      8  H2  UNL     1      63.093  32.662  24.411  1.00  0.00     0.188 HD
HETATM    9  C12 UNL     1      64.247  34.332  24.032  1.00  0.00     0.126 A
ENDROOT
BRANCH   1  10
HETATM   10  C5  UNL     1      65.739  36.313  24.021  1.00  0.00     0.023 C
HETATM   11  C4  UNL     1      66.350  36.691  22.956  1.00  0.00    -0.003 C
HETATM   12 BR1  UNL     1      64.941  37.750  25.072  1.00  0.00    -0.050 Br
BRANCH  11  13
HETATM   13  C2  UNL     1      66.397  38.154  22.581  1.00  0.00     0.001 C
HETATM   14  C1  UNL     1      65.498  38.324  21.347  1.00  0.00     0.013 C
HETATM   15  C3  UNL     1      67.793  38.491  22.075  1.00  0.00     0.013 C
ENDBRANCH  11  13
ENDBRANCH   1  10
BRANCH   9  16
HETATM   16  N3  UNL     1      63.457  34.686  23.096  1.00  0.00    -0.384 N
ATOM     17  H32 UNL     1      63.755  34.482  22.143  1.00  0.00     0.157 HD
ATOM     18  H31 UNL     1      62.536  35.118  23.174  1.00  0.00     0.157 HD
ENDBRANCH   9  16
BRANCH   4  19
HETATM   19  C9  UNL     1      66.476  32.607  27.222  1.00  0.00     0.030 C
HETATM   20  C10 UNL     1      65.871  31.647  28.180  1.00  0.00     0.016 C
HETATM   21  C11 UNL     1      67.359  31.564  26.365  1.00  0.00     0.016 C
ENDBRANCH   4  19
TORSDOF 4
ENDMDL