MODEL 3
REMARK VINA RESULT: -7.155094368      3.160      7.527
REMARK  5 active torsions:
REMARK  status: ('A' for Active; 'I' for Inactive)
REMARK    1  A    between atoms: N1_1  and  N2_4
REMARK    2  A    between atoms: C1_6  and  C2_7
REMARK    3  A    between atoms: C6_14  and  C7_15
REMARK    4  A    between atoms: C10_18  and  C11_19
REMARK    5  A    between atoms: C17_25  and  O1_26
ROOT
HETATM    1  C7  UNL     1      66.325  36.615  23.673  1.00  0.00     0.015 A
HETATM    2  C8  UNL     1      65.315  35.719  23.507  1.00  0.00     0.013 A
HETATM    3  C9  UNL     1      65.155  34.661  24.415  1.00  0.00     0.015 A
HETATM    4  C10 UNL     1      65.995  34.482  25.486  1.00  0.00     0.003 A
HETATM    5  C17 UNL     1      67.006  35.386  25.629  1.00  0.00     0.115 A
HETATM    6  C18 UNL     1      67.194  36.438  24.767  1.00  0.00     0.158 A
HETATM    7  F1  UNL     1      68.229  37.276  24.955  1.00  0.00    -0.203 F
ENDROOT
BRANCH   1   8
HETATM    8  C6  UNL     1      66.480  37.837  22.862  1.00  0.00     0.230 C
HETATM    9  C2  UNL     1      67.597  37.879  21.903  1.00  0.00     0.061 C
HETATM   10  C3  UNL     1      67.312  37.470  20.496  1.00  0.00     0.014 C
HETATM   11  C4  UNL     1      66.015  38.034  19.972  1.00  0.00     0.028 C
HETATM   12  C5  UNL     1      65.180  38.725  21.009  1.00  0.00     0.233 C
HETATM   13  N3  UNL     1      65.164  37.965  22.206  1.00  0.00    -0.066 N
ATOM     14  H32 UNL     1      64.476  38.342  22.858  1.00  0.00     0.278 HD
ATOM     15  H31 UNL     1      64.759  37.044  22.038  1.00  0.00     0.278 HD
BRANCH   9  16
HETATM   16  C1  UNL     1      68.123  39.314  21.815  1.00  0.00     0.086 C
HETATM   17  N2  UNL     1      69.095  39.641  21.185  1.00  0.00    -0.322 N
ATOM     18  H2  UNL     1      69.175  40.647  21.331  1.00  0.00     0.185 HD
BRANCH  17  19
HETATM   19  N1  UNL     1      70.112  39.329  20.394  1.00  0.00    -0.346 N
ATOM     20  H12 UNL     1      70.838  39.059  21.056  1.00  0.00     0.176 HD
ATOM     21  H11 UNL     1      70.509  39.231  19.460  1.00  0.00     0.176 HD
ENDBRANCH  17  19
ENDBRANCH   9  16
ENDBRANCH   1   8
BRANCH   5  22
HETATM   22  O1  UNL     1      67.938  35.248  26.719  1.00  0.00    -0.357 OA
ATOM     23  H1  UNL     1      68.503  35.977  26.951  1.00  0.00     0.218 HD
ENDBRANCH   5  22
BRANCH   4  24
HETATM   24  C11 UNL     1      65.684  33.530  26.555  1.00  0.00    -0.067 C
HETATM   25  C12 UNL     1      64.275  33.043  26.633  1.00  0.00     0.035 C
HETATM   26  C13 UNL     1      64.070  32.218  27.866  1.00  0.00     0.004 C
HETATM   27  C14 UNL     1      65.126  31.184  28.079  1.00  0.00     0.001 C
HETATM   28  C15 UNL     1      66.248  31.147  27.103  1.00  0.00     0.004 C
HETATM   29  C16 UNL     1      66.753  32.559  26.902  1.00  0.00     0.035 C
ENDBRANCH   4  24
TORSDOF 5
ENDMDL