MODEL 5
REMARK VINA RESULT: -5.997089713      3.736      5.986
REMARK  8 active torsions:
REMARK  status: ('A' for Active; 'I' for Inactive)
REMARK    1  A    between atoms: C2_2  and  N1_3
REMARK    2  A    between atoms: C3_5  and  C4_6
REMARK    3  A    between atoms: C3_5  and  N2_15
REMARK    4  A    between atoms: C4_6  and  C5_7
REMARK    5  A    between atoms: C6_8  and  C7_9
REMARK    6  A    between atoms: C8_10  and  C10_12
REMARK    7  A    between atoms: N3_17  and  C12_19
REMARK    8  A    between atoms: C15_26  and  N6_27
ROOT
HETATM    1  C10 UNL     1      63.632  32.541  27.088  1.00  0.00    -0.054 C
HETATM    2  C11 UNL     1      63.006  31.811  27.817  1.00  0.00     0.010 C
HETATM    3 CL1  UNL     1      62.129  30.750  28.882  1.00  0.00    -0.023 Cl
ENDROOT
BRANCH   1   4
HETATM    4  C8  UNL     1      64.366  33.426  26.237  1.00  0.00     0.001 C
HETATM    5  C7  UNL     1      63.742  34.182  25.374  1.00  0.00     0.080 C
HETATM    6  C9  UNL     1      65.835  33.472  26.349  1.00  0.00     0.059 C
BRANCH   5   7
HETATM    7  C6  UNL     1      64.473  35.064  24.527  1.00  0.00    -0.077 C
HETATM    8  C5  UNL     1      65.090  35.827  23.823  1.00  0.00    -0.094 C
BRANCH   8   9
HETATM    9  C4  UNL     1      65.842  36.771  22.984  1.00  0.00     0.171 C
BRANCH   9  10
HETATM   10  C3  UNL     1      67.183  37.066  23.575  1.00  0.00     0.102 C
HETATM   11  N1  UNL     1      67.862  38.045  23.110  1.00  0.00    -0.378 N
ATOM     12  H1  UNL     1      68.777  38.238  23.519  1.00  0.00     0.160 HD
BRANCH  11  13
HETATM   13  C2  UNL     1      67.404  38.889  22.040  1.00  0.00     0.116 C
HETATM   14  C1  UNL     1      68.216  38.555  20.808  1.00  0.00     0.026 C
ENDBRANCH  11  13
BRANCH  10  15
HETATM   15  N2  UNL     1      67.705  36.279  24.632  1.00  0.00    -0.288 N
HETATM   16  N3  UNL     1      67.871  36.802  25.756  1.00  0.00    -0.294 N
ATOM     17  H3  UNL     1      68.249  36.201  26.489  1.00  0.00     0.187 HD
ATOM     18  H2  UNL     1      67.943  35.300  24.477  1.00  0.00     0.188 HD
BRANCH  16  19
HETATM   19  C12 UNL     1      67.591  38.127  26.113  1.00  0.00     0.116 A
HETATM   20  C13 UNL     1      66.324  38.622  26.439  1.00  0.00     0.053 A
HETATM   21  C14 UNL     1      65.040  37.872  26.477  1.00  0.00     0.072 C
HETATM   22  N4  UNL     1      66.528  39.924  26.710  1.00  0.00    -0.301 N
HETATM   23  N5  UNL     1      67.806  40.232  26.570  1.00  0.00    -0.284 N
ATOM     24  H4  UNL     1      65.799  40.582  26.985  1.00  0.00     0.186 HD
HETATM   25  C15 UNL     1      68.513  39.148  26.199  1.00  0.00     0.144 A
ATOM     26  H5  UNL     1      68.201  41.160  26.721  1.00  0.00     0.188 HD
BRANCH  25  27
HETATM   27  N6  UNL     1      69.785  39.136  25.985  1.00  0.00    -0.382 N
ATOM     28  H62 UNL     1      70.328  38.307  25.744  1.00  0.00     0.157 HD
ATOM     29  H61 UNL     1      70.461  39.900  26.011  1.00  0.00     0.157 HD
ENDBRANCH  25  27
ENDBRANCH  16  19
ENDBRANCH  10  15
ENDBRANCH   9  10
ENDBRANCH   8   9
ENDBRANCH   5   7
ENDBRANCH   1   4
TORSDOF 8
ENDMDL