MODEL 1
REMARK VINA RESULT: -8.786436143      0.000      0.000
REMARK  5 active torsions:
REMARK  status: ('A' for Active; 'I' for Inactive)
REMARK    1  A    between atoms: O1_1  and  C1_3
REMARK    2  A    between atoms: C1_3  and  C2_4
REMARK    3  A    between atoms: C2_4  and  C3_5
REMARK    4  A    between atoms: N1_10  and  N2_12
REMARK    5  A    between atoms: N2_12  and  C8_14
ROOT
HETATM    1  N2  UNL     1      63.001  33.617  25.084  1.00  0.00    -0.282 N
ATOM      2  H2  UNL     1      62.652  32.782  24.614  1.00  0.00     0.188 HD
ENDROOT
BRANCH   1   3
HETATM    3  N1  UNL     1      62.714  33.667  26.415  1.00  0.00    -0.282 N
HETATM    4  C1  UNL     1      63.156  32.740  27.189  1.00  0.00     0.130 C
ATOM      5  H1  UNL     1      62.154  34.431  26.794  1.00  0.00     0.189 HD
BRANCH   4   6
HETATM    6  O1  UNL     1      62.842  32.828  28.528  1.00  0.00    -0.348 OA
ATOM      7  H1  UNL     1      62.066  33.295  28.814  1.00  0.00     0.219 HD
ENDBRANCH   4   6
BRANCH   4   8
HETATM    8  C2  UNL     1      63.966  31.624  26.682  1.00  0.00     0.090 C
BRANCH   8   9
HETATM    9  C3  UNL     1      65.390  31.901  26.416  1.00  0.00    -0.007 C
HETATM   10  C4  UNL     1      66.209  32.437  27.538  1.00  0.00     0.005 C
HETATM   11  C5  UNL     1      67.607  32.431  26.892  1.00  0.00     0.000 C
HETATM   12  C6  UNL     1      67.574  31.306  25.881  1.00  0.00     0.000 C
HETATM   13  C7  UNL     1      66.202  30.649  26.079  1.00  0.00     0.005 C
ENDBRANCH   8   9
ENDBRANCH   4   8
ENDBRANCH   1   3
BRANCH   1  14
HETATM   14  C8  UNL     1      63.614  34.409  24.333  1.00  0.00     0.147 A
HETATM   15  N3  UNL     1      63.382  34.560  23.019  1.00  0.00    -0.283 N
HETATM   16  N4  UNL     1      64.191  35.464  22.523  1.00  0.00    -0.298 N
ATOM     17  H3  UNL     1      62.680  34.047  22.486  1.00  0.00     0.188 HD
HETATM   18  C9  UNL     1      64.995  35.950  23.495  1.00  0.00     0.063 A
ATOM     19  H4  UNL     1      64.210  35.759  21.546  1.00  0.00     0.187 HD
HETATM   20  C10 UNL     1      65.992  36.887  23.514  1.00  0.00     0.055 A
HETATM   21  C14 UNL     1      64.628  35.273  24.668  1.00  0.00     0.039 A
HETATM   22  C11 UNL     1      66.642  37.170  24.688  1.00  0.00     0.036 A
HETATM   23 CL1  UNL     1      67.921  38.370  24.720  1.00  0.00    -0.084 Cl
HETATM   24  C12 UNL     1      66.321  36.535  25.866  1.00  0.00     0.025 A
HETATM   25  C13 UNL     1      65.304  35.583  25.834  1.00  0.00     0.019 A
ENDBRANCH   1  14
TORSDOF 5
ENDMDL