MODEL 4
REMARK VINA RESULT: -6.378876858      3.419      5.799
REMARK  3 active torsions:
REMARK  status: ('A' for Active; 'I' for Inactive)
REMARK       I    between atoms: N1_2  and  C2_4
REMARK       I    between atoms: C2_4  and  N2_6
REMARK    1  A    between atoms: N2_6  and  C3_8
REMARK    2  A    between atoms: C12_19  and  N3_20
REMARK    3  A    between atoms: N3_20  and  C13_22
ROOT
HETATM    1  C3  UNL     1      67.659  35.091  26.077  1.00  0.00     0.179 A
HETATM    2  O2  UNL     1      68.312  35.575  27.110  1.00  0.00    -0.290 OA
HETATM    3  C4  UNL     1      68.095  36.854  27.291  1.00  0.00     0.098 A
HETATM    4  C5  UNL     1      68.555  37.771  28.228  1.00  0.00    -0.005 A
HETATM    5  C6  UNL     1      69.492  37.379  29.312  1.00  0.00     0.053 C
HETATM    6  C7  UNL     1      68.135  39.082  28.153  1.00  0.00     0.048 A
HETATM    7 CL1  UNL     1      68.700  40.267  29.325  1.00  0.00    -0.083 Cl
HETATM    8  C8  UNL     1      67.262  39.519  27.168  1.00  0.00    -0.039 A
HETATM    9  C9  UNL     1      66.841  40.944  27.135  1.00  0.00     0.050 C
HETATM   10  C10 UNL     1      66.825  38.581  26.253  1.00  0.00     0.025 A
HETATM   11  C11 UNL     1      67.222  37.256  26.291  1.00  0.00     0.030 A
HETATM   12  C12 UNL     1      66.953  36.135  25.531  1.00  0.00     0.093 A
ENDROOT
BRANCH   1  13
HETATM   13  N2  UNL     1      67.690  33.721  25.621  1.00  0.00    -0.287 N
HETATM   14  C2  UNL     1      66.928  32.734  26.337  1.00  0.00     0.321 C
HETATM   15  N1  UNL     1      66.916  31.382  25.944  1.00  0.00    -0.347 N
HETATM   16  O1  UNL     1      66.254  33.089  27.341  1.00  0.00    -0.247 OA
HETATM   17  C1  UNL     1      66.141  30.424  26.685  1.00  0.00     0.151 C
ATOM     18  H1  UNL     1      67.457  31.083  25.133  1.00  0.00     0.163 HD
ATOM     19  H2  UNL     1      68.244  33.459  24.806  1.00  0.00     0.172 HD
ENDBRANCH   1  13
BRANCH  12  20
HETATM   20  N3  UNL     1      66.113  36.059  24.393  1.00  0.00    -0.381 N
ATOM     21  H3  UNL     1      66.540  36.280  23.494  1.00  0.00     0.160 HD
BRANCH  20  22
HETATM   22  C13 UNL     1      64.730  35.705  24.376  1.00  0.00     0.082 A
HETATM   23  C14 UNL     1      64.041  35.021  25.507  1.00  0.00     0.027 A
HETATM   24  C15 UNL     1      64.297  34.287  24.204  1.00  0.00     0.027 A
ENDBRANCH  20  22
ENDBRANCH  12  20
TORSDOF 3
ENDMDL