MODEL 1
REMARK VINA RESULT: -7.752927273      0.000      0.000
REMARK  4 active torsions:
REMARK  status: ('A' for Active; 'I' for Inactive)
REMARK    1  A    between atoms: O1_1  and  N1_3
REMARK       I    between atoms: C1_5  and  N2_6
REMARK       I    between atoms: C1_5  and  N4_18
REMARK    2  A    between atoms: N2_6  and  N3_8
REMARK    3  A    between atoms: C2_10  and  C3_11
REMARK    4  A    between atoms: N4_18  and  C10_20
ROOT
HETATM    1  N1  UNL     1      68.043  37.304  24.151  1.00  0.00    -0.097 N
ATOM      2  H1  UNL     1      68.473  36.546  23.623  1.00  0.00     0.213 HD
HETATM    3  C1  UNL     1      67.678  37.098  25.366  1.00  0.00     0.716 C
HETATM    4  N2  UNL     1      67.894  35.810  25.920  1.00  0.00    -0.131 N
ATOM      5  H2  UNL     1      68.708  35.619  26.504  1.00  0.00     0.205 HD
HETATM    6  N4  UNL     1      67.080  38.085  26.167  1.00  0.00    -0.189 N
ATOM      7  H4  UNL     1      66.088  38.298  26.057  1.00  0.00     0.184 HD
ENDROOT
BRANCH   1   8
HETATM    8  O1  UNL     1      67.867  38.517  23.554  1.00  0.00    -0.276 OA
ATOM      9  H1  UNL     1      67.000  38.877  23.413  1.00  0.00     0.245 HD
ENDBRANCH   1   8
BRANCH   4  10
HETATM   10  N3  UNL     1      66.966  34.817  25.643  1.00  0.00    -0.301 N
HETATM   11  C2  UNL     1      66.971  33.642  26.155  1.00  0.00     0.085 C
ATOM     12  H3  UNL     1      66.222  35.040  24.981  1.00  0.00     0.186 HD
BRANCH  11  13
HETATM   13  C3  UNL     1      65.922  32.694  25.767  1.00  0.00     0.025 C
HETATM   14  C4  UNL     1      64.640  33.392  25.449  1.00  0.00     0.010 C
HETATM   15  C5  UNL     1      63.757  33.607  26.648  1.00  0.00     0.001 C
HETATM   16  C6  UNL     1      63.154  32.317  27.148  1.00  0.00     0.000 C
HETATM   17  C7  UNL     1      63.908  31.773  28.346  1.00  0.00     0.000 C
HETATM   18  C8  UNL     1      65.383  32.038  28.131  1.00  0.00     0.001 C
HETATM   19  C9  UNL     1      65.753  31.567  26.763  1.00  0.00     0.010 C
ENDBRANCH  11  13
ENDBRANCH   4  10
BRANCH   6  20
HETATM   20  C10 UNL     1      67.849  38.784  27.125  1.00  0.00     0.051 A
HETATM   21  C11 UNL     1      67.325  39.155  28.365  1.00  0.00     0.030 A
HETATM   22  C12 UNL     1      68.067  39.835  29.301  1.00  0.00     0.004 A
HETATM   23  C13 UNL     1      69.368  40.153  28.999  1.00  0.00     0.024 A
HETATM   24  C14 UNL     1      69.911  39.795  27.778  1.00  0.00     0.036 A
HETATM   25 CL1  UNL     1      71.580  40.206  27.394  1.00  0.00    -0.084 Cl
HETATM   26  C15 UNL     1      69.160  39.119  26.855  1.00  0.00     0.053 A
ENDBRANCH   6  20
TORSDOF 4
ENDMDL