MODEL 2
REMARK VINA RESULT: -6.806031272      2.642      2.890
REMARK  5 active torsions:
REMARK  status: ('A' for Active; 'I' for Inactive)
REMARK    1  A    between atoms: S1_2  and  C2_3
REMARK    2  A    between atoms: C5_6  and  O1_7
REMARK    3  A    between atoms: O1_7  and  C6_8
REMARK    4  A    between atoms: C6_8  and  N2_12
REMARK    5  A    between atoms: N2_12  and  C7_14
ROOT
HETATM    1  C6  UNL     1      64.185  34.795  24.291  1.00  0.00     0.218 C
HETATM    2  N1  UNL     1      63.981  34.140  23.203  1.00  0.00    -0.365 N
ATOM      3  H11 UNL     1      63.816  33.140  23.313  1.00  0.00     0.159 HD
ATOM      4  H12 UNL     1      63.977  34.553  22.270  1.00  0.00     0.159 HD
ENDROOT
BRANCH   1   5
HETATM    5  O1  UNL     1      64.409  36.145  24.143  1.00  0.00    -0.280 OA
BRANCH   5   6
HETATM    6  C5  UNL     1      65.533  36.819  24.570  1.00  0.00     0.081 A
HETATM    7  C4  UNL     1      66.722  36.931  23.904  1.00  0.00     0.039 A
HETATM    8  C3  UNL     1      67.794  37.641  24.440  1.00  0.00     0.023 A
HETATM    9  C2  UNL     1      67.703  38.262  25.667  1.00  0.00     0.022 A
HETATM   10  C14 UNL     1      66.504  38.152  26.341  1.00  0.00     0.053 A
HETATM   11  C13 UNL     1      65.444  37.443  25.799  1.00  0.00     0.062 A
HETATM   12 CL1  UNL     1      66.360  38.937  27.911  1.00  0.00    -0.083 Cl
BRANCH   9  13
HETATM   13  S1  UNL     1      69.081  39.178  26.362  1.00  0.00    -0.133 SA
HETATM   14  C1  UNL     1      69.014  40.922  25.931  1.00  0.00     0.095 C
ENDBRANCH   9  13
ENDBRANCH   5   6
ENDBRANCH   1   5
BRANCH   1  15
HETATM   15  N2  UNL     1      64.192  34.223  25.584  1.00  0.00    -0.352 N
ATOM     16  H2  UNL     1      63.485  34.468  26.277  1.00  0.00     0.163 HD
BRANCH  15  17
HETATM   17  C7  UNL     1      65.249  33.274  25.886  1.00  0.00     0.085 C
HETATM   18  C8  UNL     1      64.784  32.448  27.062  1.00  0.00     0.031 C
HETATM   19  C9  UNL     1      65.880  31.496  27.530  1.00  0.00     0.054 C
HETATM   20  C10 UNL     1      66.971  31.549  26.518  1.00  0.00    -0.020 C
HETATM   21  N3  UNL     1      67.325  30.479  25.901  1.00  0.00    -0.406 N
HETATM   22  C11 UNL     1      67.618  32.864  26.257  1.00  0.00     0.054 C
ATOM     23  H32 UNL     1      66.882  29.578  26.080  1.00  0.00     0.155 HD
ATOM     24  H31 UNL     1      68.072  30.516  25.208  1.00  0.00     0.155 HD
HETATM   25  C12 UNL     1      66.545  33.961  26.248  1.00  0.00     0.031 C
ENDBRANCH  15  17
ENDBRANCH   1  15
TORSDOF 5
ENDMDL