MODEL 2
REMARK VINA RESULT: -7.518190141      1.149      1.851
REMARK  5 active torsions:
REMARK  status: ('A' for Active; 'I' for Inactive)
REMARK    1  A    between atoms: C1_4  and  N2_5
REMARK    2  A    between atoms: C1_4  and  C8_13
REMARK    3  A    between atoms: N2_5  and  C2_7
REMARK    4  A    between atoms: C10_17  and  C11_18
REMARK    5  A    between atoms: C16_24  and  O1_25
ROOT
HETATM    1  C8  UNL     1      64.634  35.192  23.875  1.00  0.00     0.057 A
HETATM    2  C9  UNL     1      64.104  35.627  22.668  1.00  0.00     0.106 A
HETATM    3  N3  UNL     1      64.579  36.683  21.977  1.00  0.00    -0.366 N
ATOM      4  H3  UNL     1      64.143  36.965  21.099  1.00  0.00     0.165 HD
HETATM    5  C10 UNL     1      65.658  37.372  22.475  1.00  0.00     0.038 A
HETATM    6  C15 UNL     1      66.208  36.958  23.662  1.00  0.00     0.091 A
HETATM    7 CL1  UNL     1      67.577  37.845  24.363  1.00  0.00    -0.079 Cl
HETATM    8  C16 UNL     1      65.729  35.858  24.423  1.00  0.00     0.104 A
ENDROOT
BRANCH   1   9
HETATM    9  C1  UNL     1      63.985  34.133  24.606  1.00  0.00     0.109 C
HETATM   10  N1  UNL     1      62.673  34.104  24.699  1.00  0.00    -0.385 N
ATOM     11  H12 UNL     1      62.214  33.355  25.216  1.00  0.00     0.157 HD
ATOM     12  H11 UNL     1      62.171  34.872  24.253  1.00  0.00     0.157 HD
BRANCH   9  13
HETATM   13  N2  UNL     1      64.676  33.076  25.219  1.00  0.00    -0.371 N
ATOM     14  H2  UNL     1      65.264  32.490  24.626  1.00  0.00     0.161 HD
BRANCH  13  15
HETATM   15  C2  UNL     1      64.619  32.756  26.619  1.00  0.00     0.083 C
HETATM   16  C3  UNL     1      63.413  31.877  26.964  1.00  0.00     0.025 C
HETATM   17  C4  UNL     1      63.352  31.850  28.481  1.00  0.00     0.002 C
HETATM   18  C5  UNL     1      64.693  31.916  29.146  1.00  0.00     0.000 C
HETATM   19  C6  UNL     1      65.775  31.274  28.282  1.00  0.00     0.002 C
HETATM   20  C7  UNL     1      65.806  31.816  26.901  1.00  0.00     0.025 C
ENDBRANCH  13  15
ENDBRANCH   9  13
ENDBRANCH   1   9
BRANCH   8  21
HETATM   21  O1  UNL     1      66.365  35.587  25.571  1.00  0.00    -0.358 OA
ATOM     22  H1  UNL     1      66.769  36.202  26.172  1.00  0.00     0.217 HD
ENDBRANCH   8  21
BRANCH   5  23
HETATM   23  C11 UNL     1      66.315  38.395  21.688  1.00  0.00     0.037 C
HETATM   24  C12 UNL     1      65.685  38.827  20.372  1.00  0.00     0.011 C
HETATM   25  C13 UNL     1      67.129  38.866  19.819  1.00  0.00     0.001 C
HETATM   26  C14 UNL     1      67.290  37.591  20.691  1.00  0.00     0.011 C
ENDBRANCH   5  23
TORSDOF 5
ENDMDL