MODEL 2
REMARK VINA RESULT: -6.817444389      1.210      1.429
REMARK  3 active torsions:
REMARK  status: ('A' for Active; 'I' for Inactive)
REMARK    1  A    between atoms: C2_2  and  C3_4
REMARK    2  A    between atoms: C6_7  and  N1_8
REMARK       I    between atoms: N1_8  and  C7_10
REMARK       I    between atoms: C7_10  and  N2_12
REMARK    3  A    between atoms: N2_12  and  C8_14
ROOT
HETATM    1  N1  UNL     1      64.984  37.288  22.838  1.00  0.00    -0.307 N
ATOM      2  H1  UNL     1      64.202  37.893  23.092  1.00  0.00     0.170 HD
HETATM    3  C7  UNL     1      65.703  37.654  21.692  1.00  0.00     0.321 C
HETATM    4  O2  UNL     1      66.680  37.013  21.266  1.00  0.00    -0.247 OA
HETATM    5  N2  UNL     1      65.277  38.853  20.961  1.00  0.00    -0.338 N
ATOM      6  H2  UNL     1      64.481  39.410  21.273  1.00  0.00     0.164 HD
ENDROOT
BRANCH   1   7
HETATM    7  C6  UNL     1      65.214  36.198  23.666  1.00  0.00     0.062 A
HETATM    8  C5  UNL     1      64.504  35.042  23.605  1.00  0.00     0.032 A
HETATM    9  C4  UNL     1      64.798  33.987  24.482  1.00  0.00     0.019 A
HETATM   10  C3  UNL     1      65.790  34.050  25.428  1.00  0.00     0.033 A
HETATM   11  C15 UNL     1      66.496  35.236  25.467  1.00  0.00     0.074 A
HETATM   12  C14 UNL     1      66.232  36.282  24.626  1.00  0.00     0.095 A
HETATM   13 CL1  UNL     1      67.779  35.331  26.683  1.00  0.00    -0.081 Cl
HETATM   14  N3  UNL     1      67.012  37.465  24.739  1.00  0.00    -0.098 NA
BRANCH  10  15
HETATM   15  C2  UNL     1      66.083  32.947  26.333  1.00  0.00     0.157 C
HETATM   16  C1  UNL     1      67.056  31.906  25.935  1.00  0.00     0.097 C
HETATM   17  O1  UNL     1      65.520  32.871  27.441  1.00  0.00    -0.293 OA
ENDBRANCH  10  15
ENDBRANCH   1   7
BRANCH   5  18
HETATM   18  C8  UNL     1      66.020  39.211  19.796  1.00  0.00     0.086 C
HETATM   19  C9  UNL     1      65.066  39.241  18.620  1.00  0.00     0.025 C
HETATM   20  C10 UNL     1      65.915  39.261  17.367  1.00  0.00     0.002 C
HETATM   21  C11 UNL     1      67.192  40.012  17.617  1.00  0.00     0.000 C
HETATM   22  C12 UNL     1      66.942  41.149  18.603  1.00  0.00     0.002 C
HETATM   23  C13 UNL     1      66.680  40.573  19.965  1.00  0.00     0.025 C
ENDBRANCH   5  18
TORSDOF 3
ENDMDL