MODEL 3
REMARK VINA RESULT: -6.757143894      4.364      5.587
REMARK  6 active torsions:
REMARK  status: ('A' for Active; 'I' for Inactive)
REMARK    1  A    between atoms: C2_2  and  N1_5
REMARK    2  A    between atoms: N1_5  and  C5_7
REMARK    3  A    between atoms: C8_10  and  C9_11
REMARK    4  A    between atoms: C9_11  and  N2_12
REMARK       I    between atoms: N2_12  and  C10_13
REMARK    5  A    between atoms: C10_13  and  O2_15
REMARK    6  A    between atoms: O2_15  and  C11_16
ROOT
HETATM    1  C5  UNL     1      65.672  33.879  25.424  1.00  0.00     0.050 A
HETATM    2  C6  UNL     1      66.618  34.779  25.022  1.00  0.00     0.032 A
HETATM    3  C7  UNL     1      66.417  36.173  24.990  1.00  0.00     0.016 A
HETATM    4  C8  UNL     1      65.197  36.692  25.387  1.00  0.00    -0.005 A
HETATM    5  C15 UNL     1      64.211  35.810  25.791  1.00  0.00     0.040 A
HETATM    6  C16 UNL     1      64.447  34.468  25.805  1.00  0.00     0.061 A
HETATM    7 CL1  UNL     1      63.183  33.359  26.349  1.00  0.00    -0.082 Cl
ENDROOT
BRANCH   4   8
HETATM    8  C9  UNL     1      65.116  38.147  25.528  1.00  0.00     0.200 C
BRANCH   8   9
HETATM    9  N2  UNL     1      65.827  39.018  26.196  1.00  0.00    -0.358 NA
HETATM   10  C10 UNL     1      66.564  39.937  26.888  1.00  0.00     0.440 C
HETATM   11  O1  UNL     1      66.572  41.186  26.724  1.00  0.00    -0.221 OA
BRANCH  10  12
HETATM   12  O2  UNL     1      67.458  39.606  27.945  1.00  0.00    -0.282 OA
BRANCH  12  13
HETATM   13  C11 UNL     1      68.660  38.932  27.799  1.00  0.00     0.062 C
HETATM   14  C12 UNL     1      69.489  39.267  29.069  1.00  0.00     0.046 C
HETATM   15  C13 UNL     1      68.484  37.433  27.698  1.00  0.00     0.046 C
HETATM   16  C14 UNL     1      69.527  39.384  26.652  1.00  0.00     0.046 C
ENDBRANCH  12  13
ENDBRANCH  10  12
ENDBRANCH   8   9
ENDBRANCH   4   8
BRANCH   1  17
HETATM   17  N1  UNL     1      65.833  32.491  25.566  1.00  0.00    -0.380 N
ATOM     18  H1  UNL     1      65.301  31.950  24.885  1.00  0.00     0.160 HD
BRANCH  17  19
HETATM   19  C2  UNL     1      66.582  31.687  26.461  1.00  0.00     0.019 C
HETATM   20  C1  UNL     1      67.928  32.451  26.790  1.00  0.00     0.037 C
HETATM   21  C3  UNL     1      65.927  31.631  27.854  1.00  0.00     0.037 C
HETATM   22  C4  UNL     1      66.974  30.319  26.075  1.00  0.00     0.037 C
ENDBRANCH  17  19
ENDBRANCH   1  17
TORSDOF 6
ENDMDL