MODEL 4
REMARK VINA RESULT: -8.036129893      2.122      3.357
REMARK  6 active torsions:
REMARK  status: ('A' for Active; 'I' for Inactive)
REMARK    1  A    between atoms: C2_2  and  C3_3
REMARK    2  A    between atoms: C3_3  and  C4_4
REMARK    3  A    between atoms: C12_12  and  N1_13
REMARK    4  A    between atoms: N1_13  and  C13_15
REMARK    5  A    between atoms: C14_16  and  N2_17
REMARK    6  A    between atoms: N2_17  and  C15_19
ROOT
HETATM    1  C4  UNL     1       2.156  33.057  26.077  1.00  0.00     0.010 C
HETATM    2  C5  UNL     1       1.836  34.143  25.437  1.00  0.00     0.051 C
HETATM    3  C6  UNL     1       0.981  34.140  24.247  1.00  0.00     0.078 C
HETATM    4  C7  UNL     1       0.103  35.313  24.056  1.00  0.00    -0.012 C
HETATM    5  C8  UNL     1      -1.187  35.028  24.849  1.00  0.00     0.020 C
HETATM    6  C9  UNL     1      -0.268  35.539  22.596  1.00  0.00     0.020 C
HETATM    7  C10 UNL     1       0.691  36.564  24.548  1.00  0.00    -0.011 A
HETATM    8  C11 UNL     1       0.142  37.799  24.116  1.00  0.00     0.040 A
HETATM    9  C12 UNL     1       0.610  39.008  24.543  1.00  0.00     0.036 A
HETATM   10  C21 UNL     1       1.663  38.997  25.433  1.00  0.00     0.074 A
HETATM   11  C22 UNL     1       2.208  37.806  25.861  1.00  0.00     0.152 A
HETATM   12  F1  UNL     1       3.247  37.788  26.736  1.00  0.00    -0.203 F
HETATM   13  C23 UNL     1       1.732  36.560  25.427  1.00  0.00     0.121 A
HETATM   14  O3  UNL     1       2.325  35.390  25.891  1.00  0.00    -0.312 OA
ENDROOT
BRANCH   9  15
HETATM   15  N1  UNL     1       0.026  40.222  24.076  1.00  0.00    -0.351 N
ATOM     16  H1  UNL     1      -0.882  40.491  24.454  1.00  0.00     0.166 HD
BRANCH  15  17
HETATM   17  C13 UNL     1       0.626  41.078  23.120  1.00  0.00     0.118 A
HETATM   18  C14 UNL     1       1.711  40.923  22.285  1.00  0.00     0.115 A
HETATM   19  C19 UNL     1       1.505  42.194  21.789  1.00  0.00     0.252 A
HETATM   20  O1  UNL     1       2.035  42.952  20.940  1.00  0.00    -0.281 OA
HETATM   21  C20 UNL     1       0.423  42.347  22.621  1.00  0.00     0.253 A
HETATM   22  O2  UNL     1      -0.422  43.282  22.843  1.00  0.00    -0.281 OA
BRANCH  18  23
HETATM   23  N2  UNL     1       2.690  39.892  22.004  1.00  0.00    -0.377 N
ATOM     24  H2  UNL     1       3.576  39.892  22.508  1.00  0.00     0.160 HD
BRANCH  23  25
HETATM   25  C15 UNL     1       2.436  38.878  21.032  1.00  0.00     0.019 C
HETATM   26  C16 UNL     1       0.980  38.781  20.636  1.00  0.00     0.037 C
HETATM   27  C17 UNL     1       3.314  39.134  19.810  1.00  0.00     0.037 C
HETATM   28  C18 UNL     1       2.861  37.543  21.598  1.00  0.00     0.037 C
ENDBRANCH  23  25
ENDBRANCH  18  23
ENDBRANCH  15  17
ENDBRANCH   9  15
BRANCH   1  29
HETATM   29  C3  UNL     1       1.722  31.699  25.714  1.00  0.00     0.056 C
BRANCH  29  30
HETATM   30  C2  UNL     1       2.871  31.003  25.020  1.00  0.00    -0.033 C
HETATM   31  C1  UNL     1       4.104  31.480  25.090  1.00  0.00     0.007 C
ENDBRANCH  29  30
ENDBRANCH   1  29
TORSDOF 6
ENDMDL