MODEL 2
REMARK VINA RESULT: -9.597758594      1.412      2.368
REMARK  8 active torsions:
REMARK  status: ('A' for Active; 'I' for Inactive)
REMARK    1  A    between atoms: C5_5  and  O1_6
REMARK    2  A    between atoms: C10_12  and  O2_13
REMARK    3  A    between atoms: O2_13  and  C11_14
REMARK    4  A    between atoms: C11_14  and  C12_16
REMARK    5  A    between atoms: C12_16  and  C13_17
REMARK    6  A    between atoms: C13_17  and  C14_18
REMARK    7  A    between atoms: C14_18  and  C16_20
REMARK    8  A    between atoms: C19_23  and  O4_24
ROOT
HETATM    1  O2  UNL     1       0.077  35.089  23.689  1.00  0.00    -0.290 OA
ENDROOT
BRANCH   1   2
HETATM    2  C10 UNL     1       0.622  36.138  22.929  1.00  0.00     0.270 C
HETATM    3  C9  UNL     1      -0.249  36.330  21.705  1.00  0.00     0.062 C
HETATM    4  C8  UNL     1       0.223  37.440  20.818  1.00  0.00     0.019 C
HETATM    5  C6  UNL     1       0.728  38.627  21.570  1.00  0.00     0.012 C
HETATM    6  C5  UNL     1       1.772  39.362  20.763  1.00  0.00     0.129 C
HETATM    7  C7  UNL     1      -0.388  39.604  21.884  1.00  0.00     0.021 C
HETATM    8  C22 UNL     1       1.424  38.224  22.877  1.00  0.00     0.163 C
HETATM    9  C4  UNL     1       2.281  40.592  21.409  1.00  0.00     0.037 C
HETATM   10  C3  UNL     1       2.393  40.582  22.881  1.00  0.00     0.038 C
HETATM   11  C2  UNL     1       1.712  39.493  23.587  1.00  0.00    -0.060 C
HETATM   12  C1  UNL     1       1.352  39.620  24.842  1.00  0.00     0.017 C
HETATM   13  O5  UNL     1       0.645  37.348  23.616  1.00  0.00    -0.350 OA
BRANCH   6  14
HETATM   14  O1  UNL     1       1.270  39.687  19.503  1.00  0.00    -0.395 OA
ATOM     15  H1  UNL     1       1.872  39.368  18.840  1.00  0.00     0.210 HD
ENDBRANCH   6  14
ENDBRANCH   1   2
BRANCH   1  16
HETATM   16  C11 UNL     1       0.678  34.627  24.846  1.00  0.00     0.261 C
HETATM   17  O3  UNL     1      -0.062  34.122  25.728  1.00  0.00    -0.265 OA
BRANCH  16  18
HETATM   18  C12 UNL     1       2.139  34.705  25.082  1.00  0.00     0.112 C
BRANCH  18  19
HETATM   19  C13 UNL     1       2.645  33.536  25.884  1.00  0.00     0.019 C
BRANCH  19  20
HETATM   20  C14 UNL     1       2.773  32.324  25.005  1.00  0.00     0.015 C
HETATM   21  C15 UNL     1       1.901  31.184  25.458  1.00  0.00     0.015 C
BRANCH  20  22
HETATM   22  C16 UNL     1       4.197  31.867  25.103  1.00  0.00    -0.051 A
HETATM   23  C17 UNL     1       4.518  30.581  24.723  1.00  0.00     0.010 A
HETATM   24  C18 UNL     1       5.836  30.168  24.816  1.00  0.00     0.040 A
HETATM   25  C19 UNL     1       6.826  31.009  25.278  1.00  0.00     0.104 A
HETATM   26  C20 UNL     1       6.461  32.292  25.649  1.00  0.00     0.149 A
HETATM   27  F1  UNL     1       7.424  33.146  26.110  1.00  0.00    -0.203 F
HETATM   28  C21 UNL     1       5.154  32.740  25.569  1.00  0.00     0.052 A
BRANCH  25  29
HETATM   29  O4  UNL     1       8.161  30.620  25.383  1.00  0.00    -0.358 OA
ATOM     30  H4  UNL     1       8.701  30.825  26.138  1.00  0.00     0.217 HD
ENDBRANCH  25  29
ENDBRANCH  20  22
ENDBRANCH  19  20
ENDBRANCH  18  19
ENDBRANCH  16  18
ENDBRANCH   1  16
TORSDOF 8
ENDMDL