MODEL 3
REMARK VINA RESULT: -6.789787626      4.233      7.947
REMARK  7 active torsions:
REMARK  status: ('A' for Active; 'I' for Inactive)
REMARK    1  A    between atoms: C2_2  and  C4_4
REMARK    2  A    between atoms: C4_4  and  C5_5
REMARK    3  A    between atoms: C5_5  and  O1_7
REMARK    4  A    between atoms: C5_5  and  C7_9
REMARK    5  A    between atoms: C8_12  and  N2_13
REMARK    6  A    between atoms: N2_13  and  C9_15
REMARK    7  A    between atoms: C13_22  and  C14_23
ROOT
HETATM    1  C7  UNL     1       6.700  33.244  25.889  1.00  0.00     0.073 A
HETATM    2  N1  UNL     1       7.771  32.525  25.561  1.00  0.00    -0.192 N
ATOM      3  H1  UNL     1       8.684  32.936  25.758  1.00  0.00     0.184 HD
HETATM    4  C8  UNL     1       7.761  31.301  24.991  1.00  0.00     0.679 A
HETATM    5  N3  UNL     1       6.556  30.784  24.741  1.00  0.00    -0.185 N
ATOM      6  H3  UNL     1       6.486  29.862  24.309  1.00  0.00     0.185 HD
HETATM    7  C12 UNL     1       5.409  31.469  25.054  1.00  0.00     0.103 A
HETATM    8  S1  UNL     1       3.748  31.120  24.895  1.00  0.00    -0.069 SA
HETATM    9  C13 UNL     1       3.097  32.539  25.561  1.00  0.00     0.035 A
HETATM   10  C17 UNL     1       4.210  33.266  25.898  1.00  0.00     0.037 A
HETATM   11  C18 UNL     1       5.416  32.707  25.631  1.00  0.00     0.026 A
ENDROOT
BRANCH   1  12
HETATM   12  C5  UNL     1       6.876  34.611  26.473  1.00  0.00     0.098 C
HETATM   13  C6  UNL     1       7.036  34.591  27.942  1.00  0.00     0.053 C
BRANCH  12  14
HETATM   14  C4  UNL     1       5.911  35.581  25.869  1.00  0.00     0.048 C
BRANCH  14  15
HETATM   15  C2  UNL     1       5.830  36.936  26.483  1.00  0.00    -0.020 C
HETATM   16  C1  UNL     1       6.235  38.000  25.419  1.00  0.00     0.009 C
HETATM   17  C3  UNL     1       4.456  37.304  26.988  1.00  0.00     0.009 C
ENDBRANCH  14  15
ENDBRANCH  12  14
BRANCH  12  18
HETATM   18  O1  UNL     1       8.146  35.074  25.971  1.00  0.00    -0.384 OA
ATOM     19  H1  UNL     1       8.657  35.183  26.764  1.00  0.00     0.211 HD
ENDBRANCH  12  18
ENDBRANCH   1  12
BRANCH   4  20
HETATM   20  N2  UNL     1       8.868  30.725  24.730  1.00  0.00    -0.222 N
ATOM     21  H2  UNL     1       9.208  30.050  25.415  1.00  0.00     0.178 HD
BRANCH  20  22
HETATM   22  C9  UNL     1       9.677  30.930  23.579  1.00  0.00     0.091 C
HETATM   23  C10 UNL     1      10.399  29.724  23.082  1.00  0.00     0.032 C
HETATM   24  C11 UNL     1      10.741  31.971  23.948  1.00  0.00     0.032 C
ENDBRANCH  20  22
ENDBRANCH   4  20
BRANCH   9  25
HETATM   25  C14 UNL     1       1.665  32.920  25.745  1.00  0.00     0.056 A
HETATM   26  C15 UNL     1       1.078  33.801  24.865  1.00  0.00     0.081 A
HETATM   27  S2  UNL     1      -0.507  33.900  25.493  1.00  0.00    -0.094 SA
HETATM   28  C16 UNL     1      -0.327  32.835  26.812  1.00  0.00     0.138 A
HETATM   29  N4  UNL     1       0.934  32.459  26.703  1.00  0.00    -0.358 N
ATOM     30  H4  UNL     1       1.331  31.803  27.376  1.00  0.00     0.166 HD
ENDBRANCH   9  25
TORSDOF 7
ENDMDL