MODEL 4
REMARK VINA RESULT: -7.758777330      3.689      5.126
REMARK  5 active torsions:
REMARK  status: ('A' for Active; 'I' for Inactive)
REMARK    1  A    between atoms: S1_2  and  C2_3
REMARK    2  A    between atoms: C3_8  and  C4_9
REMARK    3  A    between atoms: C8_15  and  C9_16
REMARK    4  A    between atoms: N3_17  and  N4_19
REMARK       I    between atoms: N4_19  and  C10_21
REMARK    5  A    between atoms: C10_21  and  C11_23
ROOT
HETATM    1  C2  UNL     1       0.927  37.273  21.082  1.00  0.00     0.098 A
HETATM    2  N1  UNL     1      -0.368  36.998  20.884  1.00  0.00    -0.293 N
ATOM      3  H1  UNL     1      -0.924  37.357  20.108  1.00  0.00     0.187 HD
HETATM    4  N2  UNL     1      -0.826  36.203  21.827  1.00  0.00    -0.298 N
ATOM      5  H2  UNL     1      -1.783  35.857  21.890  1.00  0.00     0.187 HD
HETATM    6  C3  UNL     1       0.179  35.910  22.713  1.00  0.00     0.079 A
HETATM    7  C8  UNL     1       1.284  36.578  22.252  1.00  0.00     0.045 A
ENDROOT
BRANCH   7   8
HETATM    8  C9  UNL     1       2.607  36.605  22.823  1.00  0.00     0.123 C
HETATM    9  N3  UNL     1       2.919  37.482  23.708  1.00  0.00    -0.308 N
ATOM     10  H3  UNL     1       2.208  38.156  23.995  1.00  0.00     0.186 HD
BRANCH   9  11
HETATM   11  N4  UNL     1       4.181  37.557  24.295  1.00  0.00    -0.270 N
HETATM   12  C10 UNL     1       4.413  37.050  25.603  1.00  0.00     0.240 C
HETATM   13  O1  UNL     1       3.471  36.528  26.237  1.00  0.00    -0.271 OA
ATOM     14  H4  UNL     1       4.950  37.984  23.778  1.00  0.00     0.190 HD
BRANCH  12  15
HETATM   15  C11 UNL     1       5.746  37.123  26.238  1.00  0.00     0.083 C
HETATM   16  C12 UNL     1       6.732  37.676  25.263  1.00  0.00     0.014 C
HETATM   17  C13 UNL     1       8.073  37.711  25.985  1.00  0.00     0.001 C
HETATM   18  C14 UNL     1       8.529  36.299  26.110  1.00  0.00     0.000 C
HETATM   19  C15 UNL     1       7.482  35.302  26.411  1.00  0.00     0.005 C
HETATM   20  C16 UNL     1       6.165  35.820  26.847  1.00  0.00    -0.006 C
HETATM   21  C17 UNL     1       6.048  35.915  28.354  1.00  0.00     0.011 C
ENDBRANCH  12  15
ENDBRANCH   9  11
ENDBRANCH   7   8
BRANCH   1  22
HETATM   22  S1  UNL     1       2.040  38.286  20.128  1.00  0.00    -0.115 SA
HETATM   23  C1  UNL     1       1.295  38.754  18.570  1.00  0.00     0.097 C
ENDBRANCH   1  22
BRANCH   6  24
HETATM   24  C4  UNL     1       0.034  35.056  23.883  1.00  0.00     0.035 A
HETATM   25  C5  UNL     1      -1.136  34.700  24.503  1.00  0.00     0.023 A
HETATM   26  C6  UNL     1      -1.043  33.899  25.572  1.00  0.00     0.033 A
HETATM   27  C7  UNL     1       0.207  33.502  25.959  1.00  0.00     0.075 A
HETATM   28 CL1  UNL     1       0.633  32.454  27.324  1.00  0.00    -0.076 Cl
HETATM   29  S2  UNL     1       1.212  34.265  24.811  1.00  0.00    -0.076 SA
ENDBRANCH   6  24
TORSDOF 5
ENDMDL