MODEL 1
REMARK VINA RESULT: -8.365142427      0.000      0.000
REMARK  5 active torsions:
REMARK  status: ('A' for Active; 'I' for Inactive)
REMARK    1  A    between atoms: C2_2  and  C3_3
REMARK    2  A    between atoms: C3_3  and  C6_6
REMARK    3  A    between atoms: C11_14  and  C12_15
REMARK    4  A    between atoms: C12_15  and  S1_16
REMARK    5  A    between atoms: C12_15  and  C14_18
ROOT
HETATM    1  C6  UNL     1       5.547  35.991  26.718  1.00  0.00    -0.043 A
HETATM    2  C7  UNL     1       5.461  37.208  27.359  1.00  0.00     0.053 A
HETATM    3  C8  UNL     1       4.371  38.044  27.252  1.00  0.00     0.151 A
HETATM    4  F1  UNL     1       4.265  39.235  27.868  1.00  0.00    -0.203 F
HETATM    5  C9  UNL     1       3.321  37.593  26.440  1.00  0.00     0.128 A
HETATM    6  O1  UNL     1       2.243  38.313  26.274  1.00  0.00    -0.271 OA
HETATM    7  C10 UNL     1       1.244  37.920  25.522  1.00  0.00     0.296 A
HETATM    8  O2  UNL     1       0.200  38.643  25.376  1.00  0.00    -0.259 OA
HETATM    9  C11 UNL     1       1.230  36.724  24.840  1.00  0.00     0.037 A
HETATM   10  C19 UNL     1       2.346  35.929  24.983  1.00  0.00     0.029 A
HETATM   11  C20 UNL     1       3.373  36.383  25.785  1.00  0.00     0.002 A
HETATM   12  C21 UNL     1       4.499  35.580  25.930  1.00  0.00     0.022 A
ENDROOT
BRANCH   9  13
HETATM   13  C12 UNL     1       0.079  36.315  24.000  1.00  0.00     0.122 C
BRANCH  13  14
HETATM   14  S1  UNL     1      -0.153  34.501  24.154  1.00  0.00    -0.159 SA
HETATM   15  C13 UNL     1      -1.367  34.268  25.503  1.00  0.00     0.091 C
ENDBRANCH  13  14
BRANCH  13  16
HETATM   16  C14 UNL     1       0.200  36.719  22.597  1.00  0.00     0.003 A
HETATM   17  C15 UNL     1       1.111  37.621  22.092  1.00  0.00     0.036 A
HETATM   18  C16 UNL     1       0.937  37.761  20.726  1.00  0.00     0.007 A
HETATM   19  C17 UNL     1       1.726  38.642  19.824  1.00  0.00     0.068 C
HETATM   20  N1  UNL     1      -0.088  36.935  20.410  1.00  0.00    -0.348 N
HETATM   21  C18 UNL     1      -0.545  36.302  21.514  1.00  0.00     0.124 A
ATOM     22  H1  UNL     1      -0.463  36.807  19.470  1.00  0.00     0.167 HD
HETATM   23  N2  UNL     1      -1.617  35.365  21.520  1.00  0.00    -0.082 NA
ENDBRANCH  13  16
ENDBRANCH   9  13
BRANCH   1  24
HETATM   24  C3  UNL     1       6.742  35.152  26.881  1.00  0.00    -0.003 C
HETATM   25  C4  UNL     1       7.222  35.088  28.311  1.00  0.00     0.024 C
HETATM   26  C5  UNL     1       7.894  35.639  26.033  1.00  0.00     0.024 C
BRANCH  24  27
HETATM   27  C2  UNL     1       6.443  33.746  26.479  1.00  0.00    -0.023 C
HETATM   28  C1  UNL     1       7.277  33.007  25.778  1.00  0.00     0.008 C
ENDBRANCH  24  27
ENDBRANCH   1  24
TORSDOF 5
ENDMDL