MODEL 4
REMARK VINA RESULT: -8.212361274      1.710      2.412
REMARK  6 active torsions:
REMARK  status: ('A' for Active; 'I' for Inactive)
REMARK    1  A    between atoms: C2_2  and  N1_3
REMARK    2  A    between atoms: N1_3  and  N2_5
REMARK    3  A    between atoms: C3_6  and  S1_7
REMARK    4  A    between atoms: S1_7  and  C4_8
REMARK    5  A    between atoms: C4_8  and  C5_9
REMARK       I    between atoms: C5_9  and  N3_11
REMARK    6  A    between atoms: N3_11  and  C6_13
ROOT
HETATM    1  C4  UNL     1       1.688  37.075  25.299  1.00  0.00     0.184 C
ENDROOT
BRANCH   1   2
HETATM    2  S1  UNL     1       2.529  38.420  24.504  1.00  0.00    -0.099 SA
BRANCH   2   3
HETATM    3  C3  UNL     1       1.964  38.817  22.883  1.00  0.00     0.118 A
HETATM    4  N2  UNL     1       2.590  38.368  21.755  1.00  0.00    -0.222 N
HETATM    5  C17 UNL     1       1.931  38.835  20.691  1.00  0.00     0.198 A
HETATM    6  N4  UNL     1       0.891  39.580  21.079  1.00  0.00    -0.333 N
HETATM    7  S2  UNL     1       2.279  38.583  19.101  1.00  0.00    -0.039 SA
HETATM    8  C15 UNL     1       0.904  39.574  22.447  1.00  0.00     0.043 A
ATOM      9  H4  UNL     1       0.221  40.057  20.476  1.00  0.00     0.168 HD
HETATM   10  C16 UNL     1      -0.061  40.267  23.321  1.00  0.00     0.071 C
BRANCH   4  11
HETATM   11  N1  UNL     1       3.717  37.561  21.715  1.00  0.00    -0.306 N
ATOM     12  H1  UNL     1       3.599  36.549  21.682  1.00  0.00     0.186 HD
BRANCH  11  13
HETATM   13  C2  UNL     1       4.923  38.055  21.719  1.00  0.00     0.076 C
HETATM   14  C1  UNL     1       5.846  37.750  20.595  1.00  0.00     0.056 C
ENDBRANCH  11  13
ENDBRANCH   4  11
ENDBRANCH   2   3
ENDBRANCH   1   2
BRANCH   1  15
HETATM   15  C5  UNL     1       2.407  35.802  25.007  1.00  0.00     0.231 C
HETATM   16  O1  UNL     1       2.849  35.613  23.854  1.00  0.00    -0.272 OA
HETATM   17  N3  UNL     1       2.586  34.820  26.032  1.00  0.00    -0.326 N
ATOM     18  H3  UNL     1       2.224  34.978  26.973  1.00  0.00     0.169 HD
BRANCH  17  19
HETATM   19  C6  UNL     1       3.277  33.620  25.715  1.00  0.00     0.047 A
HETATM   20  C7  UNL     1       2.600  32.491  25.258  1.00  0.00    -0.033 A
HETATM   21  C8  UNL     1       1.126  32.609  25.121  1.00  0.00     0.050 C
HETATM   22  C9  UNL     1       3.291  31.340  24.956  1.00  0.00     0.033 A
HETATM   23  C10 UNL     1       4.641  31.272  25.094  1.00  0.00     0.041 A
HETATM   24 CL1  UNL     1       5.557  29.809  24.716  1.00  0.00    -0.084 Cl
HETATM   25  C11 UNL     1       5.321  32.384  25.547  1.00  0.00    -0.032 A
HETATM   26  C12 UNL     1       6.791  32.308  25.697  1.00  0.00     0.050 C
HETATM   27  C13 UNL     1       4.639  33.546  25.853  1.00  0.00    -0.027 A
HETATM   28  C14 UNL     1       5.429  34.705  26.333  1.00  0.00     0.051 C
ENDBRANCH  17  19
ENDBRANCH   1  15
TORSDOF 6
ENDMDL