MODEL 3
REMARK VINA RESULT: -7.632903947      2.061      2.343
REMARK  5 active torsions:
REMARK  status: ('A' for Active; 'I' for Inactive)
REMARK       I    between atoms: N1_2  and  C2_4
REMARK    1  A    between atoms: C2_4  and  C3_6
REMARK    2  A    between atoms: C6_11  and  O2_12
REMARK    3  A    between atoms: O2_12  and  C7_13
REMARK    4  A    between atoms: C10_16  and  N3_17
REMARK       I    between atoms: N3_17  and  C11_19
REMARK    5  A    between atoms: C11_19  and  C12_21
ROOT
HETATM    1  C7  UNL     1       3.017  34.292  25.472  1.00  0.00     0.119 A
HETATM    2  C8  UNL     1       1.773  33.905  25.076  1.00  0.00     0.048 A
HETATM    3  C9  UNL     1       0.967  34.818  24.525  1.00  0.00     0.040 A
HETATM    4  C10 UNL     1       1.457  36.094  24.399  1.00  0.00     0.079 A
HETATM    5  S1  UNL     1       3.023  35.969  25.053  1.00  0.00    -0.047 SA
ENDROOT
BRANCH   1   6
HETATM    6  O2  UNL     1       4.059  33.589  26.066  1.00  0.00    -0.300 OA
BRANCH   6   7
HETATM    7  C6  UNL     1       4.564  32.454  25.524  1.00  0.00     0.119 A
HETATM    8  C5  UNL     1       3.755  31.512  24.938  1.00  0.00     0.057 A
HETATM    9  C4  UNL     1       4.306  30.356  24.392  1.00  0.00     0.091 A
HETATM   10  N2  UNL     1       5.618  30.159  24.436  1.00  0.00    -0.359 N
HETATM   11  C3  UNL     1       6.485  31.055  25.004  1.00  0.00     0.142 A
ATOM     12  H2  UNL     1       5.996  29.303  24.030  1.00  0.00     0.165 HD
HETATM   13  C19 UNL     1       5.937  32.189  25.539  1.00  0.00     0.182 A
HETATM   14  F1  UNL     1       6.704  33.113  26.144  1.00  0.00    -0.201 F
BRANCH  11  15
HETATM   15  C2  UNL     1       7.869  30.711  24.980  1.00  0.00     0.271 C
HETATM   16  N1  UNL     1       8.754  30.940  23.926  1.00  0.00    -0.360 N
HETATM   17  C1  UNL     1      10.177  30.525  24.048  1.00  0.00     0.149 C
ATOM     18  H1  UNL     1       8.426  31.393  23.072  1.00  0.00     0.162 HD
HETATM   19  O1  UNL     1       8.372  30.138  26.012  1.00  0.00    -0.266 OA
ENDBRANCH  11  15
ENDBRANCH   6   7
ENDBRANCH   1   6
BRANCH   4  20
HETATM   20  N3  UNL     1       0.774  37.237  23.839  1.00  0.00    -0.321 N
HETATM   21  C11 UNL     1       1.068  37.608  22.511  1.00  0.00     0.226 C
HETATM   22  O3  UNL     1       1.904  36.948  21.853  1.00  0.00    -0.273 OA
ATOM     23  H3  UNL     1       0.096  37.763  24.391  1.00  0.00     0.169 HD
BRANCH  21  24
HETATM   24  C12 UNL     1       0.369  38.793  21.909  1.00  0.00     0.078 C
HETATM   25  C13 UNL     1       1.248  39.489  20.906  1.00  0.00     0.014 C
HETATM   26  C14 UNL     1       2.271  40.384  21.549  1.00  0.00     0.001 C
HETATM   27  C15 UNL     1       1.773  41.806  21.701  1.00  0.00     0.000 C
HETATM   28  C16 UNL     1       0.829  41.936  22.882  1.00  0.00     0.000 C
HETATM   29  C17 UNL     1      -0.392  41.084  22.574  1.00  0.00     0.001 C
HETATM   30  C18 UNL     1      -0.075  39.676  23.029  1.00  0.00     0.014 C
ENDBRANCH  21  24
ENDBRANCH   4  20
TORSDOF 5
ENDMDL