MODEL 3
REMARK VINA RESULT: -8.229723469      1.213      2.458
REMARK  8 active torsions:
REMARK  status: ('A' for Active; 'I' for Inactive)
REMARK    1  A    between atoms: O1_2  and  C2_3
REMARK    2  A    between atoms: C5_6  and  N1_7
REMARK    3  A    between atoms: N1_7  and  C6_9
REMARK    4  A    between atoms: C6_9  and  O2_10
REMARK    5  A    between atoms: C6_9  and  C11_15
REMARK    6  A    between atoms: O2_10  and  C7_11
REMARK       I    between atoms: C11_15  and  N2_17
REMARK    7  A    between atoms: N2_17  and  N3_19
REMARK    8  A    between atoms: N3_19  and  C12_21
ROOT
HETATM    1  C6  UNL     1       4.679  36.908  25.899  1.00  0.00     0.317 C
ENDROOT
BRANCH   1   2
HETATM    2  N1  UNL     1       4.998  35.790  26.804  1.00  0.00    -0.356 N
ATOM      3  H1  UNL     1       4.970  35.961  27.810  1.00  0.00     0.162 HD
BRANCH   2   4
HETATM    4  C5  UNL     1       5.337  34.499  26.359  1.00  0.00     0.030 A
HETATM    5  C4  UNL     1       6.612  34.003  26.404  1.00  0.00     0.032 A
HETATM    6  C3  UNL     1       6.895  32.710  25.943  1.00  0.00     0.039 A
HETATM    7  C2  UNL     1       5.916  31.893  25.434  1.00  0.00     0.068 A
HETATM    8  C21 UNL     1       4.638  32.396  25.392  1.00  0.00     0.039 A
HETATM    9  C20 UNL     1       4.354  33.663  25.841  1.00  0.00     0.032 A
BRANCH   7  10
HETATM   10  O1  UNL     1       6.224  30.615  24.985  1.00  0.00    -0.356 OA
HETATM   11  C1  UNL     1       5.249  29.748  24.486  1.00  0.00     0.210 C
ENDBRANCH   7  10
ENDBRANCH   2   4
ENDBRANCH   1   2
BRANCH   1  12
HETATM   12  O2  UNL     1       5.463  37.987  26.150  1.00  0.00    -0.348 OA
BRANCH  12  13
HETATM   13  C7  UNL     1       6.241  38.490  25.162  1.00  0.00     0.053 C
HETATM   14  C8  UNL     1       5.719  38.495  23.773  1.00  0.00     0.045 C
HETATM   15  C9  UNL     1       6.517  39.963  25.524  1.00  0.00     0.045 C
HETATM   16  C10 UNL     1       7.631  37.836  25.197  1.00  0.00     0.045 C
ENDBRANCH  12  13
ENDBRANCH   1  12
BRANCH   1  17
HETATM   17  C11 UNL     1       3.249  37.214  25.943  1.00  0.00     0.285 C
HETATM   18  O3  UNL     1       2.836  38.308  26.502  1.00  0.00    -0.267 OA
HETATM   19  N2  UNL     1       2.204  36.419  25.421  1.00  0.00    -0.266 N
ATOM     20  H2  UNL     1       2.448  35.541  24.963  1.00  0.00     0.190 HD
BRANCH  19  21
HETATM   21  N3  UNL     1       0.860  36.770  25.498  1.00  0.00    -0.302 N
ATOM     22  H3  UNL     1       0.440  36.974  26.406  1.00  0.00     0.186 HD
BRANCH  21  23
HETATM   23  C12 UNL     1       0.146  36.840  24.438  1.00  0.00     0.026 C
HETATM   24  C13 UNL     1      -0.107  38.143  23.947  1.00  0.00     0.001 C
HETATM   25  C14 UNL     1       0.274  38.710  22.616  1.00  0.00     0.040 C
HETATM   26  C15 UNL     1       0.050  37.721  21.421  1.00  0.00     0.083 C
HETATM   27  C16 UNL     1      -0.096  36.467  22.024  1.00  0.00    -0.182 C
HETATM   28  C17 UNL     1      -0.245  35.178  22.556  1.00  0.00     0.090 C
HETATM   29  C18 UNL     1      -0.171  35.379  24.113  1.00  0.00     0.043 C
HETATM   30  C19 UNL     1      -1.577  35.171  24.648  1.00  0.00     0.017 C
ENDBRANCH  21  23
ENDBRANCH  19  21
ENDBRANCH   1  17
TORSDOF 8
ENDMDL