MODEL 1
REMARK VINA RESULT: -8.053985482      0.000      0.000
REMARK  5 active torsions:
REMARK  status: ('A' for Active; 'I' for Inactive)
REMARK    1  A    between atoms: C2_2  and  S1_4
REMARK    2  A    between atoms: S1_4  and  C4_5
REMARK    3  A    between atoms: C7_11  and  N2_12
REMARK    4  A    between atoms: N2_12  and  C8_14
REMARK    5  A    between atoms: N3_17  and  C11_18
ROOT
HETATM    1  N2  UNL     1       0.578  35.887  25.295  1.00  0.00    -0.381 N
ATOM      2  H2  UNL     1       0.696  36.475  26.119  1.00  0.00     0.160 HD
ENDROOT
BRANCH   1   3
HETATM    3  C7  UNL     1       1.041  34.563  25.385  1.00  0.00     0.096 A
HETATM    4  C6  UNL     1       0.158  33.515  25.586  1.00  0.00     0.160 A
HETATM    5  C5  UNL     1       0.607  32.219  25.698  1.00  0.00     0.133 A
HETATM    6  F1  UNL     1      -1.166  33.773  25.673  1.00  0.00    -0.202 F
HETATM    7  N1  UNL     1       1.914  31.942  25.614  1.00  0.00    -0.356 N
HETATM    8  C4  UNL     1       2.807  32.915  25.421  1.00  0.00     0.097 A
ATOM      9  H1  UNL     1       2.231  30.976  25.698  1.00  0.00     0.166 HD
HETATM   10  C21 UNL     1       2.369  34.239  25.305  1.00  0.00     0.109 A
HETATM   11  N4  UNL     1       3.372  35.233  25.128  1.00  0.00    -0.097 NA
BRANCH   8  12
HETATM   12  S1  UNL     1       4.536  32.495  25.318  1.00  0.00    -0.106 SA
BRANCH  12  13
HETATM   13  C2  UNL     1       4.707  30.741  24.890  1.00  0.00     0.045 C
HETATM   14  C1  UNL     1       6.159  30.366  25.035  1.00  0.00     0.021 C
HETATM   15  C3  UNL     1       4.165  30.441  23.530  1.00  0.00     0.021 C
ENDBRANCH  12  13
ENDBRANCH   8  12
ENDBRANCH   1   3
BRANCH   1  16
HETATM   16  C8  UNL     1      -0.051  36.490  24.143  1.00  0.00     0.085 C
HETATM   17  C9  UNL     1       0.356  35.890  22.849  1.00  0.00     0.055 C
HETATM   18  C10 UNL     1       1.540  36.695  22.315  1.00  0.00     0.275 C
HETATM   19  N3  UNL     1       1.018  37.959  21.871  1.00  0.00     0.098 N
HETATM   20  C19 UNL     1       0.246  38.642  22.849  1.00  0.00     0.275 C
HETATM   21  C20 UNL     1       0.202  37.981  24.206  1.00  0.00     0.055 C
BRANCH  19  22
HETATM   22  C11 UNL     1       2.014  38.767  21.190  1.00  0.00     0.156 C
HETATM   23  C12 UNL     1       2.006  40.093  21.904  1.00  0.00     0.049 C
HETATM   24  C13 UNL     1       3.309  38.050  21.249  1.00  0.00     0.041 C
HETATM   25  C14 UNL     1       4.541  38.913  21.243  1.00  0.00     0.002 C
HETATM   26  C15 UNL     1       4.868  39.510  19.925  1.00  0.00     0.000 C
HETATM   27  C16 UNL     1       3.744  40.014  19.101  1.00  0.00     0.000 C
HETATM   28  C17 UNL     1       2.673  39.034  18.774  1.00  0.00     0.002 C
HETATM   29  C18 UNL     1       1.550  38.976  19.781  1.00  0.00     0.041 C
ENDBRANCH  19  22
ENDBRANCH   1  16
TORSDOF 5
ENDMDL