MODEL 5
REMARK VINA RESULT: -8.596295391      1.921      2.310
REMARK  5 active torsions:
REMARK  status: ('A' for Active; 'I' for Inactive)
REMARK       I    between atoms: C2_2  and  N1_4
REMARK    1  A    between atoms: N1_4  and  C3_6
REMARK    2  A    between atoms: C4_9  and  O2_10
REMARK    3  A    between atoms: O2_10  and  C5_11
REMARK    4  A    between atoms: C10_17  and  S1_18
REMARK    5  A    between atoms: S1_18  and  C11_19
ROOT
HETATM    1  C3  UNL     1       1.604  38.354  23.272  1.00  0.00     0.149 A
HETATM    2  N2  UNL     1       1.399  37.225  23.945  1.00  0.00    -0.305 N
ATOM      3  H2  UNL     1       1.575  37.093  24.942  1.00  0.00     0.171 HD
HETATM    4  C4  UNL     1       0.907  36.250  23.080  1.00  0.00     0.231 A
HETATM    5  N3  UNL     1       0.834  36.851  21.896  1.00  0.00    -0.310 N
ATOM      6  H3  UNL     1       0.507  36.398  21.043  1.00  0.00     0.170 HD
HETATM    7  C17 UNL     1       1.254  38.153  21.963  1.00  0.00     0.161 A
HETATM    8  C18 UNL     1       1.297  39.073  20.851  1.00  0.00     0.121 C
HETATM    9  N4  UNL     1       1.351  39.817  19.963  1.00  0.00    -0.190 NA
ENDROOT
BRANCH   1  10
HETATM   10  N1  UNL     1       2.104  39.597  23.791  1.00  0.00    -0.311 N
HETATM   11  C2  UNL     1       3.471  39.924  23.866  1.00  0.00     0.219 C
HETATM   12  C1  UNL     1       4.505  38.980  23.399  1.00  0.00     0.117 C
HETATM   13  O1  UNL     1       3.814  41.031  24.334  1.00  0.00    -0.274 OA
ATOM     14  H1  UNL     1       1.428  40.283  24.127  1.00  0.00     0.170 HD
ENDBRANCH   1  10
BRANCH   4  15
HETATM   15  O2  UNL     1       0.625  35.028  23.533  1.00  0.00    -0.278 OA
BRANCH  15  16
HETATM   16  C5  UNL     1       0.156  34.400  24.610  1.00  0.00     0.096 A
HETATM   17  C6  UNL     1      -1.165  34.334  24.989  1.00  0.00     0.040 A
HETATM   18  C7  UNL     1      -1.523  33.651  26.128  1.00  0.00     0.026 A
HETATM   19  C8  UNL     1      -0.585  33.022  26.914  1.00  0.00     0.035 A
HETATM   20 CL1  UNL     1      -1.116  32.174  28.346  1.00  0.00    -0.084 Cl
HETATM   21  C9  UNL     1       0.739  33.094  26.525  1.00  0.00     0.045 A
HETATM   22  C10 UNL     1       1.137  33.759  25.406  1.00  0.00     0.036 A
BRANCH  22  23
HETATM   23  S1  UNL     1       2.878  33.830  24.923  1.00  0.00    -0.122 SA
BRANCH  23  24
HETATM   24  C11 UNL     1       3.736  32.355  25.499  1.00  0.00     0.052 C
HETATM   25  C12 UNL     1       5.210  32.516  25.238  1.00  0.00     0.015 C
HETATM   26  C13 UNL     1       5.856  31.170  25.513  1.00  0.00     0.001 C
HETATM   27  C14 UNL     1       5.464  30.206  24.436  1.00  0.00     0.000 C
HETATM   28  C15 UNL     1       4.089  30.456  23.888  1.00  0.00     0.001 C
HETATM   29  C16 UNL     1       3.170  31.113  24.876  1.00  0.00     0.015 C
ENDBRANCH  23  24
ENDBRANCH  22  23
ENDBRANCH  15  16
ENDBRANCH   4  15
TORSDOF 5
ENDMDL