MODEL 2
REMARK VINA RESULT: -8.198573741      8.806     14.162
REMARK  12 active torsions:
REMARK  status: ('A' for Active; 'I' for Inactive)
REMARK    1  A    between atoms: C2_2  and  C3_3
REMARK    2  A    between atoms: C2_2  and  N2_10
REMARK    3  A    between atoms: C3_3  and  C4_4
REMARK    4  A    between atoms: C4_4  and  C5_5
REMARK    5  A    between atoms: C5_5  and  N1_6
REMARK       I    between atoms: N2_10  and  C9_12
REMARK    6  A    between atoms: C9_12  and  C10_14
REMARK    7  A    between atoms: C10_14  and  C11_15
REMARK    8  A    between atoms: C11_15  and  N3_16
REMARK    9  A    between atoms: N3_16  and  C12_17
REMARK   10  A    between atoms: C12_17  and  C13_18
REMARK   11  A    between atoms: C14_19  and  C15_20
REMARK   12  A    between atoms: C20_33  and  N8_34
ROOT
HETATM    1  N3  UNL     1      -1.592  28.160  -1.094  1.00  0.00     0.081 N
HETATM    2  N6  UNL     1      -2.382  27.024  -1.072  1.00  0.00     0.072 NA
HETATM    3  N7  UNL     1      -2.392  26.988  -2.451  1.00  0.00    -0.057 NA
HETATM    4  C20 UNL     1      -1.462  28.076  -2.497  1.00  0.00     0.519 C
ENDROOT
BRANCH   1   5
HETATM    5  C11 UNL     1      -0.394  27.924  -0.313  1.00  0.00     0.276 C
BRANCH   5   6
HETATM    6  C10 UNL     1      -0.241  26.467   0.053  1.00  0.00     0.132 C
BRANCH   6   7
HETATM    7  C9  UNL     1      -0.302  26.256   1.509  1.00  0.00     0.219 C
HETATM    8  N2  UNL     1       0.835  26.456   2.332  1.00  0.00    -0.354 N
ATOM      9  H2  UNL     1       1.713  26.752   1.905  1.00  0.00     0.163 HD
HETATM   10  O1  UNL     1      -1.368  25.892   2.073  1.00  0.00    -0.274 OA
BRANCH   8  11
HETATM   11  C2  UNL     1       0.779  26.245   3.805  1.00  0.00     0.103 C
HETATM   12  C1  UNL     1       2.004  25.419   4.146  1.00  0.00     0.036 C
BRANCH  11  13
HETATM   13  C3  UNL     1       0.759  27.573   4.418  1.00  0.00    -0.001 C
BRANCH  13  14
HETATM   14  C4  UNL     1       1.171  28.809   3.778  1.00  0.00     0.023 C
BRANCH  14  15
HETATM   15  C5  UNL     1       2.400  29.509   4.133  1.00  0.00     0.201 C
BRANCH  15  16
HETATM   16  N1  UNL     1       3.667  29.335   3.585  1.00  0.00    -0.059 N
HETATM   17  C6  UNL     1       4.504  28.290   4.059  1.00  0.00     0.277 C
HETATM   18  C7  UNL     1       4.445  30.569   3.392  1.00  0.00     0.277 C
HETATM   19  C8  UNL     1       3.416  28.939   2.137  1.00  0.00     0.277 C
ENDBRANCH  15  16
ENDBRANCH  14  15
ENDBRANCH  13  14
ENDBRANCH  11  13
ENDBRANCH   8  11
ENDBRANCH   6   7
ENDBRANCH   5   6
ENDBRANCH   1   5
BRANCH   1  20
HETATM   20  C12 UNL     1      -2.333  29.296  -0.576  1.00  0.00     0.359 C
BRANCH  20  21
HETATM   21  C13 UNL     1      -2.405  29.262   0.885  1.00  0.00    -0.074 C
HETATM   22  C14 UNL     1      -2.464  29.210   2.106  1.00  0.00    -0.069 C
BRANCH  22  23
HETATM   23  C15 UNL     1      -2.514  29.163   3.573  1.00  0.00     0.257 C
HETATM   24  N4  UNL     1      -2.844  27.834   4.027  1.00  0.00    -0.336 N
HETATM   25  C16 UNL     1      -4.051  27.589   4.723  1.00  0.00     0.241 C
ATOM     26  H4  UNL     1      -2.200  27.063   3.844  1.00  0.00     0.164 HD
HETATM   27  O2  UNL     1      -4.165  26.616   5.546  1.00  0.00    -0.271 OA
HETATM   28  C17 UNL     1      -5.202  28.489   4.484  1.00  0.00     0.172 C
HETATM   29  C18 UNL     1      -5.957  27.976   3.282  1.00  0.00     0.042 C
HETATM   30  N5  UNL     1      -4.800  29.869   4.332  1.00  0.00    -0.346 N
HETATM   31  C19 UNL     1      -3.471  30.179   4.022  1.00  0.00     0.253 C
ATOM     32  H5  UNL     1      -5.485  30.616   4.451  1.00  0.00     0.163 HD
HETATM   33  O3  UNL     1      -3.103  31.378   4.139  1.00  0.00    -0.270 OA
ENDBRANCH  22  23
ENDBRANCH  20  21
ENDBRANCH   1  20
BRANCH   4  34
HETATM   34  N8  UNL     1      -1.930  29.214  -3.266  1.00  0.00    -0.032 N
ATOM     35  H83 UNL     1      -1.804  29.028  -4.261  1.00  0.00     0.278 HD
ATOM     36  H82 UNL     1      -2.948  29.267  -3.213  1.00  0.00     0.278 HD
ATOM     37  H81 UNL     1      -1.529  30.123  -3.035  1.00  0.00     0.278 HD
ENDBRANCH   4  34
TORSDOF 12
ENDMDL