MODEL 5
REMARK VINA RESULT: -8.028347048      5.587      9.524
REMARK  10 active torsions:
REMARK  status: ('A' for Active; 'I' for Inactive)
REMARK    1  A    between atoms: C2_2  and  N1_3
REMARK       I    between atoms: C3_5  and  N3_7
REMARK       I    between atoms: C4_9  and  N5_11
REMARK    2  A    between atoms: N5_11  and  C5_13
REMARK    3  A    between atoms: C5_13  and  C6_14
REMARK    4  A    between atoms: C6_14  and  C7_15
REMARK    5  A    between atoms: C7_15  and  C8_16
REMARK       I    between atoms: C8_16  and  N6_18
REMARK    6  A    between atoms: N6_18  and  S1_20
REMARK    7  A    between atoms: S1_20  and  C9_22
REMARK    8  A    between atoms: C12_25  and  C13_26
REMARK    9  A    between atoms: C13_26  and  N7_27
REMARK   10  A    between atoms: N9_33  and  O3_34
ROOT
HETATM    1  C8  UNL     1      -1.588  28.329  -2.914  1.00  0.00     0.229 C
HETATM    2  O1  UNL     1      -2.617  28.663  -2.295  1.00  0.00    -0.273 OA
HETATM    3  N6  UNL     1      -0.591  27.582  -2.236  1.00  0.00    -0.271 N
ATOM      4  H6  UNL     1       0.250  27.313  -2.749  1.00  0.00     0.179 HD
ENDROOT
BRANCH   3   5
HETATM    5  S1  UNL     1      -0.737  27.103  -0.565  1.00  0.00     0.171 S
HETATM    6  O2  UNL     1      -0.524  25.613  -0.391  1.00  0.00    -0.228 OA
BRANCH   5   7
HETATM    7  C9  UNL     1       0.384  28.065   0.422  1.00  0.00     0.138 A
HETATM    8  C10 UNL     1      -0.028  29.188   1.109  1.00  0.00     0.045 A
HETATM    9  C11 UNL     1       0.864  29.915   1.868  1.00  0.00     0.034 A
HETATM   10  C12 UNL     1       2.197  29.532   1.957  1.00  0.00     0.077 A
HETATM   11  N9  UNL     1       2.550  28.432   1.271  1.00  0.00    -0.165 N
HETATM   12  N10 UNL     1       1.682  27.738   0.543  1.00  0.00    -0.264 N
ATOM     13  H10 UNL     1       2.019  26.911   0.048  1.00  0.00     0.190 HD
BRANCH  10  14
HETATM   14  C13 UNL     1       3.161  30.330   2.784  1.00  0.00     0.190 C
BRANCH  14  15
HETATM   15  N7  UNL     1       2.996  29.908   4.157  1.00  0.00    -0.346 N
HETATM   16  C14 UNL     1       2.292  30.576   5.114  1.00  0.00     0.109 A
HETATM   17  C15 UNL     1       2.387  29.845   6.273  1.00  0.00     0.106 A
HETATM   18  N8  UNL     1       3.130  28.752   6.037  1.00  0.00    -0.361 N
HETATM   19  C16 UNL     1       3.500  28.804   4.725  1.00  0.00     0.182 A
ATOM     20  H8  UNL     1       3.372  28.023   6.709  1.00  0.00     0.166 HD
ENDBRANCH  14  15
ENDBRANCH  10  14
BRANCH  11  21
HETATM   21  O3  UNL     1       3.873  28.005   1.324  1.00  0.00    -0.268 OA
ATOM     22  H3  UNL     1       4.231  27.531   0.583  1.00  0.00     0.247 HD
ENDBRANCH  11  21
ENDBRANCH   5   7
ENDBRANCH   3   5
BRANCH   1  23
HETATM   23  C7  UNL     1      -1.387  28.692  -4.320  1.00  0.00     0.105 C
BRANCH  23  24
HETATM   24  C6  UNL     1      -2.677  28.672  -5.073  1.00  0.00     0.029 C
BRANCH  24  25
HETATM   25  C5  UNL     1      -2.787  27.520  -6.013  1.00  0.00     0.122 C
BRANCH  25  26
HETATM   26  N5  UNL     1      -2.204  27.908  -7.307  1.00  0.00    -0.364 N
HETATM   27  C4  UNL     1      -0.937  27.358  -7.606  1.00  0.00     0.190 C
HETATM   28  N3  UNL     1      -0.049  28.037  -8.180  1.00  0.00    -0.305 N
HETATM   29  N4  UNL     1      -0.681  26.009  -7.244  1.00  0.00    -0.063 NA
HETATM   30  C3  UNL     1      -0.095  29.370  -8.617  1.00  0.00     0.190 C
ATOM     31  H3  UNL     1       0.831  27.550  -8.354  1.00  0.00     0.171 HD
HETATM   32  N1  UNL     1       0.490  29.721  -9.696  1.00  0.00    -0.365 N
HETATM   33  N2  UNL     1      -0.792  30.337  -7.861  1.00  0.00    -0.063 NA
ATOM     34  H1  UNL     1       0.454  30.691 -10.009  1.00  0.00     0.162 HD
ATOM     35  H5  UNL     1      -2.685  28.538  -7.950  1.00  0.00     0.162 HD
BRANCH  32  36
HETATM   36  C2  UNL     1       1.202  28.736 -10.470  1.00  0.00     0.118 C
HETATM   37  C1  UNL     1       1.419  29.255 -11.869  1.00  0.00     0.026 C
ENDBRANCH  32  36
ENDBRANCH  25  26
ENDBRANCH  24  25
ENDBRANCH  23  24
ENDBRANCH   1  23
TORSDOF 10
ENDMDL