MODEL 4
REMARK VINA RESULT: -8.817467843      1.344      1.581
REMARK  12 active torsions:
REMARK  status: ('A' for Active; 'I' for Inactive)
REMARK    1  A    between atoms: N1_4  and  C4_5
REMARK    2  A    between atoms: C4_5  and  C5_6
REMARK    3  A    between atoms: C9_10  and  C10_11
REMARK    4  A    between atoms: C10_11  and  C11_12
REMARK       I    between atoms: C11_12  and  N2_14
REMARK    5  A    between atoms: N2_14  and  C12_16
REMARK    6  A    between atoms: C12_16  and  C13_17
REMARK    7  A    between atoms: C12_16  and  N3_21
REMARK    8  A    between atoms: C13_17  and  C14_18
REMARK    9  A    between atoms: C14_18  and  C15_19
REMARK   10  A    between atoms: N3_21  and  N4_22
REMARK   11  A    between atoms: N3_21  and  O3_25
REMARK   12  A    between atoms: C19_30  and  C20_31
REMARK       I    between atoms: C20_31  and  N5_33
ROOT
HETATM    1  C5  UNL     1      -0.414  26.363   0.370  1.00  0.00    -0.040 A
HETATM    2  C6  UNL     1      -0.331  24.964   0.421  1.00  0.00     0.009 A
HETATM    3  C7  UNL     1       0.851  24.326   0.693  1.00  0.00     0.001 A
HETATM    4  C8  UNL     1       1.990  25.055   0.924  1.00  0.00     0.007 A
HETATM    5  C9  UNL     1       1.947  26.459   0.882  1.00  0.00    -0.049 A
HETATM    6  C16 UNL     1       0.736  27.066   0.605  1.00  0.00     0.016 A
ENDROOT
BRANCH   5   7
HETATM    7  C10 UNL     1       3.217  27.173   1.120  1.00  0.00     0.141 C
BRANCH   7   8
HETATM    8  C11 UNL     1       3.279  27.874   2.418  1.00  0.00     0.223 C
HETATM    9  O1  UNL     1       4.358  27.965   3.063  1.00  0.00    -0.273 OA
HETATM   10  N2  UNL     1       2.126  28.481   3.014  1.00  0.00    -0.340 N
ATOM     11  H2  UNL     1       1.240  28.403   2.513  1.00  0.00     0.164 HD
BRANCH  10  12
HETATM   12  C12 UNL     1       2.122  29.184   4.248  1.00  0.00     0.208 C
BRANCH  12  13
HETATM   13  C13 UNL     1       1.101  28.848   5.282  1.00  0.00     0.052 C
BRANCH  13  14
HETATM   14  C14 UNL     1       1.124  27.499   5.882  1.00  0.00     0.073 C
BRANCH  14  15
HETATM   15  C15 UNL     1       0.264  26.475   5.281  1.00  0.00     0.231 C
HETATM   16  O2  UNL     1       0.280  26.192   4.110  1.00  0.00    -0.307 OA
ENDBRANCH  14  15
ENDBRANCH  13  14
ENDBRANCH  12  13
BRANCH  12  17
HETATM   17  N3  UNL     1       2.011  30.638   4.033  1.00  0.00    -0.090 NA
BRANCH  17  18
HETATM   18  N4  UNL     1       1.858  31.333   5.235  1.00  0.00    -0.339 NA
ATOM     19  H42 UNL     1       1.731  30.640   5.973  1.00  0.00     0.173 HD
ATOM     20  H41 UNL     1       1.014  31.904   5.240  1.00  0.00     0.173 HD
ENDBRANCH  17  18
BRANCH  17  21
HETATM   21  O3  UNL     1       3.189  31.023   3.491  1.00  0.00    -0.292 OA
ATOM     22  H3  UNL     1       3.862  30.708   4.082  1.00  0.00     0.239 HD
ENDBRANCH  17  21
ENDBRANCH  12  17
ENDBRANCH  10  12
ENDBRANCH   7   8
ENDBRANCH   5   7
BRANCH   1  23
HETATM   23  C4  UNL     1      -1.709  26.936   0.038  1.00  0.00     0.166 C
BRANCH  23  24
HETATM   24  N1  UNL     1      -2.257  27.879   0.986  1.00  0.00    -0.362 N
HETATM   25  C3  UNL     1      -2.421  27.629   2.280  1.00  0.00     0.098 A
HETATM   26  C2  UNL     1      -2.937  28.543   3.205  1.00  0.00    -0.031 A
HETATM   27  C1  UNL     1      -3.081  28.142   4.630  1.00  0.00     0.050 C
HETATM   28  C19 UNL     1      -3.308  29.793   2.771  1.00  0.00     0.041 A
HETATM   29  C18 UNL     1      -3.137  30.045   1.421  1.00  0.00     0.035 A
HETATM   30  C17 UNL     1      -2.625  29.121   0.544  1.00  0.00     0.092 A
BRANCH  28  31
HETATM   31  C20 UNL     1      -3.796  30.840   3.658  1.00  0.00     0.258 C
HETATM   32  O4  UNL     1      -3.011  31.582   4.318  1.00  0.00    -0.267 OA
HETATM   33  N5  UNL     1      -5.202  31.075   3.834  1.00  0.00    -0.299 N
HETATM   34  C21 UNL     1      -5.658  30.962   5.040  1.00  0.00     0.203 C
ATOM     35  H5  UNL     1      -5.809  31.317   3.051  1.00  0.00     0.171 HD
HETATM   36  N6  UNL     1      -7.013  31.167   5.333  1.00  0.00    -0.066 NA
HETATM   37  N7  UNL     1      -4.710  30.620   6.077  1.00  0.00    -0.066 NA
ENDBRANCH  28  31
ENDBRANCH  23  24
ENDBRANCH   1  23
TORSDOF 12
ENDMDL