MODEL 3
REMARK VINA RESULT: -8.648714794      2.239      2.524
REMARK  10 active torsions:
REMARK  status: ('A' for Active; 'I' for Inactive)
REMARK    1  A    between atoms: C6_7  and  C7_8
REMARK    2  A    between atoms: C7_8  and  N2_9
REMARK       I    between atoms: C8_11  and  N3_12
REMARK       I    between atoms: C8_11  and  N4_21
REMARK    3  A    between atoms: N3_12  and  C9_14
REMARK    4  A    between atoms: C9_14  and  C10_15
REMARK    5  A    between atoms: C10_15  and  O1_16
REMARK    6  A    between atoms: O1_16  and  C11_17
REMARK    7  A    between atoms: C11_17  and  C12_18
REMARK    8  A    between atoms: C12_18  and  O2_19
REMARK    9  A    between atoms: N4_21  and  C13_23
REMARK   10  A    between atoms: C13_23  and  C14_24
REMARK       I    between atoms: C14_24  and  N5_26
ROOT
HETATM    1  N2  UNL     1      -2.371  27.473   1.344  1.00  0.00    -0.200 N
ATOM      2  H2  UNL     1      -2.687  26.504   1.312  1.00  0.00     0.183 HD
HETATM    3  C8  UNL     1      -2.912  28.222   2.235  1.00  0.00     0.674 C
HETATM    4  N3  UNL     1      -2.584  29.593   2.411  1.00  0.00    -0.224 N
ATOM      5  H3  UNL     1      -1.716  29.863   2.873  1.00  0.00     0.177 HD
HETATM    6  N4  UNL     1      -3.888  27.650   3.088  1.00  0.00    -0.217 N
ATOM      7  H4  UNL     1      -4.605  27.047   2.685  1.00  0.00     0.178 HD
ENDROOT
BRANCH   1   8
HETATM    8  C7  UNL     1      -1.393  27.841   0.408  1.00  0.00     0.136 C
BRANCH   8   9
HETATM    9  C6  UNL     1      -0.078  27.229   0.604  1.00  0.00     0.057 A
HETATM   10  N1  UNL     1       0.213  25.944   0.410  1.00  0.00    -0.360 N
HETATM   11  C1  UNL     1      -0.787  24.962  -0.046  1.00  0.00     0.156 C
HETATM   12  C2  UNL     1       1.486  25.515   0.641  1.00  0.00     0.091 A
HETATM   13  C3  UNL     1       2.508  26.322   1.067  1.00  0.00     0.026 A
HETATM   14  C4  UNL     1       2.223  27.632   1.268  1.00  0.00    -0.022 A
HETATM   15  C5  UNL     1       0.948  28.071   1.038  1.00  0.00    -0.020 A
HETATM   16  C20 UNL     1       3.217  28.637   1.730  1.00  0.00     0.275 C
HETATM   17  C16 UNL     1       0.732  29.530   1.276  1.00  0.00     0.069 C
HETATM   18  C17 UNL     1       1.327  29.868   2.596  1.00  0.00     0.241 C
HETATM   19  N8  UNL     1       2.635  29.364   2.830  1.00  0.00    -0.071 N
HETATM   20  C18 UNL     1       3.577  30.447   3.156  1.00  0.00     0.272 C
HETATM   21  C19 UNL     1       2.632  28.475   3.980  1.00  0.00     0.272 C
ENDBRANCH   8   9
ENDBRANCH   1   8
BRANCH   4  22
HETATM   22  C9  UNL     1      -3.520  30.616   1.914  1.00  0.00     0.164 C
BRANCH  22  23
HETATM   23  C10 UNL     1      -4.207  31.303   3.048  1.00  0.00     0.188 C
BRANCH  23  24
HETATM   24  O1  UNL     1      -4.702  32.530   2.653  1.00  0.00    -0.387 OA
BRANCH  24  25
HETATM   25  C11 UNL     1      -6.079  32.635   2.651  1.00  0.00     0.193 C
BRANCH  25  26
HETATM   26  C12 UNL     1      -6.432  34.116   2.865  1.00  0.00     0.190 C
BRANCH  26  27
HETATM   27  O2  UNL     1      -6.809  34.367   4.165  1.00  0.00    -0.399 OA
ATOM     28  H2  UNL     1      -7.719  34.139   4.318  1.00  0.00     0.209 HD
ENDBRANCH  26  27
ENDBRANCH  25  26
ENDBRANCH  24  25
ENDBRANCH  23  24
ENDBRANCH  22  23
ENDBRANCH   4  22
BRANCH   6  29
HETATM   29  C13 UNL     1      -3.895  27.893   4.506  1.00  0.00     0.241 C
BRANCH  29  30
HETATM   30  C14 UNL     1      -3.294  26.773   5.269  1.00  0.00     0.241 C
HETATM   31  O3  UNL     1      -3.829  25.634   5.248  1.00  0.00    -0.271 OA
HETATM   32  N5  UNL     1      -2.122  27.010   6.011  1.00  0.00    -0.302 N
HETATM   33  C15 UNL     1      -0.937  26.975   5.534  1.00  0.00     0.203 C
ATOM     34  H5  UNL     1      -2.226  27.225   7.002  1.00  0.00     0.171 HD
HETATM   35  N6  UNL     1       0.159  27.230   6.372  1.00  0.00    -0.066 NA
HETATM   36  N7  UNL     1      -0.742  26.681   4.170  1.00  0.00    -0.066 NA
ENDBRANCH  29  30
ENDBRANCH   6  29
TORSDOF 10
ENDMDL