MODEL 2
REMARK VINA RESULT: -8.986452561      1.180      1.557
REMARK  10 active torsions:
REMARK  status: ('A' for Active; 'I' for Inactive)
REMARK    1  A    between atoms: C2_2  and  N1_3
REMARK    2  A    between atoms: C4_5  and  C5_6
REMARK    3  A    between atoms: C5_6  and  N2_7
REMARK    4  A    between atoms: C11_16  and  C12_17
REMARK    5  A    between atoms: C12_17  and  C13_18
REMARK       I    between atoms: C13_18  and  N5_20
REMARK    6  A    between atoms: N5_20  and  C14_22
REMARK    7  A    between atoms: C14_22  and  C15_23
REMARK    8  A    between atoms: N6_24  and  N7_26
REMARK    9  A    between atoms: C16_31  and  S1_32
REMARK   10  A    between atoms: S1_32  and  N9_33
ROOT
HETATM    1  N1  UNL     1       1.144  26.430   2.248  1.00  0.00    -0.355 N
HETATM    2  C3  UNL     1       2.135  26.714   3.180  1.00  0.00     0.100 A
HETATM    3  C4  UNL     1       2.623  27.944   3.478  1.00  0.00    -0.024 A
HETATM    4  C7  UNL     1       2.099  28.984   2.810  1.00  0.00     0.024 A
HETATM    5  C8  UNL     1       1.120  28.782   1.885  1.00  0.00    -0.007 A
HETATM    6  C9  UNL     1       0.656  29.861   1.150  1.00  0.00     0.014 A
HETATM    7  C10 UNL     1      -0.252  29.708   0.181  1.00  0.00     0.014 A
HETATM    8  C11 UNL     1      -0.756  28.425  -0.093  1.00  0.00    -0.005 A
HETATM    9  C16 UNL     1      -0.344  27.303   0.614  1.00  0.00     0.117 A
HETATM   10  C17 UNL     1       0.635  27.491   1.610  1.00  0.00     0.069 A
ENDROOT
BRANCH   8  11
HETATM   11  C12 UNL     1      -1.611  28.360  -1.253  1.00  0.00     0.087 C
BRANCH  11  12
HETATM   12  C13 UNL     1      -1.223  28.498  -2.627  1.00  0.00     0.242 C
HETATM   13  O1  UNL     1      -0.229  27.853  -3.100  1.00  0.00    -0.269 OA
HETATM   14  N5  UNL     1      -1.888  29.353  -3.579  1.00  0.00    -0.353 N
ATOM     15  H5  UNL     1      -2.709  29.886  -3.291  1.00  0.00     0.163 HD
BRANCH  14  16
HETATM   16  C14 UNL     1      -1.393  29.462  -4.960  1.00  0.00     0.169 C
BRANCH  16  17
HETATM   17  C15 UNL     1      -2.391  28.798  -5.859  1.00  0.00     0.101 C
HETATM   18  N6  UNL     1      -2.067  27.694  -6.449  1.00  0.00    -0.300 N
ATOM     19  H6  UNL     1      -2.743  27.236  -7.061  1.00  0.00     0.187 HD
BRANCH  18  20
HETATM   20  N7  UNL     1      -0.801  27.112  -6.261  1.00  0.00    -0.250 N
HETATM   21  N8  UNL     1      -0.378  26.098  -6.881  1.00  0.00    -0.331 N
ATOM     22  H82 UNL     1      -1.013  25.683  -7.563  1.00  0.00     0.178 HD
ATOM     23  H81 UNL     1       0.540  25.677  -6.745  1.00  0.00     0.178 HD
ATOM     24  H7  UNL     1      -0.180  27.541  -5.575  1.00  0.00     0.207 HD
ENDBRANCH  18  20
ENDBRANCH  16  17
ENDBRANCH  14  16
ENDBRANCH  11  12
ENDBRANCH   8  11
BRANCH   9  25
HETATM   25  S1  UNL     1      -1.204  25.834   0.661  1.00  0.00     0.259 S
HETATM   26  O2  UNL     1      -2.076  25.611   1.966  1.00  0.00    -0.201 OA
HETATM   27  O3  UNL     1      -2.577  26.356   0.112  1.00  0.00    -0.201 OA
BRANCH  25  28
HETATM   28  N9  UNL     1      -1.001  24.562  -0.348  1.00  0.00    -0.324 N
ATOM     29  H92 UNL     1      -0.045  24.220  -0.444  1.00  0.00     0.169 HD
ATOM     30  H91 UNL     1      -1.734  24.091  -0.880  1.00  0.00     0.169 HD
ENDBRANCH  25  28
ENDBRANCH   9  25
BRANCH   1  31
HETATM   31  C2  UNL     1       0.952  25.095   1.822  1.00  0.00     0.124 C
HETATM   32  C1  UNL     1       2.233  24.596   1.044  1.00  0.00     0.027 C
ENDBRANCH   1  31
BRANCH   3  33
HETATM   33  C5  UNL     1       3.677  28.121   4.489  1.00  0.00     0.162 C
BRANCH  33  34
HETATM   34  N2  UNL     1       3.230  29.162   5.424  1.00  0.00    -0.363 N
HETATM   35  C6  UNL     1       2.641  28.867   6.528  1.00  0.00     0.197 C
HETATM   36  N3  UNL     1       2.395  27.541   6.901  1.00  0.00    -0.067 NA
HETATM   37  N4  UNL     1       2.219  29.899   7.411  1.00  0.00    -0.067 NA
ATOM     38  H2  UNL     1       3.391  30.142   5.192  1.00  0.00     0.162 HD
ENDBRANCH  33  34
ENDBRANCH   3  33
TORSDOF 10
ENDMDL