MODEL 2
REMARK VINA RESULT: -8.250402159      2.046      3.586
REMARK  14 active torsions:
REMARK  status: ('A' for Active; 'I' for Inactive)
REMARK    1  A    between atoms: N1_5  and  C5_6
REMARK    2  A    between atoms: C5_6  and  C6_7
REMARK    3  A    between atoms: C6_7  and  N2_8
REMARK       I    between atoms: N2_8  and  C7_10
REMARK    4  A    between atoms: C7_10  and  C8_12
REMARK    5  A    between atoms: C8_12  and  N3_13
REMARK    6  A    between atoms: C8_12  and  C9_17
REMARK    7  A    between atoms: C9_17  and  C10_18
REMARK    8  A    between atoms: C10_18  and  N4_19
REMARK    9  A    between atoms: C10_18  and  C11_23
REMARK   10  A    between atoms: C11_23  and  C12_24
REMARK   11  A    between atoms: N6_29  and  C15_30
REMARK   12  A    between atoms: C15_30  and  C16_31
REMARK   13  A    between atoms: C16_31  and  O2_32
REMARK   14  A    between atoms: C16_31  and  N7_34
REMARK       I    between atoms: N7_34  and  C17_35
ROOT
HETATM    1  C10 UNL     1      -0.340  27.946   6.255  1.00  0.00     0.190 C
ENDROOT
BRANCH   1   2
HETATM    2  C9  UNL     1       1.097  28.295   6.370  1.00  0.00     0.075 C
BRANCH   2   3
HETATM    3  C8  UNL     1       1.466  29.713   6.208  1.00  0.00     0.276 C
BRANCH   3   4
HETATM    4  C7  UNL     1       2.149  29.895   4.880  1.00  0.00     0.248 C
HETATM    5  N2  UNL     1       2.695  28.810   4.179  1.00  0.00    -0.358 N
ATOM      6  H2  UNL     1       2.615  27.889   4.612  1.00  0.00     0.162 HD
HETATM    7  O1  UNL     1       2.198  31.068   4.443  1.00  0.00    -0.271 OA
BRANCH   5   8
HETATM    8  C6  UNL     1       3.357  28.880   2.906  1.00  0.00     0.143 C
BRANCH   8   9
HETATM    9  C5  UNL     1       3.375  27.533   2.251  1.00  0.00     0.148 C
BRANCH   9  10
HETATM   10  N1  UNL     1       2.081  27.230   1.655  1.00  0.00    -0.359 N
HETATM   11  C4  UNL     1       1.599  28.003   0.675  1.00  0.00     0.091 A
HETATM   12  C3  UNL     1       0.394  27.743   0.065  1.00  0.00     0.024 A
HETATM   13  C2  UNL     1      -0.365  26.661   0.452  1.00  0.00    -0.059 A
HETATM   14  C1  UNL     1      -1.668  26.326  -0.177  1.00  0.00     0.048 C
HETATM   15  C21 UNL     1       0.159  25.874   1.477  1.00  0.00     0.031 A
HETATM   16  C19 UNL     1       1.392  26.174   2.071  1.00  0.00     0.007 A
HETATM   17  C20 UNL     1       1.874  25.288   3.130  1.00  0.00     0.068 C
ENDBRANCH   9  10
ENDBRANCH   8   9
ENDBRANCH   5   8
ENDBRANCH   3   4
BRANCH   3  18
HETATM   18  N3  UNL     1       0.433  30.688   6.346  1.00  0.00    -0.066 N
ATOM     19  H33 UNL     1       0.786  31.577   6.703  1.00  0.00     0.275 HD
ATOM     20  H32 UNL     1       0.091  31.019   5.444  1.00  0.00     0.275 HD
ATOM     21  H31 UNL     1      -0.315  30.309   6.926  1.00  0.00     0.275 HD
ENDBRANCH   3  18
ENDBRANCH   2   3
ENDBRANCH   1   2
BRANCH   1  22
HETATM   22  N4  UNL     1      -0.875  27.312   7.442  1.00  0.00    -0.075 N
ATOM     23  H43 UNL     1      -1.346  27.995   8.037  1.00  0.00     0.274 HD
ATOM     24  H42 UNL     1      -1.670  26.716   7.207  1.00  0.00     0.274 HD
ATOM     25  H41 UNL     1      -0.177  26.790   7.973  1.00  0.00     0.274 HD
ENDBRANCH   1  22
BRANCH   1  26
HETATM   26  C11 UNL     1      -0.697  27.168   5.018  1.00  0.00     0.074 C
BRANCH  26  27
HETATM   27  C12 UNL     1      -1.438  28.000   4.048  1.00  0.00    -0.025 A
HETATM   28  C13 UNL     1      -0.789  29.000   3.340  1.00  0.00     0.097 A
HETATM   29  N5  UNL     1      -1.484  29.770   2.470  1.00  0.00    -0.361 N
HETATM   30  C14 UNL     1      -2.795  29.602   2.259  1.00  0.00     0.182 A
ATOM     31  H5  UNL     1      -0.992  30.504   1.958  1.00  0.00     0.166 HD
HETATM   32  N6  UNL     1      -3.466  28.655   2.914  1.00  0.00    -0.344 N
HETATM   33  C18 UNL     1      -2.782  27.872   3.792  1.00  0.00     0.100 A
BRANCH  32  34
HETATM   34  C15 UNL     1      -4.858  28.390   2.780  1.00  0.00     0.229 C
BRANCH  34  35
HETATM   35  C16 UNL     1      -5.596  29.725   2.742  1.00  0.00     0.211 C
BRANCH  35  36
HETATM   36  O2  UNL     1      -6.240  29.970   1.621  1.00  0.00    -0.338 OA
ATOM     37  H2  UNL     1      -7.187  29.993   1.700  1.00  0.00     0.220 HD
ENDBRANCH  35  36
BRANCH  35  38
HETATM   38  N7  UNL     1      -5.627  30.600   3.698  1.00  0.00    -0.353 NA
HETATM   39  C17 UNL     1      -5.542  31.322   4.623  1.00  0.00     0.277 C
HETATM   40  N8  UNL     1      -4.520  31.116   5.646  1.00  0.00    -0.052 NA
HETATM   41  N9  UNL     1      -6.396  32.467   4.873  1.00  0.00    -0.052 NA
ENDBRANCH  35  38
ENDBRANCH  34  35
ENDBRANCH  32  34
ENDBRANCH  26  27
ENDBRANCH   1  26
TORSDOF 14
ENDMDL