MODEL 3
REMARK VINA RESULT: -7.538947224      1.366      1.697
REMARK  13 active torsions:
REMARK  status: ('A' for Active; 'I' for Inactive)
REMARK    1  A    between atoms: C9_10  and  S1_11
REMARK    2  A    between atoms: S1_11  and  C10_12
REMARK    3  A    between atoms: C10_12  and  C11_13
REMARK    4  A    between atoms: C10_12  and  N3_19
REMARK    5  A    between atoms: C11_13  and  C12_14
REMARK    6  A    between atoms: C12_14  and  N2_15
REMARK    7  A    between atoms: N3_19  and  C13_21
REMARK    8  A    between atoms: C13_21  and  C14_22
REMARK    9  A    between atoms: C16_24  and  C17_25
REMARK   10  A    between atoms: C20_32  and  N5_33
REMARK   11  A    between atoms: N5_33  and  C21_35
REMARK   12  A    between atoms: C21_35  and  C22_36
REMARK   13  A    between atoms: C22_36  and  N6_37
ROOT
HETATM    1  C1  UNL     1      -4.578  31.241   2.612  1.00  0.00     0.019 C
HETATM    2  C2  UNL     1      -3.543  30.617   2.695  1.00  0.00    -0.059 C
HETATM    3  C3  UNL     1      -2.332  29.854   2.794  1.00  0.00     0.088 A
HETATM    4  C4  UNL     1      -1.756  29.447   1.600  1.00  0.00     0.055 A
HETATM    5  C5  UNL     1      -0.600  28.718   1.623  1.00  0.00     0.023 A
HETATM    6  C6  UNL     1      -0.038  28.402   2.867  1.00  0.00     0.008 A
HETATM    7  C7  UNL     1      -0.643  28.827   4.031  1.00  0.00     0.104 A
HETATM    8  N1  UNL     1      -1.775  29.543   3.977  1.00  0.00    -0.353 N
HETATM    9  C8  UNL     1      -2.421  29.998   5.213  1.00  0.00     0.156 C
HETATM   10  C9  UNL     1       1.021  27.666   3.152  1.00  0.00     0.017 C
HETATM   11  C16 UNL     1       1.973  26.907   2.322  1.00  0.00     0.188 C
HETATM   12  C19 UNL     1       2.058  27.373   0.905  1.00  0.00     0.239 C
HETATM   13  O2  UNL     1       3.201  27.488   0.367  1.00  0.00    -0.272 OA
HETATM   14  N4  UNL     1       0.987  27.724   0.021  1.00  0.00    -0.312 N
ATOM     15  H4  UNL     1       1.066  27.426  -0.951  1.00  0.00     0.170 HD
HETATM   16  C20 UNL     1      -0.183  28.459   0.388  1.00  0.00     0.115 C
ENDROOT
BRANCH  16  17
HETATM   17  N5  UNL     1      -0.973  28.964  -0.701  1.00  0.00    -0.374 N
ATOM     18  H5  UNL     1      -1.601  29.755  -0.553  1.00  0.00     0.161 HD
BRANCH  17  19
HETATM   19  C21 UNL     1      -0.875  28.351  -2.003  1.00  0.00     0.148 C
BRANCH  19  20
HETATM   20  C22 UNL     1      -2.135  28.382  -2.806  1.00  0.00     0.249 C
BRANCH  20  21
HETATM   21  N6  UNL     1      -2.006  29.451  -3.803  1.00  0.00    -0.078 N
ATOM     22  H63 UNL     1      -2.572  30.270  -3.581  1.00  0.00     0.274 HD
ATOM     23  H62 UNL     1      -1.093  29.905  -3.781  1.00  0.00     0.274 HD
ATOM     24  H61 UNL     1      -2.228  29.054  -4.717  1.00  0.00     0.274 HD
ENDBRANCH  20  21
ENDBRANCH  19  20
ENDBRANCH  17  19
ENDBRANCH  16  17
BRANCH  10  25
HETATM   25  S1  UNL     1       1.396  27.526   4.925  1.00  0.00    -0.079 SA
BRANCH  25  26
HETATM   26  C10 UNL     1       2.636  28.187   5.689  1.00  0.00     0.049 C
BRANCH  26  27
HETATM   27  C11 UNL     1       2.346  28.977   6.931  1.00  0.00     0.091 C
BRANCH  27  28
HETATM   28  C12 UNL     1       2.630  30.437   6.784  1.00  0.00     0.236 C
BRANCH  28  29
HETATM   29  N2  UNL     1       1.642  31.009   5.858  1.00  0.00    -0.079 N
ATOM     30  H23 UNL     1       1.842  30.786   4.883  1.00  0.00     0.274 HD
ATOM     31  H22 UNL     1       0.732  30.550   5.920  1.00  0.00     0.274 HD
ATOM     32  H21 UNL     1       1.587  32.013   6.028  1.00  0.00     0.274 HD
ENDBRANCH  28  29
ENDBRANCH  27  28
ENDBRANCH  26  27
BRANCH  26  33
HETATM   33  N3  UNL     1       3.991  28.085   5.289  1.00  0.00    -0.384 N
ATOM     34  H3  UNL     1       4.668  27.784   5.991  1.00  0.00     0.160 HD
BRANCH  33  35
HETATM   35  C13 UNL     1       4.484  28.373   3.971  1.00  0.00     0.146 C
BRANCH  35  36
HETATM   36  C14 UNL     1       4.416  29.832   3.672  1.00  0.00    -0.018 C
HETATM   37  C15 UNL     1       3.548  30.347   2.822  1.00  0.00     0.008 C
ENDBRANCH  35  36
ENDBRANCH  33  35
ENDBRANCH  26  33
ENDBRANCH  25  26
ENDBRANCH  10  25
BRANCH  11  38
HETATM   38  C17 UNL     1       1.672  25.420   2.313  1.00  0.00     0.141 C
HETATM   39  C18 UNL     1       2.151  24.628   1.157  1.00  0.00     0.092 C
HETATM   40  O1  UNL     1       1.061  24.867   3.205  1.00  0.00    -0.297 OA
ENDBRANCH  11  38
TORSDOF 13
ENDMDL