MODEL 4
REMARK VINA RESULT: -9.405057777      1.512      1.834
REMARK  9 active torsions:
REMARK  status: ('A' for Active; 'I' for Inactive)
REMARK    1  A    between atoms: S1_2  and  C2_4
REMARK    2  A    between atoms: C2_4  and  C3_5
REMARK    3  A    between atoms: C3_5  and  C4_6
REMARK    4  A    between atoms: C4_6  and  N1_7
REMARK    5  A    between atoms: C4_6  and  C14_32
REMARK       I    between atoms: N1_7  and  C5_9
REMARK    6  A    between atoms: C5_9  and  C6_11
REMARK       I    between atoms: N4_16  and  C8_18
REMARK    7  A    between atoms: C9_25  and  C10_26
REMARK    8  A    between atoms: C10_26  and  C11_27
REMARK    9  A    between atoms: C11_27  and  C12_28
ROOT
HETATM    1  C6  UNL     1      -2.691  29.293   0.135  1.00  0.00     0.125 C
HETATM    2  N2  UNL     1      -2.937  29.592  -1.092  1.00  0.00    -0.280 N
ATOM      3  H2  UNL     1      -3.634  30.179  -1.549  1.00  0.00     0.187 HD
HETATM    4  N3  UNL     1      -1.905  28.821  -1.546  1.00  0.00    -0.107 N
HETATM    5  C7  UNL     1      -0.946  28.057  -2.255  1.00  0.00     0.702 C
HETATM    6  N4  UNL     1      -0.667  28.112  -3.495  1.00  0.00    -0.162 N
ATOM      7  H4  UNL     1       0.058  27.474  -3.820  1.00  0.00     0.187 HD
HETATM    8  C8  UNL     1      -1.240  28.945  -4.470  1.00  0.00     0.200 C
HETATM    9  N5  UNL     1      -2.252  29.686  -4.200  1.00  0.00    -0.373 N
ATOM     10  H51 UNL     1      -2.669  30.291  -4.908  1.00  0.00     0.158 HD
ATOM     11  H52 UNL     1      -2.669  29.690  -3.269  1.00  0.00     0.158 HD
HETATM   12  N6  UNL     1      -0.661  28.939  -5.762  1.00  0.00    -0.063 NA
HETATM   13  N7  UNL     1      -0.300  27.158  -1.312  1.00  0.00    -0.195 N
ATOM     14  H7  UNL     1       0.416  26.464  -1.526  1.00  0.00     0.184 HD
HETATM   15  C9  UNL     1      -0.826  27.419  -0.112  1.00  0.00     0.036 C
HETATM   16  C13 UNL     1      -1.510  28.666  -0.166  1.00  0.00     0.229 C
ENDROOT
BRANCH   1  17
HETATM   17  C5  UNL     1      -3.430  29.750   1.355  1.00  0.00     0.272 C
HETATM   18  N1  UNL     1      -4.032  28.849   2.250  1.00  0.00    -0.321 N
ATOM     19  H1  UNL     1      -3.895  27.872   1.990  1.00  0.00     0.169 HD
HETATM   20  O2  UNL     1      -3.496  30.972   1.553  1.00  0.00    -0.266 OA
BRANCH  18  21
HETATM   21  C4  UNL     1      -4.777  29.009   3.419  1.00  0.00     0.042 C
BRANCH  21  22
HETATM   22  C3  UNL     1      -4.281  28.623   4.747  1.00  0.00     0.016 C
BRANCH  22  23
HETATM   23  C2  UNL     1      -3.543  29.527   5.624  1.00  0.00     0.137 C
BRANCH  23  24
HETATM   24  S1  UNL     1      -1.762  29.201   5.393  1.00  0.00     0.014 S
HETATM   25  C1  UNL     1      -0.863  29.960   6.699  1.00  0.00     0.127 C
HETATM   26  O1  UNL     1      -1.316  29.728   3.872  1.00  0.00    -0.258 OA
ENDBRANCH  23  24
ENDBRANCH  22  23
ENDBRANCH  21  22
BRANCH  21  27
HETATM   27  C14 UNL     1      -6.230  28.847   3.197  1.00  0.00    -0.010 A
HETATM   28  C15 UNL     1      -6.970  29.923   2.770  1.00  0.00     0.013 A
HETATM   29  C16 UNL     1      -8.322  29.836   2.527  1.00  0.00     0.001 A
HETATM   30  C17 UNL     1      -8.978  28.625   2.715  1.00  0.00     0.000 A
HETATM   31  C18 UNL     1      -8.249  27.536   3.142  1.00  0.00     0.001 A
HETATM   32  C19 UNL     1      -6.883  27.654   3.380  1.00  0.00     0.013 A
ENDBRANCH  21  27
ENDBRANCH  18  21
ENDBRANCH   1  17
BRANCH  15  33
HETATM   33  C10 UNL     1      -0.426  26.648   1.084  1.00  0.00     0.064 C
BRANCH  33  34
HETATM   34  C11 UNL     1      -1.460  26.599   2.168  1.00  0.00     0.105 C
BRANCH  34  35
HETATM   35  C12 UNL     1      -2.516  25.608   1.622  1.00  0.00     0.231 C
HETATM   36  N8  UNL     1      -1.916  24.371   1.218  1.00  0.00    -0.062 NA
HETATM   37  O3  UNL     1      -3.675  25.836   1.546  1.00  0.00    -0.277 OA
ENDBRANCH  34  35
ENDBRANCH  33  34
ENDBRANCH  15  33
TORSDOF 9
ENDMDL