MODEL 3
REMARK VINA RESULT: -8.292450174      2.343      4.137
REMARK  13 active torsions:
REMARK  status: ('A' for Active; 'I' for Inactive)
REMARK    1  A    between atoms: C3_3  and  N1_4
REMARK       I    between atoms: N1_4  and  C4_6
REMARK    2  A    between atoms: C4_6  and  C5_8
REMARK    3  A    between atoms: C5_8  and  O3_10
REMARK    4  A    between atoms: O3_10  and  C6_11
REMARK    5  A    between atoms: C11_16  and  C12_17
REMARK    6  A    between atoms: C12_17  and  C13_18
REMARK    7  A    between atoms: C13_18  and  N2_19
REMARK    8  A    between atoms: N2_19  and  C14_21
REMARK    9  A    between atoms: C14_21  and  C15_22
REMARK   10  A    between atoms: C15_22  and  C16_23
REMARK   11  A    between atoms: C19_26  and  C20_27
REMARK   12  A    between atoms: N3_28  and  O4_30
REMARK   13  A    between atoms: N5_35  and  N6_37
ROOT
HETATM    1  C1  UNL     1      -3.927  26.489  -5.289  1.00  0.00     0.014 C
HETATM    2  C2  UNL     1      -3.282  27.489  -5.110  1.00  0.00    -0.098 C
HETATM    3  C3  UNL     1      -2.500  28.690  -4.886  1.00  0.00     0.216 C
ENDROOT
BRANCH   3   4
HETATM    4  N1  UNL     1      -2.337  28.853  -3.446  1.00  0.00    -0.342 N
HETATM    5  C4  UNL     1      -1.124  28.468  -2.861  1.00  0.00     0.318 C
HETATM    6  O1  UNL     1      -0.178  27.986  -3.554  1.00  0.00    -0.262 OA
ATOM      7  H1  UNL     1      -3.089  29.240  -2.878  1.00  0.00     0.163 HD
BRANCH   5   8
HETATM    8  C5  UNL     1      -0.875  28.595  -1.438  1.00  0.00     0.356 C
HETATM    9  O2  UNL     1      -1.751  29.151  -0.729  1.00  0.00    -0.253 OA
BRANCH   8  10
HETATM   10  O3  UNL     1       0.271  28.138  -0.815  1.00  0.00    -0.271 OA
BRANCH  10  11
HETATM   11  C6  UNL     1       0.364  26.877  -0.277  1.00  0.00     0.086 A
HETATM   12  C7  UNL     1      -0.753  26.033  -0.399  1.00  0.00     0.038 A
HETATM   13  C8  UNL     1      -0.690  24.766   0.140  1.00  0.00     0.003 A
HETATM   14  C9  UNL     1       0.456  24.313   0.798  1.00  0.00     0.001 A
HETATM   15  C10 UNL     1       1.530  25.158   0.900  1.00  0.00     0.010 A
HETATM   16  C11 UNL     1       1.489  26.459   0.355  1.00  0.00    -0.023 A
BRANCH  16  17
HETATM   17  C12 UNL     1       2.692  27.242   0.463  1.00  0.00     0.061 C
BRANCH  17  18
HETATM   18  C13 UNL     1       3.436  27.308   1.733  1.00  0.00     0.126 C
BRANCH  18  19
HETATM   19  N2  UNL     1       2.974  28.160   2.782  1.00  0.00    -0.378 N
ATOM     20  H2  UNL     1       2.890  27.793   3.731  1.00  0.00     0.160 HD
BRANCH  19  21
HETATM   21  C14 UNL     1       2.630  29.513   2.518  1.00  0.00     0.095 C
HETATM   22  N5  UNL     1       3.412  30.466   2.609  1.00  0.00    -0.296 N
ATOM     23  H5  UNL     1       2.941  31.339   2.372  1.00  0.00     0.187 HD
BRANCH  21  24
HETATM   24  C15 UNL     1       1.203  29.811   2.100  1.00  0.00     0.117 C
BRANCH  24  25
HETATM   25  C16 UNL     1       0.246  29.207   3.059  1.00  0.00    -0.035 A
HETATM   26  C17 UNL     1      -0.733  28.325   2.674  1.00  0.00     0.011 A
HETATM   27  C18 UNL     1      -1.616  27.782   3.623  1.00  0.00     0.031 A
HETATM   28  C19 UNL     1      -1.544  28.101   4.960  1.00  0.00     0.051 A
HETATM   29  N4  UNL     1      -0.558  28.977   5.293  1.00  0.00    -0.359 N
HETATM   30  C21 UNL     1      -0.454  29.339   6.708  1.00  0.00     0.156 C
HETATM   31  C22 UNL     1       0.294  29.507   4.404  1.00  0.00     0.098 A
BRANCH  28  32
HETATM   32  C20 UNL     1      -2.422  27.569   5.979  1.00  0.00     0.143 C
HETATM   33  N3  UNL     1      -2.290  26.551   6.712  1.00  0.00    -0.278 N
ATOM     34  H3  UNL     1      -3.044  26.361   7.372  1.00  0.00     0.193 HD
BRANCH  33  35
HETATM   35  O4  UNL     1      -1.250  25.687   6.710  1.00  0.00    -0.290 OA
ATOM     36  H4  UNL     1      -0.509  25.691   7.305  1.00  0.00     0.244 HD
ENDBRANCH  33  35
ENDBRANCH  28  32
ENDBRANCH  24  25
ENDBRANCH  21  24
BRANCH  22  37
HETATM   37  N6  UNL     1       4.695  30.698   2.926  1.00  0.00    -0.344 N
ATOM     38  H62 UNL     1       5.294  30.205   2.263  1.00  0.00     0.176 HD
ATOM     39  H61 UNL     1       5.236  31.211   3.621  1.00  0.00     0.176 HD
ENDBRANCH  22  37
ENDBRANCH  19  21
ENDBRANCH  18  19
ENDBRANCH  17  18
ENDBRANCH  16  17
ENDBRANCH  10  11
ENDBRANCH   8  10
ENDBRANCH   5   8
ENDBRANCH   3   4
TORSDOF 13
ENDMDL