MODEL 3
REMARK VINA RESULT: -9.409655981      1.113      1.518
REMARK  11 active torsions:
REMARK  status: ('A' for Active; 'I' for Inactive)
REMARK    1  A    between atoms: N2_5  and  C4_6
REMARK    2  A    between atoms: C4_6  and  O1_7
REMARK    3  A    between atoms: C4_6  and  C5_9
REMARK    4  A    between atoms: C5_9  and  C6_10
REMARK    5  A    between atoms: C6_10  and  N3_11
REMARK       I    between atoms: N3_11  and  C7_13
REMARK    6  A    between atoms: C7_13  and  C8_15
REMARK    7  A    between atoms: C8_15  and  C9_16
REMARK    8  A    between atoms: C8_15  and  N4_23
REMARK    9  A    between atoms: C9_16  and  C10_17
REMARK       I    between atoms: N4_23  and  C16_25
REMARK   10  A    between atoms: C16_25  and  C17_27
REMARK   11  A    between atoms: N6_33  and  O4_34
ROOT
HETATM    1  C8  UNL     1      -1.300  28.166  -0.688  1.00  0.00     0.181 C
ENDROOT
BRANCH   1   2
HETATM    2  C7  UNL     1      -2.467  28.661   0.088  1.00  0.00     0.240 C
HETATM    3  N3  UNL     1      -2.730  28.152   1.380  1.00  0.00    -0.359 N
ATOM      4  H3  UNL     1      -2.114  27.442   1.774  1.00  0.00     0.162 HD
HETATM    5  O2  UNL     1      -3.243  29.541  -0.384  1.00  0.00    -0.271 OA
BRANCH   3   6
HETATM    6  C6  UNL     1      -3.861  28.621   2.153  1.00  0.00     0.127 C
BRANCH   6   7
HETATM    7  C5  UNL     1      -3.623  29.997   2.726  1.00  0.00     0.073 C
BRANCH   7   8
HETATM    8  C4  UNL     1      -4.827  30.858   2.488  1.00  0.00     0.226 C
BRANCH   8   9
HETATM    9  N2  UNL     1      -5.844  30.650   3.515  1.00  0.00    -0.325 N
HETATM   10  C3  UNL     1      -5.831  30.986   4.798  1.00  0.00     0.111 A
HETATM   11  C2  UNL     1      -7.027  30.573   5.347  1.00  0.00     0.108 A
HETATM   12  N1  UNL     1      -7.767  29.979   4.374  1.00  0.00    -0.356 N
HETATM   13  C1  UNL     1      -9.091  29.410   4.544  1.00  0.00     0.156 C
HETATM   14  C21 UNL     1      -7.004  30.050   3.269  1.00  0.00     0.186 A
ENDBRANCH   8   9
BRANCH   8  15
HETATM   15  O1  UNL     1      -5.317  30.598   1.215  1.00  0.00    -0.376 OA
ATOM     16  H1  UNL     1      -5.177  31.330   0.626  1.00  0.00     0.212 HD
ENDBRANCH   8  15
ENDBRANCH   7   8
ENDBRANCH   6   7
ENDBRANCH   3   6
ENDBRANCH   1   2
BRANCH   1  17
HETATM   17  C9  UNL     1      -0.064  28.424   0.149  1.00  0.00     0.073 C
BRANCH  17  18
HETATM   18  C10 UNL     1       0.673  27.200   0.465  1.00  0.00    -0.056 A
HETATM   19  C11 UNL     1       0.080  25.956   0.499  1.00  0.00     0.007 A
HETATM   20  C12 UNL     1       0.803  24.817   0.802  1.00  0.00     0.001 A
HETATM   21  C13 UNL     1       2.131  24.897   1.076  1.00  0.00     0.000 A
HETATM   22  C14 UNL     1       2.757  26.128   1.051  1.00  0.00     0.001 A
HETATM   23  C15 UNL     1       2.020  27.274   0.744  1.00  0.00     0.007 A
ENDBRANCH  17  18
ENDBRANCH   1  17
BRANCH   1  24
HETATM   24  N4  UNL     1      -1.252  28.819  -1.962  1.00  0.00    -0.342 N
HETATM   25  C16 UNL     1      -1.727  28.232  -3.157  1.00  0.00     0.271 C
HETATM   26  O3  UNL     1      -2.218  27.083  -3.127  1.00  0.00    -0.266 OA
ATOM     27  H4  UNL     1      -0.853  29.757  -2.009  1.00  0.00     0.163 HD
BRANCH  25  28
HETATM   28  C17 UNL     1      -1.659  28.926  -4.429  1.00  0.00     0.135 A
HETATM   29  C18 UNL     1      -1.269  28.686  -5.662  1.00  0.00     0.140 A
HETATM   30  C19 UNL     1      -1.604  29.937  -6.113  1.00  0.00     0.139 A
HETATM   31  N6  UNL     1      -0.758  27.971  -6.686  1.00  0.00    -0.214 N
HETATM   32  N5  UNL     1      -1.296  29.984  -7.422  1.00  0.00    -0.335 N
HETATM   33  N7  UNL     1      -2.003  30.227  -4.923  1.00  0.00    -0.334 N
HETATM   34  C20 UNL     1      -0.786  28.789  -7.756  1.00  0.00     0.215 A
ATOM     35  H5  UNL     1      -1.428  30.781  -8.046  1.00  0.00     0.168 HD
ATOM     36  H7  UNL     1      -2.408  31.060  -4.497  1.00  0.00     0.168 HD
BRANCH  31  37
HETATM   37  O4  UNL     1      -0.306  26.668  -6.629  1.00  0.00    -0.281 OA
ATOM     38  H4  UNL     1      -0.087  26.115  -7.370  1.00  0.00     0.245 HD
ENDBRANCH  31  37
ENDBRANCH  25  28
ENDBRANCH   1  24
TORSDOF 11
ENDMDL