MODEL 5
REMARK VINA RESULT: -6.394601253      2.228      3.178
REMARK  8 active torsions:
REMARK  status: ('A' for Active; 'I' for Inactive)
REMARK    1  A    between atoms: C8_8  and  N1_9
REMARK    2  A    between atoms: N1_9  and  C9_11
REMARK    3  A    between atoms: C9_11  and  C10_12
REMARK    4  A    between atoms: C13_18  and  N2_19
REMARK    5  A    between atoms: C13_18  and  C14_23
REMARK    6  A    between atoms: C15_28  and  S1_29
REMARK    7  A    between atoms: S1_29  and  C16_32
REMARK    8  A    between atoms: C20_37  and  N5_38
ROOT
HETATM    1  C9  UNL     1      -5.768   1.676  -3.787  1.00  0.00     0.153 C
HETATM    2  C11 UNL     1      -7.257   1.620  -3.457  1.00  0.00     0.045 C
HETATM    3  C12 UNL     1      -8.009   2.874  -3.512  1.00  0.00     0.050 C
HETATM    4  C13 UNL     1      -8.120   3.548  -2.160  1.00  0.00     0.189 C
HETATM    5  C18 UNL     1      -6.832   4.322  -2.006  1.00  0.00     0.049 C
HETATM    6  C19 UNL     1      -5.745   3.285  -1.812  1.00  0.00     0.038 C
HETATM    7  C20 UNL     1      -5.086   2.806  -3.043  1.00  0.00     0.220 C
ENDROOT
BRANCH   4   8
HETATM    8  N2  UNL     1      -8.219   2.491  -1.139  1.00  0.00    -0.063 N
ATOM      9  H23 UNL     1      -9.043   1.900  -1.257  1.00  0.00     0.275 HD
ATOM     10  H22 UNL     1      -7.514   1.762  -1.253  1.00  0.00     0.275 HD
ATOM     11  H21 UNL     1      -8.180   2.938  -0.224  1.00  0.00     0.275 HD
ENDBRANCH   4   8
BRANCH   4  12
HETATM   12  C14 UNL     1      -9.315   4.385  -2.010  1.00  0.00     0.177 A
HETATM   13  N3  UNL     1      -9.550   5.142  -0.887  1.00  0.00    -0.279 N
HETATM   14  N4  UNL     1     -10.697   5.787  -1.043  1.00  0.00    -0.268 N
ATOM     15  H3  UNL     1      -8.943   5.199  -0.070  1.00  0.00     0.189 HD
HETATM   16  C15 UNL     1     -11.160   5.428  -2.254  1.00  0.00     0.262 A
ATOM     17  H4  UNL     1     -11.138   6.425  -0.381  1.00  0.00     0.190 HD
HETATM   18  O3  UNL     1     -10.322   4.610  -2.782  1.00  0.00    -0.266 OA
BRANCH  16  19
HETATM   19  S1  UNL     1     -12.649   5.958  -3.027  1.00  0.00     0.215 S
HETATM   20  O1  UNL     1     -13.739   5.872  -1.993  1.00  0.00    -0.219 OA
HETATM   21  O2  UNL     1     -12.547   7.434  -3.377  1.00  0.00    -0.219 OA
BRANCH  19  22
HETATM   22  C16 UNL     1     -13.040   4.992  -4.439  1.00  0.00     0.145 C
HETATM   23  C17 UNL     1     -13.269   3.571  -4.022  1.00  0.00     0.021 C
ENDBRANCH  19  22
ENDBRANCH  16  19
ENDBRANCH   4  12
BRANCH   1  24
HETATM   24  N1  UNL     1      -5.503   1.841  -5.135  1.00  0.00    -0.392 N
ATOM     25  H1  UNL     1      -4.518   2.035  -5.315  1.00  0.00     0.155 HD
BRANCH  24  26
HETATM   26  C8  UNL     1      -6.237   1.807  -6.272  1.00  0.00     0.135 C
HETATM   27  C2  UNL     1      -5.201   1.429  -7.382  1.00  0.00    -0.063 C
HETATM   28  C1  UNL     1      -4.855   2.231  -8.325  1.00  0.00     0.016 C
HETATM   29  C3  UNL     1      -4.667   0.047  -7.230  1.00  0.00     0.039 C
HETATM   30  C4  UNL     1      -5.649  -0.951  -6.726  1.00  0.00     0.032 C
HETATM   31  C5  UNL     1      -7.034  -0.388  -6.874  1.00  0.00    -0.022 C
HETATM   32  C6  UNL     1      -7.309   0.883  -6.637  1.00  0.00    -0.061 C
HETATM   33  C7  UNL     1      -8.740   1.318  -6.830  1.00  0.00     0.045 C
ENDBRANCH  24  26
ENDBRANCH   1  24
BRANCH   1  34
HETATM   34  C10 UNL     1      -5.245   0.371  -3.257  1.00  0.00     0.414 C
HETATM   35  F1  UNL     1      -4.156  -0.067  -4.061  1.00  0.00    -0.168 F
HETATM   36  F2  UNL     1      -4.658   0.419  -2.017  1.00  0.00    -0.168 F
HETATM   37  F3  UNL     1      -6.157  -0.669  -3.397  1.00  0.00    -0.168 F
ENDBRANCH   1  34
BRANCH   7  38
HETATM   38  N5  UNL     1      -4.735   3.926  -3.854  1.00  0.00    -0.072 N
ATOM     39  H53 UNL     1      -5.465   4.108  -4.543  1.00  0.00     0.274 HD
ATOM     40  H52 UNL     1      -4.788   4.788  -3.311  1.00  0.00     0.274 HD
ATOM     41  H51 UNL     1      -3.827   3.851  -4.313  1.00  0.00     0.274 HD
ENDBRANCH   7  38
TORSDOF 8
ENDMDL