MODEL 2
REMARK VINA RESULT: -7.160887590      1.225      1.491
REMARK  6 active torsions:
REMARK  status: ('A' for Active; 'I' for Inactive)
REMARK       I    between atoms: C1_2  and  N1_3
REMARK    1  A    between atoms: C1_2  and  C15_29
REMARK    2  A    between atoms: N1_3  and  C2_5
REMARK    3  A    between atoms: N2_7  and  C4_8
REMARK    4  A    between atoms: C7_11  and  N3_12
REMARK       I    between atoms: N3_12  and  C8_14
REMARK    5  A    between atoms: C8_14  and  C9_16
REMARK    6  A    between atoms: C17_33  and  C18_34
ROOT
HETATM    1  C2  UNL     1     -10.567   6.277  -1.236  1.00  0.00     0.304 C
HETATM    2  C3  UNL     1     -12.039   6.008  -1.206  1.00  0.00     0.178 C
HETATM    3  N2  UNL     1     -12.774   7.096  -1.806  1.00  0.00    -0.370 N
HETATM    4  C13 UNL     1     -12.454   7.568  -3.125  1.00  0.00     0.151 C
HETATM    5  C14 UNL     1     -10.965   7.349  -3.366  1.00  0.00     0.254 C
HETATM    6  N5  UNL     1     -10.240   7.402  -2.128  1.00  0.00    -0.051 N
ATOM      7  H51 UNL     1      -9.235   7.460  -2.294  1.00  0.00     0.279 HD
ATOM      8  H52 UNL     1     -10.379   8.296  -1.658  1.00  0.00     0.279 HD
ENDROOT
BRANCH   3   9
HETATM    9  C4  UNL     1     -13.846   7.657  -1.007  1.00  0.00     0.074 A
HETATM   10  C5  UNL     1     -15.185   7.593  -1.288  1.00  0.00     0.040 A
HETATM   11  C6  UNL     1     -16.030   8.175  -0.430  1.00  0.00     0.040 A
HETATM   12  C7  UNL     1     -15.516   8.787   0.670  1.00  0.00     0.078 A
HETATM   13  S1  UNL     1     -13.809   8.524   0.454  1.00  0.00    -0.055 SA
BRANCH  12  14
HETATM   14  N3  UNL     1     -16.125   9.519   1.741  1.00  0.00    -0.319 N
HETATM   15  C8  UNL     1     -16.053  10.924   1.823  1.00  0.00     0.253 C
HETATM   16  O2  UNL     1     -15.431  11.625   0.972  1.00  0.00    -0.271 OA
ATOM     17  H3  UNL     1     -16.626   9.007   2.467  1.00  0.00     0.169 HD
BRANCH  15  18
HETATM   18  C9  UNL     1     -16.694  11.694   2.910  1.00  0.00     0.277 C
HETATM   19  C10 UNL     1     -15.753  12.605   3.600  1.00  0.00     0.044 C
HETATM   20  C11 UNL     1     -16.721  13.702   4.066  1.00  0.00     0.030 C
HETATM   21  C12 UNL     1     -17.553  13.843   2.795  1.00  0.00     0.233 C
HETATM   22  N4  UNL     1     -17.789  12.476   2.352  1.00  0.00    -0.062 N
ATOM     23  H42 UNL     1     -17.887  12.383   1.340  1.00  0.00     0.278 HD
ATOM     24  H41 UNL     1     -18.713  12.119   2.594  1.00  0.00     0.278 HD
ENDBRANCH  15  18
ENDBRANCH  12  14
ENDBRANCH   3   9
BRANCH   1  25
HETATM   25  N1  UNL     1      -9.885   5.089  -1.615  1.00  0.00    -0.327 N
HETATM   26  C1  UNL     1      -8.497   4.959  -1.782  1.00  0.00     0.261 C
HETATM   27  O1  UNL     1      -7.761   5.959  -1.629  1.00  0.00    -0.267 OA
ATOM     28  H1  UNL     1     -10.453   4.258  -1.780  1.00  0.00     0.165 HD
BRANCH  26  29
HETATM   29  C15 UNL     1      -7.903   3.643  -2.146  1.00  0.00     0.090 A
HETATM   30  C16 UNL     1      -8.531   2.438  -2.136  1.00  0.00     0.113 A
HETATM   31  N6  UNL     1      -7.854   1.386  -2.459  1.00  0.00    -0.355 N
HETATM   32  C17 UNL     1      -6.573   1.513  -2.792  1.00  0.00     0.159 A
ATOM     33  H6  UNL     1      -8.297   0.468  -2.458  1.00  0.00     0.166 HD
HETATM   34  S2  UNL     1      -6.334   3.207  -2.637  1.00  0.00    -0.061 SA
BRANCH  32  35
HETATM   35  C18 UNL     1      -5.621   0.415  -3.200  1.00  0.00     0.439 C
HETATM   36  F1  UNL     1      -5.336   0.535  -4.537  1.00  0.00    -0.164 F
HETATM   37  F2  UNL     1      -6.246  -0.776  -2.958  1.00  0.00    -0.164 F
HETATM   38  F3  UNL     1      -4.507   0.558  -2.381  1.00  0.00    -0.164 F
ENDBRANCH  32  35
ENDBRANCH  26  29
ENDBRANCH   1  25
TORSDOF 6
ENDMDL