MODEL 3
REMARK VINA RESULT: -7.787392515      1.247      1.347
REMARK  5 active torsions:
REMARK  status: ('A' for Active; 'I' for Inactive)
REMARK    1  A    between atoms: C5_7  and  O1_8
REMARK    2  A    between atoms: O1_8  and  C6_9
REMARK    3  A    between atoms: C9_19  and  C10_20
REMARK       I    between atoms: C10_20  and  N5_22
REMARK    4  A    between atoms: N5_22  and  C11_24
REMARK    5  A    between atoms: N7_33  and  C18_34
ROOT
HETATM    1  N1  UNL     1     -13.680   4.611  -4.643  1.00  0.00    -0.197 NA
HETATM    2  C1  UNL     1     -12.633   5.080  -4.403  1.00  0.00     0.069 C
HETATM    3  C2  UNL     1     -11.331   5.675  -4.089  1.00  0.00     0.156 C
HETATM    4  C3  UNL     1     -10.234   4.679  -4.484  1.00  0.00     0.192 C
HETATM    5  F1  UNL     1      -9.030   5.333  -4.498  1.00  0.00    -0.248 F
HETATM    6  C4  UNL     1     -10.449   4.043  -3.106  1.00  0.00     0.072 C
HETATM    7  C5  UNL     1     -10.912   5.430  -2.644  1.00  0.00     0.155 C
ENDROOT
BRANCH   7   8
HETATM    8  O1  UNL     1     -11.961   5.400  -1.719  1.00  0.00    -0.315 OA
BRANCH   8   9
HETATM    9  C6  UNL     1     -12.093   6.451  -0.830  1.00  0.00     0.227 A
HETATM   10  N2  UNL     1     -11.055   7.027  -0.213  1.00  0.00    -0.306 N
HETATM   11  C7  UNL     1     -11.250   8.048   0.643  1.00  0.00     0.133 A
ATOM     12  H2  UNL     1     -10.109   6.691  -0.392  1.00  0.00     0.171 HD
HETATM   13  N3  UNL     1     -10.286   8.636   1.263  1.00  0.00    -0.383 N
HETATM   14  C8  UNL     1     -12.527   8.527   0.906  1.00  0.00     0.123 A
ATOM     15  H32 UNL     1      -9.348   8.284   1.070  1.00  0.00     0.157 HD
ATOM     16  H31 UNL     1     -10.434   9.409   1.912  1.00  0.00     0.157 HD
HETATM   17  N4  UNL     1     -13.010   9.483   1.690  1.00  0.00    -0.332 N
HETATM   18  C21 UNL     1     -13.585   7.929   0.266  1.00  0.00     0.144 A
HETATM   19  C9  UNL     1     -14.377   9.538   1.587  1.00  0.00     0.179 A
ATOM     20  H4  UNL     1     -12.445  10.090   2.284  1.00  0.00     0.168 HD
HETATM   21  N7  UNL     1     -14.697   8.586   0.714  1.00  0.00    -0.302 N
HETATM   22  N8  UNL     1     -13.328   6.915  -0.576  1.00  0.00    -0.306 N
ATOM     23  H8  UNL     1     -14.115   6.472  -1.050  1.00  0.00     0.171 HD
BRANCH  19  24
HETATM   24  C10 UNL     1     -15.215  10.479   2.315  1.00  0.00     0.286 C
HETATM   25  O2  UNL     1     -15.396  10.290   3.585  1.00  0.00    -0.264 OA
HETATM   26  N5  UNL     1     -15.868  11.592   1.791  1.00  0.00    -0.350 N
ATOM     27  H5  UNL     1     -15.779  11.798   0.796  1.00  0.00     0.163 HD
BRANCH  26  28
HETATM   28  C11 UNL     1     -16.677  12.470   2.630  1.00  0.00     0.085 C
HETATM   29  C12 UNL     1     -16.082  13.864   2.612  1.00  0.00     0.029 C
HETATM   30  C13 UNL     1     -17.136  14.916   2.884  1.00  0.00     0.061 C
HETATM   31  C14 UNL     1     -18.245  14.401   3.753  1.00  0.00     0.191 C
HETATM   32  F2  UNL     1     -19.197  15.417   3.836  1.00  0.00    -0.227 F
HETATM   33  C15 UNL     1     -17.786  14.177   5.134  1.00  0.00     0.103 C
HETATM   34  C16 UNL     1     -18.934  13.186   3.215  1.00  0.00     0.061 C
HETATM   35  N6  UNL     1     -17.412  13.993   6.203  1.00  0.00    -0.194 NA
HETATM   36  C17 UNL     1     -18.092  12.596   2.104  1.00  0.00     0.029 C
ENDBRANCH  26  28
ENDBRANCH  19  24
BRANCH  21  37
HETATM   37  C18 UNL     1     -16.032   8.272   0.202  1.00  0.00     0.171 A
HETATM   38  C19 UNL     1     -16.120   7.802  -1.232  1.00  0.00     0.113 A
HETATM   39  C20 UNL     1     -16.593   9.204  -0.858  1.00  0.00     0.266 A
HETATM   40  F3  UNL     1     -15.791  10.266  -1.296  1.00  0.00    -0.204 F
HETATM   41  F4  UNL     1     -17.952   9.416  -0.885  1.00  0.00    -0.204 F
ENDBRANCH  21  37
ENDBRANCH   8   9
ENDBRANCH   7   8
TORSDOF 5
ENDMDL