MODEL 3
REMARK VINA RESULT: -6.651765028      7.490     10.020
REMARK  7 active torsions:
REMARK  status: ('A' for Active; 'I' for Inactive)
REMARK    1  A    between atoms: C2_5  and  C3_6
REMARK    2  A    between atoms: C4_10  and  N3_11
REMARK    3  A    between atoms: C5_14  and  C6_15
REMARK    4  A    between atoms: C6_15  and  N5_19
REMARK    5  A    between atoms: N5_19  and  C7_21
REMARK    6  A    between atoms: C10_25  and  C11_26
REMARK    7  A    between atoms: C14_31  and  C15_32
ROOT
HETATM    1  C6  UNL     1     -19.092   9.116  -3.013  1.00  0.00     0.148 C
HETATM    2  N4  UNL     1     -18.428   8.778  -4.084  1.00  0.00    -0.282 N
ATOM      3  H4  UNL     1     -18.344   7.783  -4.297  1.00  0.00     0.182 HD
HETATM    4 CL1  UNL     1     -17.687   9.892  -5.160  1.00  0.00     0.012 Cl
ENDROOT
BRANCH   1   5
HETATM    5  C5  UNL     1     -19.653   8.059  -2.217  1.00  0.00     0.130 A
HETATM    6  N1  UNL     1     -20.954   7.625  -2.321  1.00  0.00    -0.290 N
HETATM    7  C1  UNL     1     -21.903   8.200  -3.253  1.00  0.00     0.178 C
HETATM    8  N2  UNL     1     -21.111   6.648  -1.460  1.00  0.00    -0.292 N
HETATM    9  C2  UNL     1     -19.982   6.408  -0.786  1.00  0.00     0.168 A
ATOM     10  H2  UNL     1     -21.983   6.138  -1.321  1.00  0.00     0.187 HD
HETATM   11  C4  UNL     1     -19.014   7.313  -1.259  1.00  0.00     0.167 A
BRANCH   9  12
HETATM   12  C3  UNL     1     -19.759   5.384   0.277  1.00  0.00     0.436 C
HETATM   13  F1  UNL     1     -18.910   4.396  -0.165  1.00  0.00    -0.165 F
HETATM   14  F2  UNL     1     -19.282   6.008   1.421  1.00  0.00    -0.165 F
HETATM   15  F3  UNL     1     -20.985   4.825   0.592  1.00  0.00    -0.165 F
ENDBRANCH   9  12
BRANCH  11  16
HETATM   16  N3  UNL     1     -17.688   7.347  -0.766  1.00  0.00    -0.111 N
HETATM   17  O1  UNL     1     -16.780   6.630  -1.230  1.00  0.00    -0.532 OA
HETATM   18  O2  UNL     1     -17.348   8.181   0.256  1.00  0.00    -0.532 OA
ENDBRANCH  11  16
ENDBRANCH   1   5
BRANCH   1  19
HETATM   19  N5  UNL     1     -19.177  10.513  -2.778  1.00  0.00    -0.333 N
ATOM     20  H5  UNL     1     -19.680  11.119  -3.427  1.00  0.00     0.168 HD
BRANCH  19  21
HETATM   21  C7  UNL     1     -18.538  11.060  -1.604  1.00  0.00     0.092 A
HETATM   22  S1  UNL     1     -19.360  11.578  -0.173  1.00  0.00    -0.075 SA
HETATM   23  C8  UNL     1     -18.034  12.070   0.733  1.00  0.00    -0.007 A
HETATM   24  C9  UNL     1     -16.946  11.825  -0.101  1.00  0.00    -0.027 A
HETATM   25  C16 UNL     1     -17.778  12.650   2.110  1.00  0.00     0.062 C
HETATM   26  C10 UNL     1     -17.223  11.302  -1.307  1.00  0.00     0.070 A
HETATM   27  C12 UNL     1     -15.670  12.234   0.594  1.00  0.00     0.042 C
HETATM   28  C13 UNL     1     -15.614  11.415   1.870  1.00  0.00     0.020 C
HETATM   29  C14 UNL     1     -16.705  11.846   2.817  1.00  0.00     0.092 C
BRANCH  26  30
HETATM   30  C11 UNL     1     -16.175  10.988  -2.305  1.00  0.00     0.268 C
HETATM   31  N6  UNL     1     -15.497  11.947  -3.096  1.00  0.00    -0.057 NA
HETATM   32  O3  UNL     1     -15.838   9.804  -2.488  1.00  0.00    -0.271 OA
ENDBRANCH  26  30
BRANCH  29  33
HETATM   33  C15 UNL     1     -16.109  12.734   3.846  1.00  0.00     0.177 C
HETATM   34  O4  UNL     1     -15.808  12.240   4.975  1.00  0.00    -0.648 OA
HETATM   35  O5  UNL     1     -15.899  14.066   3.545  1.00  0.00    -0.648 OA
ENDBRANCH  29  33
ENDBRANCH  19  21
ENDBRANCH   1  19
TORSDOF 7
ENDMDL