MODEL 1
REMARK VINA RESULT: -6.801447457      0.000      0.000
REMARK  7 active torsions:
REMARK  status: ('A' for Active; 'I' for Inactive)
REMARK    1  A    between atoms: C2_2  and  C4_4
REMARK    2  A    between atoms: C4_4  and  N1_5
REMARK    3  A    between atoms: C8_9  and  N2_10
REMARK    4  A    between atoms: N2_10  and  C9_12
REMARK    5  A    between atoms: C13_18  and  C14_19
REMARK    6  A    between atoms: C18_29  and  O3_30
REMARK    7  A    between atoms: C18_29  and  C19_32
ROOT
HETATM    1  N1  UNL     1      -8.477   3.747  -3.854  1.00  0.00     0.092 N
HETATM    2  C5  UNL     1      -8.859   3.798  -2.442  1.00  0.00     0.277 C
HETATM    3  C6  UNL     1      -9.398   5.111  -2.017  1.00  0.00     0.072 C
HETATM    4  C7  UNL     1     -10.598   5.552  -2.847  1.00  0.00    -0.013 A
HETATM    5  C8  UNL     1     -11.101   6.797  -2.656  1.00  0.00     0.042 A
HETATM    6  C16 UNL     1     -12.179   7.134  -3.427  1.00  0.00     0.080 A
HETATM    7  S1  UNL     1     -12.460   5.756  -4.372  1.00  0.00    -0.100 SA
HETATM    8  C17 UNL     1     -11.200   4.761  -3.773  1.00  0.00     0.036 A
HETATM    9  C18 UNL     1     -10.915   3.351  -4.208  1.00  0.00     0.216 C
HETATM   10  C20 UNL     1      -9.517   3.222  -4.664  1.00  0.00     0.325 C
ENDROOT
BRANCH   5  11
HETATM   11  N2  UNL     1     -10.593   7.758  -1.690  1.00  0.00    -0.383 N
ATOM     12  H2  UNL     1      -9.625   8.068  -1.784  1.00  0.00     0.160 HD
BRANCH  11  13
HETATM   13  C9  UNL     1     -11.371   8.293  -0.615  1.00  0.00     0.102 C
HETATM   14  C10 UNL     1     -10.664   8.487   0.682  1.00  0.00     0.034 C
HETATM   15  C11 UNL     1     -11.596   8.766   1.826  1.00  0.00     0.080 C
HETATM   16  C12 UNL     1     -13.005   8.948   1.463  1.00  0.00     0.100 A
HETATM   17  N3  UNL     1     -14.035   9.658   1.985  1.00  0.00    -0.324 N
HETATM   18  N5  UNL     1     -13.509   8.316   0.394  1.00  0.00    -0.277 N
HETATM   19  C13 UNL     1     -15.150   9.468   1.253  1.00  0.00     0.200 A
ATOM     20  H3  UNL     1     -13.975  10.251   2.813  1.00  0.00     0.169 HD
HETATM   21  N4  UNL     1     -14.805   8.627   0.263  1.00  0.00    -0.276 N
ATOM     22  H4  UNL     1     -15.427   8.283  -0.468  1.00  0.00     0.189 HD
HETATM   23  C15 UNL     1     -12.622   7.468  -0.376  1.00  0.00     0.175 C
BRANCH  19  24
HETATM   24  C14 UNL     1     -16.464  10.041   1.477  1.00  0.00     0.246 C
HETATM   25  O1  UNL     1     -16.702  10.701   2.515  1.00  0.00    -0.642 OA
HETATM   26  O2  UNL     1     -17.452   9.856   0.542  1.00  0.00    -0.642 OA
ENDBRANCH  19  24
ENDBRANCH  11  13
ENDBRANCH   5  11
BRANCH   9  27
HETATM   27  O3  UNL     1     -11.388   2.410  -3.329  1.00  0.00    -0.374 OA
ATOM     28  H3  UNL     1     -12.120   1.913  -3.673  1.00  0.00     0.211 HD
ENDBRANCH   9  27
BRANCH   9  29
HETATM   29  C19 UNL     1     -11.793   3.161  -5.473  1.00  0.00     0.425 C
HETATM   30  F1  UNL     1     -13.121   3.125  -5.108  1.00  0.00    -0.167 F
HETATM   31  F2  UNL     1     -11.353   1.982  -6.040  1.00  0.00    -0.167 F
HETATM   32  F3  UNL     1     -11.515   4.185  -6.345  1.00  0.00    -0.167 F
ENDBRANCH   9  29
BRANCH   1  33
HETATM   33  C4  UNL     1      -7.324   2.888  -3.914  1.00  0.00     0.276 C
BRANCH  33  34
HETATM   34  C2  UNL     1      -6.835   2.229  -2.703  1.00  0.00     0.006 C
HETATM   35  C1  UNL     1      -6.715   0.718  -3.091  1.00  0.00     0.011 C
HETATM   36  C3  UNL     1      -5.454   2.555  -2.202  1.00  0.00     0.011 C
ENDBRANCH  33  34
ENDBRANCH   1  33
TORSDOF 7
ENDMDL