MODEL 5
REMARK VINA RESULT: -7.408650919      8.062     11.153
REMARK  9 active torsions:
REMARK  status: ('A' for Active; 'I' for Inactive)
REMARK    1  A    between atoms: O1_2  and  C2_3
REMARK    2  A    between atoms: C4_7  and  N2_8
REMARK    3  A    between atoms: N2_8  and  C5_10
REMARK    4  A    between atoms: C7_14  and  C8_15
REMARK    5  A    between atoms: C11_18  and  C12_19
REMARK    6  A    between atoms: C13_27  and  C14_28
REMARK    7  A    between atoms: C14_28  and  N6_30
REMARK    8  A    between atoms: N6_30  and  C16_32
REMARK    9  A    between atoms: C17_35  and  N8_36
ROOT
HETATM    1  C16 UNL     1     -13.894   7.891  -1.086  1.00  0.00     0.143 A
HETATM    2  N7  UNL     1     -13.073   8.104  -0.067  1.00  0.00    -0.175 N
ATOM      3  H7  UNL     1     -12.066   8.024  -0.215  1.00  0.00     0.186 HD
HETATM    4  C17 UNL     1     -13.528   8.421   1.151  1.00  0.00     0.679 A
HETATM    5  N9  UNL     1     -14.849   8.533   1.374  1.00  0.00    -0.164 N
ATOM      6  H9  UNL     1     -15.196   8.773   2.302  1.00  0.00     0.186 HD
HETATM    7  C18 UNL     1     -15.702   8.326   0.369  1.00  0.00     0.227 A
HETATM    8  F4  UNL     1     -17.025   8.440   0.595  1.00  0.00    -0.184 F
HETATM    9  C19 UNL     1     -15.250   8.001  -0.884  1.00  0.00     0.145 A
HETATM   10  C20 UNL     1     -16.210   7.789  -1.941  1.00  0.00     0.108 C
HETATM   11  N10 UNL     1     -16.993   7.638  -2.786  1.00  0.00    -0.191 NA
ENDROOT
BRANCH   1  12
HETATM   12  N6  UNL     1     -13.466   7.590  -2.228  1.00  0.00    -0.365 N
ATOM     13  H6  UNL     1     -13.699   8.281  -2.942  1.00  0.00     0.162 HD
BRANCH  12  14
HETATM   14  C14 UNL     1     -12.735   6.502  -2.726  1.00  0.00     0.133 C
HETATM   15  C15 UNL     1     -13.394   5.161  -2.446  1.00  0.00     0.039 C
BRANCH  14  16
HETATM   16  C13 UNL     1     -11.280   6.472  -2.445  1.00  0.00     0.085 A
HETATM   17  C2  UNL     1     -10.500   7.563  -2.780  1.00  0.00     0.167 A
HETATM   18  N1  UNL     1      -9.169   7.555  -2.552  1.00  0.00    -0.342 N
HETATM   19  C3  UNL     1      -8.574   6.488  -1.997  1.00  0.00     0.139 A
ATOM     20  H1  UNL     1      -8.609   8.369  -2.806  1.00  0.00     0.167 HD
HETATM   21  C4  UNL     1      -9.336   5.377  -1.653  1.00  0.00     0.137 A
HETATM   22  N5  UNL     1     -10.668   5.406  -1.888  1.00  0.00    -0.339 N
ATOM     23  H5  UNL     1     -11.229   4.592  -1.635  1.00  0.00     0.167 HD
BRANCH  17  24
HETATM   24  O1  UNL     1     -11.137   8.661  -3.355  1.00  0.00    -0.339 OA
HETATM   25  C1  UNL     1     -10.803   9.943  -2.862  1.00  0.00     0.211 C
ENDBRANCH  17  24
BRANCH  21  26
HETATM   26  N2  UNL     1      -8.682   4.257  -1.085  1.00  0.00    -0.175 N
ATOM     27  H2  UNL     1      -8.738   4.101  -0.079  1.00  0.00     0.186 HD
BRANCH  26  28
HETATM   28  C5  UNL     1      -8.004   3.414  -1.832  1.00  0.00     0.684 A
HETATM   29  N3  UNL     1      -8.599   2.762  -2.840  1.00  0.00    -0.201 N
HETATM   30  C6  UNL     1      -7.931   1.882  -3.640  1.00  0.00     0.116 A
ATOM     31  H3  UNL     1      -9.589   2.930  -3.016  1.00  0.00     0.183 HD
HETATM   32  C7  UNL     1      -6.594   1.642  -3.419  1.00  0.00    -0.006 A
HETATM   33  C11 UNL     1      -5.973   2.304  -2.391  1.00  0.00     0.140 A
HETATM   34  N4  UNL     1      -6.709   3.168  -1.636  1.00  0.00    -0.186 N
ATOM     35  H4  UNL     1      -6.240   3.657  -0.874  1.00  0.00     0.184 HD
BRANCH  32  36
HETATM   36  C8  UNL     1      -5.841   0.677  -4.262  1.00  0.00     0.022 A
HETATM   37  C9  UNL     1      -6.544  -0.168  -5.260  1.00  0.00     0.010 A
HETATM   38  C10 UNL     1      -6.080  -0.801  -4.020  1.00  0.00     0.010 A
ENDBRANCH  32  36
BRANCH  33  39
HETATM   39  C12 UNL     1      -4.536   2.140  -2.074  1.00  0.00     0.433 C
HETATM   40  F1  UNL     1      -3.698   2.644  -3.063  1.00  0.00    -0.165 F
HETATM   41  F2  UNL     1      -4.217   2.842  -0.927  1.00  0.00    -0.165 F
HETATM   42  F3  UNL     1      -4.230   0.816  -1.798  1.00  0.00    -0.165 F
ENDBRANCH  33  39
ENDBRANCH  26  28
ENDBRANCH  21  26
ENDBRANCH  14  16
ENDBRANCH  12  14
ENDBRANCH   1  12
BRANCH   4  43
HETATM   43  N8  UNL     1     -12.732   8.636   2.182  1.00  0.00    -0.234 N
ATOM     44  H82 UNL     1     -11.760   8.861   1.971  1.00  0.00     0.174 HD
ATOM     45  H81 UNL     1     -13.052   8.586   3.148  1.00  0.00     0.174 HD
ENDBRANCH   4  43
TORSDOF 9
ENDMDL