MODEL 5
REMARK VINA RESULT: -6.185204982      2.440      3.820
REMARK  8 active torsions:
REMARK  status: ('A' for Active; 'I' for Inactive)
REMARK    1  A    between atoms: O1_2  and  C2_3
REMARK    2  A    between atoms: C2_3  and  C3_5
REMARK    3  A    between atoms: C4_6  and  N1_7
REMARK    4  A    between atoms: N1_7  and  C5_9
REMARK    5  A    between atoms: C5_9  and  C6_13
REMARK    6  A    between atoms: C6_13  and  C12_26
REMARK    7  A    between atoms: N3_14  and  N4_16
REMARK       I    between atoms: N4_16  and  C7_18
REMARK    8  A    between atoms: C7_18  and  C8_20
ROOT
HETATM    1  C5  UNL     1     -15.144   8.471  -0.994  1.00  0.00     0.134 C
HETATM    2  N2  UNL     1     -14.892   9.451  -1.776  1.00  0.00    -0.384 N
ATOM      3  H21 UNL     1     -14.435  10.282  -1.399  1.00  0.00     0.157 HD
ATOM      4  H22 UNL     1     -15.153   9.380  -2.760  1.00  0.00     0.157 HD
ENDROOT
BRANCH   1   5
HETATM    5  N1  UNL     1     -15.781   7.312  -1.521  1.00  0.00    -0.320 N
ATOM      6  H1  UNL     1     -15.216   6.620  -2.012  1.00  0.00     0.169 HD
BRANCH   5   7
HETATM    7  C4  UNL     1     -17.173   7.086  -1.386  1.00  0.00     0.166 A
HETATM    8  C3  UNL     1     -18.180   7.730  -2.039  1.00  0.00     0.099 A
HETATM    9  C15 UNL     1     -19.356   7.141  -1.556  1.00  0.00    -0.012 A
HETATM   10  C13 UNL     1     -18.999   6.175  -0.640  1.00  0.00     0.058 A
HETATM   11  C16 UNL     1     -20.729   7.538  -2.000  1.00  0.00     0.052 C
HETATM   12  O5  UNL     1     -17.702   6.174  -0.568  1.00  0.00    -0.297 OA
HETATM   13  C14 UNL     1     -19.960   5.308   0.113  1.00  0.00     0.077 C
BRANCH   8  14
HETATM   14  C2  UNL     1     -18.100   8.794  -3.023  1.00  0.00     0.297 C
HETATM   15  O2  UNL     1     -17.885   9.986  -2.607  1.00  0.00    -0.259 OA
BRANCH  14  16
HETATM   16  O1  UNL     1     -18.234   8.660  -4.379  1.00  0.00    -0.322 OA
HETATM   17  C1  UNL     1     -19.329   9.157  -5.125  1.00  0.00     0.213 C
ENDBRANCH  14  16
ENDBRANCH   8  14
ENDBRANCH   5   7
ENDBRANCH   1   5
BRANCH   1  18
HETATM   18  C6  UNL     1     -14.770   8.575   0.415  1.00  0.00     0.176 C
HETATM   19  N3  UNL     1     -15.544   9.086   1.304  1.00  0.00    -0.290 N
ATOM     20  H3  UNL     1     -15.203   9.118   2.264  1.00  0.00     0.187 HD
BRANCH  19  21
HETATM   21  N4  UNL     1     -16.816   9.599   1.055  1.00  0.00    -0.264 N
HETATM   22  C7  UNL     1     -17.011  11.004   0.892  1.00  0.00     0.293 C
HETATM   23  O3  UNL     1     -16.032  11.787   0.974  1.00  0.00    -0.264 OA
ATOM     24  H4  UNL     1     -17.613   8.967   0.988  1.00  0.00     0.190 HD
BRANCH  22  25
HETATM   25  C8  UNL     1     -18.327  11.571   0.631  1.00  0.00     0.146 A
HETATM   26  C9  UNL     1     -18.659  12.897   0.792  1.00  0.00     0.046 A
HETATM   27  C10 UNL     1     -19.974  13.030   0.448  1.00  0.00     0.048 A
HETATM   28  C11 UNL     1     -20.405  11.779   0.087  1.00  0.00     0.122 A
HETATM   29 BR1  UNL     1     -22.188  11.404  -0.487  1.00  0.00    -0.023 Br
HETATM   30  O4  UNL     1     -19.406  10.948   0.208  1.00  0.00    -0.298 OA
ENDBRANCH  22  25
ENDBRANCH  19  21
BRANCH  18  31
HETATM   31  C12 UNL     1     -13.443   8.077   0.870  1.00  0.00     0.437 C
HETATM   32  F1  UNL     1     -13.568   7.309   2.015  1.00  0.00    -0.164 F
HETATM   33  F2  UNL     1     -12.647   9.166   1.166  1.00  0.00    -0.164 F
HETATM   34  F3  UNL     1     -12.859   7.300  -0.087  1.00  0.00    -0.164 F
ENDBRANCH  18  31
ENDBRANCH   1  18
TORSDOF 8
ENDMDL