MODEL 1
REMARK VINA RESULT: -7.159152636      0.000      0.000
REMARK  8 active torsions:
REMARK  status: ('A' for Active; 'I' for Inactive)
REMARK    1  A    between atoms: C4_7  and  C5_8
REMARK    2  A    between atoms: C5_8  and  O3_10
REMARK    3  A    between atoms: O3_10  and  C6_11
REMARK    4  A    between atoms: C6_11  and  N2_12
REMARK    5  A    between atoms: C7_13  and  O4_14
REMARK    6  A    between atoms: C8_16  and  N3_17
REMARK    7  A    between atoms: C10_19  and  C11_20
REMARK    8  A    between atoms: C14_32  and  C15_33
ROOT
HETATM    1  N2  UNL     1     -14.524   8.645   0.373  1.00  0.00    -0.231 N
HETATM    2  C7  UNL     1     -13.594   7.994  -0.316  1.00  0.00     0.186 A
HETATM    3  C8  UNL     1     -12.289   7.832   0.159  1.00  0.00     0.171 A
HETATM    4  C12 UNL     1     -11.959   8.370   1.388  1.00  0.00     0.282 A
HETATM    5  O5  UNL     1     -10.783   8.220   1.792  1.00  0.00    -0.265 OA
HETATM    6  N5  UNL     1     -12.888   9.020   2.072  1.00  0.00    -0.273 N
ATOM      7  H5  UNL     1     -12.642   9.418   2.979  1.00  0.00     0.173 HD
HETATM    8  C13 UNL     1     -14.155   9.177   1.611  1.00  0.00     0.337 A
HETATM    9  O6  UNL     1     -14.983   9.794   2.282  1.00  0.00    -0.246 OA
ENDROOT
BRANCH   1  10
HETATM   10  C6  UNL     1     -15.888   8.875   0.067  1.00  0.00     0.251 C
BRANCH  10  11
HETATM   11  O3  UNL     1     -16.732   7.737   0.180  1.00  0.00    -0.269 OA
BRANCH  11  12
HETATM   12  C5  UNL     1     -17.172   7.018  -0.963  1.00  0.00     0.305 C
HETATM   13  O2  UNL     1     -16.344   6.312  -1.489  1.00  0.00    -0.259 OA
BRANCH  12  14
HETATM   14  C4  UNL     1     -18.533   7.199  -1.365  1.00  0.00     0.119 A
HETATM   15  C3  UNL     1     -19.455   6.279  -0.888  1.00  0.00     0.263 A
HETATM   16  N1  UNL     1     -20.749   6.421  -1.147  1.00  0.00    -0.325 N
HETATM   17  O1  UNL     1     -19.048   5.305  -0.185  1.00  0.00    -0.267 OA
HETATM   18  C2  UNL     1     -21.167   7.465  -1.879  1.00  0.00     0.031 A
ATOM     19  H1  UNL     1     -21.421   5.741  -0.793  1.00  0.00     0.169 HD
HETATM   20  C1  UNL     1     -22.606   7.577  -2.209  1.00  0.00     0.070 C
HETATM   21  C18 UNL     1     -20.279   8.394  -2.367  1.00  0.00     0.068 A
HETATM   22  C14 UNL     1     -18.900   8.314  -2.141  1.00  0.00     0.011 A
HETATM   23 CL1  UNL     1     -20.943   9.694  -3.327  1.00  0.00    -0.081 Cl
BRANCH  22  24
HETATM   24  C15 UNL     1     -18.002   9.143  -2.917  1.00  0.00    -0.074 C
HETATM   25  C16 UNL     1     -17.604   8.831  -4.312  1.00  0.00     0.044 C
HETATM   26  C17 UNL     1     -17.764  10.572  -2.511  1.00  0.00     0.044 C
ENDBRANCH  22  24
ENDBRANCH  12  14
ENDBRANCH  11  12
ENDBRANCH  10  11
ENDBRANCH   1  10
BRANCH   2  27
HETATM   27  O4  UNL     1     -13.924   7.446  -1.569  1.00  0.00    -0.344 OA
ATOM     28  H4  UNL     1     -13.403   6.731  -1.915  1.00  0.00     0.219 HD
ENDBRANCH   2  27
BRANCH   3  29
HETATM   29  N3  UNL     1     -11.277   7.104  -0.576  1.00  0.00    -0.277 N
HETATM   30  C9  UNL     1     -10.456   7.466  -1.718  1.00  0.00     0.213 A
HETATM   31  C10 UNL     1      -9.936   6.124  -1.506  1.00  0.00     0.129 A
HETATM   32  N4  UNL     1     -10.685   5.886  -0.534  1.00  0.00    -0.296 N
ATOM     33  H4  UNL     1     -10.806   5.073   0.070  1.00  0.00     0.187 HD
BRANCH  31  34
HETATM   34  C11 UNL     1      -8.868   5.299  -2.197  1.00  0.00     0.431 C
HETATM   35  F1  UNL     1      -8.844   5.559  -3.553  1.00  0.00    -0.165 F
HETATM   36  F2  UNL     1      -7.654   5.652  -1.628  1.00  0.00    -0.165 F
HETATM   37  F3  UNL     1      -9.078   3.953  -1.978  1.00  0.00    -0.165 F
ENDBRANCH  31  34
ENDBRANCH   3  29
TORSDOF 8
ENDMDL