MODEL 5
REMARK VINA RESULT: -6.301983386      5.885      8.354
REMARK  6 active torsions:
REMARK  status: ('A' for Active; 'I' for Inactive)
REMARK    1  A    between atoms: O1_2  and  C2_3
REMARK    2  A    between atoms: C2_3  and  C3_4
REMARK    3  A    between atoms: C8_12  and  N3_13
REMARK       I    between atoms: N3_13  and  C9_15
REMARK    4  A    between atoms: C9_15  and  C10_17
REMARK    5  A    between atoms: C11_20  and  N5_21
REMARK    6  A    between atoms: C12_26  and  N7_27
ROOT
HETATM    1  C3  UNL     1      -9.857   4.367  -3.153  1.00  0.00     0.054 A
HETATM    2  C4  UNL     1      -9.707   3.550  -4.227  1.00  0.00     0.073 A
HETATM    3  C5  UNL     1      -8.415   3.201  -4.736  1.00  0.00     0.101 C
HETATM    4  N1  UNL     1      -7.385   2.911  -5.197  1.00  0.00    -0.191 NA
HETATM    5  C6  UNL     1     -10.800   3.054  -4.969  1.00  0.00     0.111 A
HETATM    6  N2  UNL     1     -12.037   3.395  -4.617  1.00  0.00    -0.372 N
ATOM      7  H2  UNL     1     -12.828   3.039  -5.154  1.00  0.00     0.164 HD
HETATM    8  C7  UNL     1     -12.260   4.200  -3.564  1.00  0.00     0.117 A
HETATM    9  C8  UNL     1     -11.188   4.696  -2.816  1.00  0.00     0.063 A
ENDROOT
BRANCH   1  10
HETATM   10  C2  UNL     1      -8.720   4.839  -2.355  1.00  0.00     0.202 C
HETATM   11  C19 UNL     1      -8.423   3.737  -1.256  1.00  0.00     0.155 C
HETATM   12  C20 UNL     1      -6.947   3.463  -1.342  1.00  0.00     0.270 C
HETATM   13  F3  UNL     1      -6.297   3.574  -0.136  1.00  0.00    -0.204 F
HETATM   14  F4  UNL     1      -6.656   2.303  -2.011  1.00  0.00    -0.204 F
HETATM   15  C21 UNL     1      -6.511   4.690  -2.157  1.00  0.00     0.251 C
HETATM   16  O3  UNL     1      -7.560   4.647  -3.070  1.00  0.00    -0.345 OA
BRANCH  10  17
HETATM   17  O1  UNL     1      -8.708   6.014  -1.798  1.00  0.00    -0.356 OA
HETATM   18  C1  UNL     1      -8.462   7.241  -2.001  1.00  0.00     0.206 C
ENDBRANCH  10  17
ENDBRANCH   1  10
BRANCH   9  19
HETATM   19  N3  UNL     1     -11.421   5.381  -1.596  1.00  0.00    -0.320 N
HETATM   20  C9  UNL     1     -11.865   6.699  -1.568  1.00  0.00     0.274 C
HETATM   21  O2  UNL     1     -12.051   7.379  -2.635  1.00  0.00    -0.266 OA
ATOM     22  H3  UNL     1     -11.259   4.893  -0.715  1.00  0.00     0.169 HD
BRANCH  20  23
HETATM   23  C10 UNL     1     -12.153   7.442  -0.359  1.00  0.00     0.126 A
HETATM   24  N4  UNL     1     -11.112   7.674   0.519  1.00  0.00    -0.186 N
HETATM   25  C11 UNL     1     -11.245   8.374   1.638  1.00  0.00     0.678 A
ATOM     26  H4  UNL     1     -10.195   7.287   0.295  1.00  0.00     0.184 HD
HETATM   27  N6  UNL     1     -12.447   8.886   1.938  1.00  0.00    -0.176 N
HETATM   28  C12 UNL     1     -13.516   8.722   1.160  1.00  0.00     0.127 A
ATOM     29  H6  UNL     1     -12.548   9.424   2.798  1.00  0.00     0.186 HD
HETATM   30  C17 UNL     1     -13.355   7.979  -0.020  1.00  0.00     0.015 A
HETATM   31  C18 UNL     1     -14.568   7.874  -0.909  1.00  0.00     0.055 C
BRANCH  25  32
HETATM   32  N5  UNL     1     -10.261   8.573   2.436  1.00  0.00    -0.234 N
ATOM     33  H52 UNL     1      -9.383   8.078   2.277  1.00  0.00     0.174 HD
ATOM     34  H51 UNL     1     -10.327   9.212   3.227  1.00  0.00     0.174 HD
ENDBRANCH  25  32
BRANCH  28  35
HETATM   35  N7  UNL     1     -14.766   9.268   1.501  1.00  0.00    -0.360 N
HETATM   36  C13 UNL     1     -16.077   8.938   0.962  1.00  0.00     0.130 C
HETATM   37  C14 UNL     1     -16.619  10.339   0.676  1.00  0.00     0.100 C
HETATM   38  C15 UNL     1     -16.057  11.165   1.794  1.00  0.00     0.261 C
HETATM   39  F1  UNL     1     -15.443  12.316   1.327  1.00  0.00    -0.204 F
HETATM   40  F2  UNL     1     -17.052  11.516   2.694  1.00  0.00    -0.204 F
HETATM   41  C16 UNL     1     -15.017  10.300   2.488  1.00  0.00     0.203 C
ENDBRANCH  28  35
ENDBRANCH  20  23
ENDBRANCH   9  19
TORSDOF 6
ENDMDL