MODEL 3
REMARK VINA RESULT: -5.855061508      7.917     12.760
REMARK  12 active torsions:
REMARK  status: ('A' for Active; 'I' for Inactive)
REMARK    1  A    between atoms: C2_5  and  C3_6
REMARK    2  A    between atoms: C4_10  and  C5_11
REMARK    3  A    between atoms: C5_11  and  C6_12
REMARK    4  A    between atoms: C6_12  and  N3_13
REMARK    5  A    between atoms: C11_18  and  N4_19
REMARK    6  A    between atoms: N4_19  and  C12_21
REMARK    7  A    between atoms: C13_24  and  O1_25
REMARK    8  A    between atoms: C14_27  and  C15_28
REMARK    9  A    between atoms: N6_29  and  C16_31
REMARK   10  A    between atoms: C16_31  and  C17_32
REMARK   11  A    between atoms: C17_32  and  C18_34
REMARK   12  A    between atoms: C18_34  and  O2_37
ROOT
HETATM    1  N4  UNL     1      -9.011   8.718  -1.811  1.00  0.00    -0.320 N
ATOM      2  H4  UNL     1      -9.021   9.513  -2.449  1.00  0.00     0.169 HD
ENDROOT
BRANCH   1   3
HETATM    3  C11 UNL     1      -9.595   8.791  -0.521  1.00  0.00     0.145 A
HETATM    4  N1  UNL     1      -8.988   9.107   0.633  1.00  0.00    -0.279 N
HETATM    5  C1  UNL     1      -7.592   9.441   0.793  1.00  0.00     0.179 C
HETATM    6  N2  UNL     1      -9.849   9.075   1.636  1.00  0.00    -0.292 N
HETATM    7  C2  UNL     1     -11.060   8.734   1.177  1.00  0.00     0.155 A
ATOM      8  H2  UNL     1      -9.625   9.277   2.610  1.00  0.00     0.187 HD
HETATM    9  C4  UNL     1     -10.910   8.551  -0.199  1.00  0.00     0.098 A
BRANCH   7  10
HETATM   10  C3  UNL     1     -12.344   8.562   1.882  1.00  0.00     0.435 C
HETATM   11  F1  UNL     1     -12.170   8.583   3.251  1.00  0.00    -0.165 F
HETATM   12  F2  UNL     1     -13.249   9.555   1.567  1.00  0.00    -0.165 F
HETATM   13  F3  UNL     1     -12.895   7.346   1.543  1.00  0.00    -0.165 F
ENDBRANCH   7  10
BRANCH   9  14
HETATM   14  C5  UNL     1     -11.917   8.180  -1.148  1.00  0.00    -0.038 C
BRANCH  14  15
HETATM   15  C6  UNL     1     -12.766   7.870  -1.974  1.00  0.00     0.014 C
BRANCH  15  16
HETATM   16  N3  UNL     1     -13.754   7.527  -2.904  1.00  0.00    -0.341 N
HETATM   17  C7  UNL     1     -14.734   8.392  -3.541  1.00  0.00     0.133 C
HETATM   18  C8  UNL     1     -15.327   7.570  -4.635  1.00  0.00     0.022 C
HETATM   19  C9  UNL     1     -14.459   6.359  -4.793  1.00  0.00     0.022 C
HETATM   20  C10 UNL     1     -13.930   6.160  -3.378  1.00  0.00     0.133 C
ENDBRANCH  15  16
ENDBRANCH  14  15
ENDBRANCH   9  14
ENDBRANCH   1   3
BRANCH   1  21
HETATM   21  C12 UNL     1      -8.454   7.570  -2.143  1.00  0.00     0.153 A
HETATM   22  N5  UNL     1      -8.712   6.361  -1.634  1.00  0.00    -0.316 N
HETATM   23  C13 UNL     1      -8.051   5.340  -2.098  1.00  0.00     0.161 A
ATOM     24  H5  UNL     1      -9.410   6.243  -0.900  1.00  0.00     0.170 HD
HETATM   25  C14 UNL     1      -7.129   5.556  -3.080  1.00  0.00     0.074 A
HETATM   26  S1  UNL     1      -7.246   7.246  -3.306  1.00  0.00    -0.048 SA
BRANCH  23  27
HETATM   27  O1  UNL     1      -8.256   4.019  -1.619  1.00  0.00    -0.345 OA
ATOM     28  H1  UNL     1      -7.791   3.271  -1.973  1.00  0.00     0.219 HD
ENDBRANCH  23  27
BRANCH  25  29
HETATM   29  C15 UNL     1      -6.265   4.596  -3.764  1.00  0.00     0.106 C
HETATM   30  N6  UNL     1      -5.752   3.646  -3.098  1.00  0.00    -0.395 N
ATOM     31  H6  UNL     1      -5.967   3.593  -2.102  1.00  0.00     0.159 HD
BRANCH  30  32
HETATM   32  C16 UNL     1      -4.886   2.637  -3.652  1.00  0.00     0.159 C
BRANCH  32  33
HETATM   33  C17 UNL     1      -5.187   1.338  -2.948  1.00  0.00     0.221 C
HETATM   34  F4  UNL     1      -4.154   0.464  -3.229  1.00  0.00    -0.245 F
BRANCH  33  35
HETATM   35  C18 UNL     1      -6.472   0.702  -3.417  1.00  0.00     0.083 C
HETATM   36  C19 UNL     1      -6.368  -0.783  -3.095  1.00  0.00     0.048 C
HETATM   37  C20 UNL     1      -6.633   0.867  -4.915  1.00  0.00     0.048 C
BRANCH  35  38
HETATM   38  O2  UNL     1      -7.567   1.258  -2.802  1.00  0.00    -0.388 OA
ATOM     39  H2  UNL     1      -8.109   0.597  -2.387  1.00  0.00     0.210 HD
ENDBRANCH  35  38
ENDBRANCH  33  35
ENDBRANCH  32  33
ENDBRANCH  30  32
ENDBRANCH  25  29
ENDBRANCH   1  21
TORSDOF 12
ENDMDL