MODEL 5
REMARK VINA RESULT: -7.163646330      4.015      9.775
REMARK  5 active torsions:
REMARK  status: ('A' for Active; 'I' for Inactive)
REMARK    1  A    between atoms: C5_8  and  C6_9
REMARK    2  A    between atoms: C8_11  and  C9_13
REMARK       I    between atoms: C9_13  and  N2_15
REMARK    3  A    between atoms: N2_15  and  C10_17
REMARK    4  A    between atoms: C13_23  and  C14_24
REMARK    5  A    between atoms: C20_33  and  C21_34
ROOT
HETATM    1  C6  UNL     1     -13.537   7.308  -2.083  1.00  0.00     0.047 A
HETATM    2  C7  UNL     1     -14.300   7.568  -1.060  1.00  0.00     0.057 A
HETATM    3  C8  UNL     1     -13.739   8.161   0.183  1.00  0.00     0.208 A
HETATM    4  F1  UNL     1     -13.978   7.161   1.154  1.00  0.00    -0.228 F
HETATM    5  C19 UNL     1     -12.311   8.505   0.213  1.00  0.00     0.115 A
HETATM    6  C20 UNL     1     -11.567   8.163  -1.003  1.00  0.00     0.050 A
HETATM    7  N7  UNL     1     -12.136   7.633  -2.006  1.00  0.00    -0.358 N
ATOM      8  H7  UNL     1     -11.558   7.421  -2.820  1.00  0.00     0.165 HD
ENDROOT
BRANCH   3   9
HETATM    9  C9  UNL     1     -14.577   9.369   0.545  1.00  0.00     0.266 C
HETATM   10  O2  UNL     1     -14.287  10.424   0.013  1.00  0.00    -0.269 OA
HETATM   11  N2  UNL     1     -15.634   9.235   1.459  1.00  0.00    -0.321 N
ATOM     12  H2  UNL     1     -15.824   8.320   1.868  1.00  0.00     0.169 HD
BRANCH  11  13
HETATM   13  C10 UNL     1     -16.445  10.338   1.830  1.00  0.00     0.079 A
HETATM   14  C11 UNL     1     -16.353  11.100   2.941  1.00  0.00     0.139 A
HETATM   15  N3  UNL     1     -17.306  12.032   2.882  1.00  0.00    -0.308 N
HETATM   16  N4  UNL     1     -17.994  11.865   1.752  1.00  0.00    -0.296 N
ATOM     17  H3  UNL     1     -17.480  12.752   3.584  1.00  0.00     0.186 HD
HETATM   18  C12 UNL     1     -19.095  12.716   1.420  1.00  0.00     0.177 C
HETATM   19  C13 UNL     1     -17.520  10.844   1.058  1.00  0.00     0.085 A
BRANCH  19  20
HETATM   20  C14 UNL     1     -17.926  10.245  -0.217  1.00  0.00     0.175 C
HETATM   21  C15 UNL     1     -19.150  10.766  -0.848  1.00  0.00     0.044 C
HETATM   22  C16 UNL     1     -19.374  10.114  -2.194  1.00  0.00     0.084 C
HETATM   23  C17 UNL     1     -19.017   8.658  -2.211  1.00  0.00     0.264 C
HETATM   24  F2  UNL     1     -18.723   8.280  -3.521  1.00  0.00    -0.204 F
HETATM   25  F3  UNL     1     -20.101   7.888  -1.809  1.00  0.00    -0.204 F
HETATM   26  C18 UNL     1     -17.854   8.305  -1.358  1.00  0.00     0.247 C
HETATM   27  O3  UNL     1     -18.016   8.829  -0.087  1.00  0.00    -0.374 OA
ENDBRANCH  19  20
ENDBRANCH  11  13
ENDBRANCH   3   9
BRANCH   1  28
HETATM   28  C5  UNL     1     -14.051   6.730  -3.313  1.00  0.00     0.046 A
HETATM   29  C2  UNL     1     -14.868   7.226  -4.283  1.00  0.00     0.043 A
HETATM   30  C1  UNL     1     -15.430   8.577  -4.400  1.00  0.00     0.071 C
HETATM   31  N1  UNL     1     -15.066   6.225  -5.190  1.00  0.00    -0.265 N
HETATM   32  O1  UNL     1     -14.418   5.186  -4.811  1.00  0.00    -0.242 OA
ATOM     33  H1  UNL     1     -15.637   6.293  -6.032  1.00  0.00     0.194 HD
HETATM   34  C3  UNL     1     -13.785   5.420  -3.691  1.00  0.00     0.087 A
HETATM   35  C4  UNL     1     -12.943   4.443  -2.971  1.00  0.00     0.080 C
ENDBRANCH   1  28
BRANCH   6  36
HETATM   36  C21 UNL     1     -10.080   8.470  -1.060  1.00  0.00     0.241 C
HETATM   37  F4  UNL     1      -9.276   7.422  -1.371  1.00  0.00    -0.214 F
HETATM   38  C22 UNL     1      -9.752   9.769  -1.768  1.00  0.00     0.200 C
HETATM   39  N5  UNL     1      -8.712   9.844  -0.726  1.00  0.00    -0.140 NA
HETATM   40  N6  UNL     1      -9.654   9.170   0.110  1.00  0.00    -0.097 NA
ENDBRANCH   6  36
TORSDOF 5
ENDMDL