MODEL 1
REMARK VINA RESULT: -6.496851472      0.000      0.000
REMARK  9 active torsions:
REMARK  status: ('A' for Active; 'I' for Inactive)
REMARK    1  A    between atoms: O1_2  and  C2_3
REMARK    2  A    between atoms: C2_3  and  C3_5
REMARK    3  A    between atoms: C4_6  and  N1_7
REMARK       I    between atoms: N1_7  and  C5_9
REMARK    4  A    between atoms: C5_9  and  C6_11
REMARK    5  A    between atoms: C6_11  and  N2_12
REMARK    6  A    between atoms: C6_11  and  N4_26
REMARK    7  A    between atoms: N2_12  and  C7_14
REMARK    8  A    between atoms: C12_21  and  N3_22
REMARK    9  A    between atoms: C15_29  and  C16_30
ROOT
HETATM    1  C6  UNL     1     -16.874   9.352  -1.210  1.00  0.00     0.294 C
ENDROOT
BRANCH   1   2
HETATM    2  C5  UNL     1     -15.668   8.461  -1.260  1.00  0.00     0.266 C
HETATM    3  N1  UNL     1     -14.749   8.587  -2.316  1.00  0.00    -0.317 N
ATOM      4  H1  UNL     1     -14.893   9.311  -3.019  1.00  0.00     0.169 HD
HETATM    5  O3  UNL     1     -15.533   7.600  -0.320  1.00  0.00    -0.269 OA
BRANCH   3   6
HETATM    6  C4  UNL     1     -13.606   7.714  -2.425  1.00  0.00     0.094 A
HETATM    7  C3  UNL     1     -12.342   7.859  -1.938  1.00  0.00     0.080 A
HETATM    8  C18 UNL     1     -11.470   6.840  -2.206  1.00  0.00    -0.026 A
HETATM    9  C17 UNL     1     -11.917   5.786  -2.916  1.00  0.00    -0.008 A
HETATM   10  C19 UNL     1      -9.994   6.577  -1.943  1.00  0.00     0.041 C
HETATM   11  S1  UNL     1     -13.545   6.184  -3.226  1.00  0.00    -0.075 SA
HETATM   12  C21 UNL     1     -10.838   4.749  -3.118  1.00  0.00     0.047 C
HETATM   13  C20 UNL     1      -9.891   5.080  -2.006  1.00  0.00     0.010 C
BRANCH   7  14
HETATM   14  C2  UNL     1     -11.966   9.086  -1.176  1.00  0.00     0.296 C
HETATM   15  O2  UNL     1     -11.084   9.859  -1.511  1.00  0.00    -0.259 OA
BRANCH  14  16
HETATM   16  O1  UNL     1     -12.638   9.441   0.022  1.00  0.00    -0.322 OA
HETATM   17  C1  UNL     1     -12.461   8.653   1.190  1.00  0.00     0.213 C
ENDBRANCH  14  16
ENDBRANCH   7  14
ENDBRANCH   3   6
ENDBRANCH   1   2
BRANCH   1  18
HETATM   18  N2  UNL     1     -17.112   9.903   0.083  1.00  0.00    -0.386 N
ATOM     19  H2  UNL     1     -17.475   9.322   0.838  1.00  0.00     0.156 HD
BRANCH  18  20
HETATM   20  C7  UNL     1     -16.832  11.279   0.297  1.00  0.00     0.115 C
HETATM   21  C8  UNL     1     -15.857  11.624   1.321  1.00  0.00     0.105 C
HETATM   22  C9  UNL     1     -16.434  11.708   2.695  1.00  0.00     0.245 C
HETATM   23  F1  UNL     1     -15.523  12.439   3.484  1.00  0.00    -0.206 F
HETATM   24  F2  UNL     1     -16.513  10.462   3.272  1.00  0.00    -0.206 F
HETATM   25  C10 UNL     1     -17.723  12.454   2.788  1.00  0.00     0.081 C
HETATM   26  C11 UNL     1     -18.730  12.121   1.719  1.00  0.00     0.040 C
HETATM   27  C12 UNL     1     -18.126  12.094   0.348  1.00  0.00     0.206 C
BRANCH  27  28
HETATM   28  N3  UNL     1     -17.992  13.365  -0.257  1.00  0.00    -0.073 N
ATOM     29  H33 UNL     1     -17.021  13.550  -0.510  1.00  0.00     0.274 HD
ATOM     30  H32 UNL     1     -18.410  13.374  -1.187  1.00  0.00     0.274 HD
ATOM     31  H31 UNL     1     -18.369  14.117   0.322  1.00  0.00     0.274 HD
ENDBRANCH  27  28
ENDBRANCH  18  20
ENDBRANCH   1  18
BRANCH   1  32
HETATM   32  N4  UNL     1     -18.064   8.507  -1.427  1.00  0.00    -0.270 N
HETATM   33  C13 UNL     1     -19.032   8.691  -2.286  1.00  0.00     0.115 A
HETATM   34  C14 UNL     1     -19.990   7.680  -2.103  1.00  0.00     0.054 A
HETATM   35  C15 UNL     1     -19.483   6.900  -1.067  1.00  0.00     0.133 A
HETATM   36  N5  UNL     1     -18.313   7.449  -0.698  1.00  0.00    -0.292 N
ATOM     37  H5  UNL     1     -17.709   7.094   0.043  1.00  0.00     0.187 HD
BRANCH  35  38
HETATM   38  C16 UNL     1     -20.103   5.715  -0.456  1.00  0.00     0.433 C
HETATM   39  F3  UNL     1     -19.237   4.655  -0.443  1.00  0.00    -0.165 F
HETATM   40  F4  UNL     1     -21.250   5.387  -1.163  1.00  0.00    -0.165 F
HETATM   41  F5  UNL     1     -20.506   5.989   0.856  1.00  0.00    -0.165 F
ENDBRANCH  35  38
ENDBRANCH   1  32
TORSDOF 9
ENDMDL