MODEL 2
REMARK VINA RESULT: -6.082584368      1.385      1.765
REMARK  10 active torsions:
REMARK  status: ('A' for Active; 'I' for Inactive)
REMARK    1  A    between atoms: C4_6  and  O1_7
REMARK    2  A    between atoms: O1_7  and  C5_8
REMARK    3  A    between atoms: C5_8  and  C6_9
REMARK    4  A    between atoms: C6_9  and  O2_10
REMARK    5  A    between atoms: C6_9  and  O3_12
REMARK    6  A    between atoms: O3_12  and  C7_13
REMARK       I    between atoms: N2_18  and  C12_19
REMARK    7  A    between atoms: C12_19  and  O5_21
REMARK    8  A    between atoms: O5_21  and  C13_22
REMARK    9  A    between atoms: C13_22  and  C14_24
REMARK   10  A    between atoms: C16_29  and  O6_31
ROOT
HETATM    1  C7  UNL     1      -9.483   6.906  -2.385  1.00  0.00     0.162 C
HETATM    2  C8  UNL     1      -8.932   6.642  -3.742  1.00  0.00     0.065 C
HETATM    3  C9  UNL     1      -7.910   5.530  -3.655  1.00  0.00     0.033 C
HETATM    4  C10 UNL     1      -7.673   5.031  -5.081  1.00  0.00     0.038 C
HETATM    5  C11 UNL     1      -6.560   6.120  -3.222  1.00  0.00     0.038 C
HETATM    6  N2  UNL     1      -8.293   4.441  -2.794  1.00  0.00    -0.316 N
HETATM    7  C12 UNL     1      -7.928   3.088  -3.029  1.00  0.00     0.365 C
HETATM    8  O4  UNL     1      -8.295   2.198  -2.250  1.00  0.00    -0.238 OA
HETATM    9  C15 UNL     1      -9.098   4.672  -1.581  1.00  0.00     0.169 C
HETATM   10  C16 UNL     1     -10.192   5.654  -1.941  1.00  0.00     0.096 C
HETATM   11  C17 UNL     1     -10.993   5.010  -3.044  1.00  0.00     0.050 C
ENDROOT
BRANCH   1  12
HETATM   12  O3  UNL     1     -10.209   8.063  -2.259  1.00  0.00    -0.351 OA
BRANCH  12  13
HETATM   13  C6  UNL     1      -9.568   9.110  -1.649  1.00  0.00     0.281 C
BRANCH  13  14
HETATM   14  C5  UNL     1      -9.672   8.918  -0.149  1.00  0.00     0.238 C
BRANCH  14  15
HETATM   15  O1  UNL     1     -10.846   9.548   0.362  1.00  0.00    -0.328 OA
BRANCH  15  16
HETATM   16  C4  UNL     1     -12.070   8.915   0.384  1.00  0.00     0.198 A
HETATM   17  C3  UNL     1     -12.815   8.598   1.482  1.00  0.00     0.185 A
HETATM   18  C2  UNL     1     -13.957   7.978   1.027  1.00  0.00     0.156 A
HETATM   19  F1  UNL     1     -12.538   8.824   2.792  1.00  0.00    -0.200 F
HETATM   20  N1  UNL     1     -13.903   7.921  -0.320  1.00  0.00    -0.303 N
HETATM   21  C1  UNL     1     -14.904   7.346  -1.221  1.00  0.00     0.177 C
HETATM   22  N3  UNL     1     -12.774   8.483  -0.681  1.00  0.00    -0.276 N
ATOM     23  H3  UNL     1     -12.466   8.581  -1.649  1.00  0.00     0.189 HD
ENDBRANCH  15  16
ENDBRANCH  14  15
ENDBRANCH  13  14
BRANCH  13  24
HETATM   24  O2  UNL     1     -10.360  10.256  -1.916  1.00  0.00    -0.369 OA
ATOM     25  H2  UNL     1     -10.245  10.413  -2.846  1.00  0.00     0.212 HD
ENDBRANCH  13  24
ENDBRANCH  12  13
ENDBRANCH   1  12
BRANCH  10  26
HETATM   26  O6  UNL     1     -10.992   5.816  -0.840  1.00  0.00    -0.386 OA
ATOM     27  H6  UNL     1     -11.362   5.009  -0.501  1.00  0.00     0.210 HD
ENDBRANCH  10  26
BRANCH   7  28
HETATM   28  O5  UNL     1      -7.175   2.622  -4.075  1.00  0.00    -0.278 OA
BRANCH  28  29
HETATM   29  C13 UNL     1      -6.926   1.347  -4.468  1.00  0.00     0.283 C
HETATM   30 CL1  UNL     1      -6.781   1.368  -6.267  1.00  0.00    -0.090 Cl
BRANCH  29  31
HETATM   31  C14 UNL     1      -5.786   0.580  -3.960  1.00  0.00     0.228 C
HETATM   32 CL2  UNL     1      -4.870   1.358  -2.666  1.00  0.00    -0.080 Cl
HETATM   33 CL3  UNL     1      -4.748  -0.136  -5.201  1.00  0.00    -0.080 Cl
HETATM   34 CL4  UNL     1      -6.529  -0.863  -3.149  1.00  0.00    -0.080 Cl
ENDBRANCH  29  31
ENDBRANCH  28  29
ENDBRANCH   7  28
TORSDOF 10
ENDMDL