MODEL 3
REMARK VINA RESULT: -6.688721899      5.013     11.818
REMARK  10 active torsions:
REMARK  status: ('A' for Active; 'I' for Inactive)
REMARK    1  A    between atoms: O1_2  and  C2_3
REMARK    2  A    between atoms: C7_8  and  O2_9
REMARK    3  A    between atoms: O2_9  and  C8_10
REMARK       I    between atoms: N1_13  and  C11_14
REMARK    4  A    between atoms: C11_14  and  O4_16
REMARK    5  A    between atoms: O4_16  and  C12_17
REMARK    6  A    between atoms: C12_17  and  C13_18
REMARK    7  A    between atoms: C12_17  and  C16_23
REMARK    8  A    between atoms: C13_18  and  O5_21
REMARK    9  A    between atoms: C18_31  and  C19_32
REMARK   10  A    between atoms: C20_36  and  N3_37
ROOT
HETATM    1  C2  UNL     1     -15.675  11.052  -0.491  1.00  0.00     0.102 A
HETATM    2  C3  UNL     1     -16.774  11.857  -0.464  1.00  0.00     0.049 A
HETATM    3  C4  UNL     1     -17.414  12.263   0.695  1.00  0.00    -0.029 A
HETATM    4  C5  UNL     1     -16.915  11.831   1.892  1.00  0.00     0.037 A
HETATM    5  C6  UNL     1     -15.786  11.003   1.889  1.00  0.00     0.069 A
HETATM    6  C7  UNL     1     -15.165  10.610   0.735  1.00  0.00     0.107 A
HETATM    7  N2  UNL     1     -17.397  12.114   3.183  1.00  0.00    -0.375 N
ATOM      8  H2  UNL     1     -17.044  11.479   3.900  1.00  0.00     0.160 HD
HETATM    9  C18 UNL     1     -18.298  13.132   3.698  1.00  0.00     0.220 C
HETATM   10  C20 UNL     1     -18.591  14.087   2.595  1.00  0.00     0.215 C
HETATM   11  C21 UNL     1     -19.415  13.372   1.544  1.00  0.00     0.040 C
HETATM   12  C22 UNL     1     -18.564  13.128   0.335  1.00  0.00     0.043 C
ENDROOT
BRANCH   6  13
HETATM   13  O2  UNL     1     -14.065   9.804   0.715  1.00  0.00    -0.317 OA
BRANCH  13  14
HETATM   14  C8  UNL     1     -13.548   9.028   1.743  1.00  0.00     0.270 C
HETATM   15  C9  UNL     1     -12.034   9.060   1.747  1.00  0.00     0.081 C
HETATM   16  C10 UNL     1     -11.397   8.157   0.749  1.00  0.00     0.135 C
HETATM   17  N1  UNL     1     -12.316   7.347  -0.006  1.00  0.00    -0.306 N
HETATM   18  C11 UNL     1     -11.815   6.512  -1.030  1.00  0.00     0.365 C
HETATM   19  C17 UNL     1     -13.729   7.366   0.255  1.00  0.00     0.301 C
HETATM   20  O3  UNL     1     -10.586   6.482  -1.274  1.00  0.00    -0.238 OA
HETATM   21  O6  UNL     1     -13.934   7.693   1.612  1.00  0.00    -0.342 OA
BRANCH  18  22
HETATM   22  O4  UNL     1     -12.632   5.697  -1.809  1.00  0.00    -0.286 OA
BRANCH  22  23
HETATM   23  C12 UNL     1     -12.518   5.711  -3.221  1.00  0.00     0.274 C
BRANCH  23  24
HETATM   24  C13 UNL     1     -12.173   4.344  -3.763  1.00  0.00     0.086 C
HETATM   25  C14 UNL     1     -11.664   4.436  -5.173  1.00  0.00     0.048 C
HETATM   26  C15 UNL     1     -13.275   3.350  -3.635  1.00  0.00     0.048 C
BRANCH  24  27
HETATM   27  O5  UNL     1     -11.091   3.885  -2.975  1.00  0.00    -0.388 OA
ATOM     28  H5  UNL     1     -10.662   3.216  -3.496  1.00  0.00     0.210 HD
ENDBRANCH  24  27
ENDBRANCH  23  24
BRANCH  23  29
HETATM   29  C16 UNL     1     -13.805   6.257  -3.799  1.00  0.00     0.416 C
HETATM   30  F1  UNL     1     -14.709   6.302  -2.728  1.00  0.00    -0.168 F
HETATM   31  F2  UNL     1     -14.354   5.457  -4.752  1.00  0.00    -0.168 F
HETATM   32  F3  UNL     1     -13.644   7.568  -4.196  1.00  0.00    -0.168 F
ENDBRANCH  23  29
ENDBRANCH  22  23
ENDBRANCH  18  22
ENDBRANCH  13  14
ENDBRANCH   6  13
BRANCH   1  33
HETATM   33  O1  UNL     1     -15.060  10.666  -1.677  1.00  0.00    -0.353 OA
HETATM   34  C1  UNL     1     -15.652   9.620  -2.416  1.00  0.00     0.210 C
ENDBRANCH   1  33
BRANCH   9  35
HETATM   35  C19 UNL     1     -17.691  13.763   4.917  1.00  0.00     0.409 C
HETATM   36  F4  UNL     1     -17.045  14.941   4.597  1.00  0.00    -0.169 F
HETATM   37  F5  UNL     1     -18.563  13.984   5.928  1.00  0.00    -0.169 F
HETATM   38  F6  UNL     1     -16.700  12.900   5.385  1.00  0.00    -0.169 F
ENDBRANCH   9  35
BRANCH  10  39
HETATM   39  N3  UNL     1     -19.330  15.255   3.006  1.00  0.00    -0.073 N
ATOM     40  H33 UNL     1     -19.591  15.816   2.195  1.00  0.00     0.274 HD
ATOM     41  H32 UNL     1     -20.257  14.992   3.340  1.00  0.00     0.274 HD
ATOM     42  H31 UNL     1     -18.851  15.830   3.698  1.00  0.00     0.274 HD
ENDBRANCH  10  39
TORSDOF 10
ENDMDL