MODEL 1
REMARK VINA RESULT: -7.867487742      0.000      0.000
REMARK  9 active torsions:
REMARK  status: ('A' for Active; 'I' for Inactive)
REMARK    1  A    between atoms: C2_2  and  N1_3
REMARK    2  A    between atoms: C2_2  and  C20_37
REMARK    3  A    between atoms: C5_8  and  N3_9
REMARK    4  A    between atoms: N3_9  and  C6_11
REMARK    5  A    between atoms: N4_14  and  C9_15
REMARK    6  A    between atoms: C9_15  and  O1_16
REMARK    7  A    between atoms: C9_15  and  C10_18
REMARK    8  A    between atoms: C12_21  and  C13_22
REMARK    9  A    between atoms: C16_29  and  C17_30
ROOT
HETATM    1  N1  UNL     1     -15.643   7.952  -0.567  1.00  0.00    -0.291 N
HETATM    2  C3  UNL     1     -15.088   7.208  -1.617  1.00  0.00     0.190 A
HETATM    3  N2  UNL     1     -13.810   7.085  -1.489  1.00  0.00    -0.347 N
ATOM      4  H2  UNL     1     -13.199   6.583  -2.134  1.00  0.00     0.167 HD
HETATM    5  C4  UNL     1     -13.410   7.713  -0.388  1.00  0.00     0.106 A
HETATM    6  C5  UNL     1     -12.125   7.859   0.153  1.00  0.00     0.076 A
HETATM    7  C16 UNL     1     -12.036   8.601   1.345  1.00  0.00     0.073 A
HETATM    8  C18 UNL     1     -13.204   9.101   1.853  1.00  0.00     0.108 A
HETATM    9  N7  UNL     1     -14.424   8.940   1.303  1.00  0.00    -0.349 N
ATOM     10  H7  UNL     1     -15.245   9.347   1.749  1.00  0.00     0.167 HD
HETATM   11  C19 UNL     1     -14.553   8.237   0.160  1.00  0.00     0.142 A
ENDROOT
BRANCH   6  12
HETATM   12  N3  UNL     1     -11.085   7.396  -0.326  1.00  0.00    -0.381 N
ATOM     13  H3  UNL     1     -10.486   7.071   0.433  1.00  0.00     0.160 HD
BRANCH  12  14
HETATM   14  C6  UNL     1     -10.439   7.162  -1.548  1.00  0.00     0.112 C
HETATM   15  C7  UNL     1      -9.097   7.762  -1.715  1.00  0.00     0.057 C
HETATM   16  C8  UNL     1      -8.232   6.736  -2.401  1.00  0.00     0.278 C
HETATM   17  N4  UNL     1      -8.992   5.502  -2.487  1.00  0.00     0.125 N
HETATM   18  C15 UNL     1     -10.195   5.663  -1.775  1.00  0.00     0.301 C
BRANCH  17  19
HETATM   19  C9  UNL     1      -8.106   4.484  -2.025  1.00  0.00     0.408 C
BRANCH  19  20
HETATM   20  O1  UNL     1      -8.562   3.902  -0.859  1.00  0.00    -0.363 OA
ATOM     21  H1  UNL     1      -7.863   3.463  -0.390  1.00  0.00     0.212 HD
ENDBRANCH  19  20
BRANCH  19  22
HETATM   22  C10 UNL     1      -7.688   3.460  -3.060  1.00  0.00     0.075 A
HETATM   23  C11 UNL     1      -7.821   3.687  -4.399  1.00  0.00     0.081 A
HETATM   24  S1  UNL     1      -7.248   2.210  -5.076  1.00  0.00    -0.080 SA
HETATM   25  C12 UNL     1      -6.877   1.401  -3.614  1.00  0.00     0.123 A
HETATM   26  N5  UNL     1      -7.203   2.285  -2.712  1.00  0.00    -0.348 N
ATOM     27  H5  UNL     1      -7.081   2.063  -1.723  1.00  0.00     0.166 HD
BRANCH  25  28
HETATM   28  C13 UNL     1      -6.317   0.005  -3.453  1.00  0.00     0.288 C
HETATM   29  C14 UNL     1      -5.963  -0.604  -4.758  1.00  0.00     0.098 C
HETATM   30  F1  UNL     1      -5.188   0.160  -2.662  1.00  0.00    -0.199 F
HETATM   31  F2  UNL     1      -7.254  -0.728  -2.738  1.00  0.00    -0.199 F
ENDBRANCH  25  28
ENDBRANCH  19  22
ENDBRANCH  17  19
ENDBRANCH  12  14
ENDBRANCH   6  12
BRANCH   7  32
HETATM   32  C17 UNL     1     -10.780   8.857   2.043  1.00  0.00     0.268 C
HETATM   33  N6  UNL     1      -9.672   9.450   1.319  1.00  0.00    -0.057 NA
HETATM   34  O2  UNL     1     -10.666   8.575   3.235  1.00  0.00    -0.271 OA
ENDBRANCH   7  32
BRANCH   1  35
HETATM   35  C2  UNL     1     -17.026   8.227  -0.509  1.00  0.00     0.099 C
HETATM   36  C1  UNL     1     -17.852   7.183  -1.296  1.00  0.00     0.073 C
BRANCH  35  37
HETATM   37  C20 UNL     1     -17.626   9.552  -0.564  1.00  0.00     0.428 C
HETATM   38  F3  UNL     1     -18.973   9.608  -0.881  1.00  0.00    -0.165 F
HETATM   39  F4  UNL     1     -17.621  10.139   0.751  1.00  0.00    -0.165 F
HETATM   40  F5  UNL     1     -16.910  10.509  -1.289  1.00  0.00    -0.165 F
ENDBRANCH  35  37
ENDBRANCH   1  35
TORSDOF 9
ENDMDL