MODEL 4
REMARK VINA RESULT: -5.998554043      3.248      5.435
REMARK  9 active torsions:
REMARK  status: ('A' for Active; 'I' for Inactive)
REMARK    1  A    between atoms: C3_6  and  N3_7
REMARK       I    between atoms: N3_7  and  C4_9
REMARK    2  A    between atoms: C4_9  and  C5_11
REMARK    3  A    between atoms: C7_15  and  C8_16
REMARK    4  A    between atoms: C12_22  and  N6_23
REMARK    5  A    between atoms: C15_26  and  N7_28
REMARK    6  A    between atoms: C17_32  and  N8_34
REMARK    7  A    between atoms: N9_39  and  C20_41
REMARK    8  A    between atoms: C20_41  and  C21_42
REMARK    9  A    between atoms: C21_42  and  C22_45
ROOT
HETATM    1  N6  UNL     1     -10.102   5.667  -4.068  1.00  0.00    -0.318 N
HETATM    2  C13 UNL     1     -10.055   6.895  -4.820  1.00  0.00     0.135 C
HETATM    3  C14 UNL     1      -9.138   6.987  -5.960  1.00  0.00     0.061 C
HETATM    4  C15 UNL     1      -8.087   5.928  -6.074  1.00  0.00     0.161 C
HETATM    5  C16 UNL     1      -6.924   6.195  -5.145  1.00  0.00     0.049 C
HETATM    6  C17 UNL     1      -8.697   4.569  -5.820  1.00  0.00     0.209 C
HETATM    7  C18 UNL     1      -9.850   4.450  -6.781  1.00  0.00     0.057 C
HETATM    8  C19 UNL     1      -9.163   4.644  -4.372  1.00  0.00     0.120 C
HETATM    9  N9  UNL     1      -8.702   3.799  -3.571  1.00  0.00    -0.371 N
ATOM     10  H9  UNL     1      -8.047   3.181  -4.051  1.00  0.00     0.161 HD
ENDROOT
BRANCH   1  11
HETATM   11  C12 UNL     1     -11.055   5.433  -3.050  1.00  0.00     0.154 A
HETATM   12  N1  UNL     1     -12.165   4.682  -3.103  1.00  0.00    -0.279 N
HETATM   13  C1  UNL     1     -12.659   3.848  -4.208  1.00  0.00     0.179 C
HETATM   14  N2  UNL     1     -12.829   4.762  -1.960  1.00  0.00    -0.306 N
HETATM   15  C2  UNL     1     -12.173   5.573  -1.108  1.00  0.00     0.141 A
ATOM     16  H2  UNL     1     -13.705   4.281  -1.755  1.00  0.00     0.186 HD
HETATM   17  C3  UNL     1     -11.049   6.015  -1.762  1.00  0.00     0.098 A
BRANCH  17  18
HETATM   18  N3  UNL     1     -10.047   6.855  -1.269  1.00  0.00    -0.317 N
HETATM   19  C4  UNL     1     -10.003   8.270  -1.319  1.00  0.00     0.274 C
HETATM   20  O1  UNL     1     -10.987   8.863  -1.883  1.00  0.00    -0.266 OA
ATOM     21  H3  UNL     1      -9.254   6.395  -0.821  1.00  0.00     0.169 HD
BRANCH  19  22
HETATM   22  C5  UNL     1      -8.932   9.066  -0.781  1.00  0.00     0.116 A
HETATM   23  C6  UNL     1      -7.908   9.480  -1.600  1.00  0.00     0.123 A
HETATM   24  N4  UNL     1      -6.882  10.222  -1.173  1.00  0.00    -0.365 N
HETATM   25  C7  UNL     1      -6.814  10.599   0.112  1.00  0.00     0.028 A
ATOM     26  H4  UNL     1      -6.149  10.502  -1.825  1.00  0.00     0.165 HD
HETATM   27  C11 UNL     1      -7.821  10.202   0.959  1.00  0.00     0.114 A
HETATM   28  N5  UNL     1      -8.867   9.443   0.510  1.00  0.00    -0.358 N
ATOM     29  H5  UNL     1      -9.602   9.160   1.158  1.00  0.00     0.165 HD
BRANCH  25  30
HETATM   30  C8  UNL     1      -5.671  11.426   0.601  1.00  0.00     0.037 A
HETATM   31  C9  UNL     1      -4.352  11.374  -0.111  1.00  0.00     0.011 A
HETATM   32  C10 UNL     1      -4.494  10.701   1.206  1.00  0.00     0.011 A
ENDBRANCH  25  30
ENDBRANCH  19  22
ENDBRANCH  17  18
ENDBRANCH   1  11
BRANCH   6  33
HETATM   33  N8  UNL     1      -7.793   3.494  -6.030  1.00  0.00    -0.061 N
ATOM     34  H83 UNL     1      -6.832   3.833  -6.070  1.00  0.00     0.275 HD
ATOM     35  H82 UNL     1      -7.731   2.907  -5.198  1.00  0.00     0.275 HD
ATOM     36  H81 UNL     1      -8.012   2.932  -6.853  1.00  0.00     0.275 HD
ENDBRANCH   6  33
BRANCH   9  37
HETATM   37  C20 UNL     1      -8.805   3.444  -2.246  1.00  0.00     0.210 C
BRANCH  37  38
HETATM   38  C21 UNL     1      -7.609   3.917  -1.413  1.00  0.00     0.354 C
HETATM   39  F1  UNL     1      -7.428   5.300  -1.625  1.00  0.00    -0.194 F
HETATM   40  F2  UNL     1      -7.767   3.629  -0.099  1.00  0.00    -0.194 F
BRANCH  38  41
HETATM   41  C22 UNL     1      -6.309   3.307  -1.902  1.00  0.00     0.456 C
HETATM   42  F3  UNL     1      -5.499   3.186  -0.762  1.00  0.00    -0.165 F
HETATM   43  F4  UNL     1      -5.662   4.147  -2.788  1.00  0.00    -0.165 F
HETATM   44  F5  UNL     1      -6.424   2.052  -2.405  1.00  0.00    -0.165 F
ENDBRANCH  38  41
ENDBRANCH  37  38
ENDBRANCH   9  37
BRANCH   4  45
HETATM   45  N7  UNL     1      -7.540   5.906  -7.422  1.00  0.00    -0.068 N
ATOM     46  H73 UNL     1      -8.137   5.388  -8.067  1.00  0.00     0.275 HD
ATOM     47  H72 UNL     1      -7.593   6.821  -7.870  1.00  0.00     0.275 HD
ATOM     48  H71 UNL     1      -6.587   5.543  -7.410  1.00  0.00     0.275 HD
ENDBRANCH   4  45
TORSDOF 9
ENDMDL