MODEL 5
REMARK VINA RESULT: -6.735946769      5.914      8.291
REMARK  9 active torsions:
REMARK  status: ('A' for Active; 'I' for Inactive)
REMARK    1  A    between atoms: C3_3  and  C4_4
REMARK    2  A    between atoms: C4_4  and  O1_5
REMARK    3  A    between atoms: C4_4  and  N1_7
REMARK    4  A    between atoms: N1_7  and  C5_9
REMARK    5  A    between atoms: C8_15  and  N4_16
REMARK    6  A    between atoms: C11_19  and  C12_20
REMARK    7  A    between atoms: C11_19  and  C13_22
REMARK    8  A    between atoms: C16_33  and  C17_34
REMARK    9  A    between atoms: C21_38  and  C22_39
ROOT
HETATM    1  C4  UNL     1     -18.329   8.275  -2.018  1.00  0.00     0.155 C
ENDROOT
BRANCH   1   2
HETATM    2  C3  UNL     1     -19.650   7.738  -2.035  1.00  0.00     0.066 A
HETATM    3  C2  UNL     1     -20.698   8.095  -2.806  1.00  0.00    -0.013 A
HETATM    4  C1  UNL     1     -20.447   8.918  -4.020  1.00  0.00     0.052 C
HETATM    5  C23 UNL     1     -21.968   7.513  -2.692  1.00  0.00     0.095 A
HETATM    6  N7  UNL     1     -22.158   6.532  -1.780  1.00  0.00    -0.194 N
HETATM    7  C21 UNL     1     -23.189   7.736  -3.304  1.00  0.00     0.061 A
HETATM    8  N6  UNL     1     -21.148   6.144  -1.011  1.00  0.00    -0.265 N
HETATM    9  N8  UNL     1     -23.386   6.136  -1.806  1.00  0.00    -0.282 N
HETATM   10  C15 UNL     1     -19.960   6.694  -1.107  1.00  0.00     0.147 A
ATOM     11  H6  UNL     1     -21.299   5.401  -0.330  1.00  0.00     0.190 HD
HETATM   12  N5  UNL     1     -18.946   6.232  -0.234  1.00  0.00    -0.080 NA
HETATM   13  C16 UNL     1     -24.107   6.839  -2.737  1.00  0.00     0.049 A
ATOM     14  H8  UNL     1     -23.769   5.399  -1.215  1.00  0.00     0.189 HD
BRANCH  13  15
HETATM   15  C17 UNL     1     -25.521   6.639  -3.039  1.00  0.00    -0.006 C
HETATM   16  C18 UNL     1     -26.448   7.799  -2.942  1.00  0.00     0.021 C
HETATM   17  C19 UNL     1     -25.777   5.797  -4.282  1.00  0.00     0.021 C
HETATM   18  C20 UNL     1     -26.057   5.692  -1.903  1.00  0.00     0.021 C
ENDBRANCH  13  15
BRANCH   7  19
HETATM   19  C22 UNL     1     -23.527   8.766  -4.256  1.00  0.00     0.391 C
HETATM   20  F4  UNL     1     -24.345   8.404  -5.312  1.00  0.00    -0.209 F
HETATM   21  F5  UNL     1     -24.303   9.805  -3.607  1.00  0.00    -0.209 F
ENDBRANCH   7  19
ENDBRANCH   1   2
BRANCH   1  22
HETATM   22  O1  UNL     1     -17.359   7.500  -2.447  1.00  0.00    -0.345 OA
ATOM     23  H1  UNL     1     -16.524   7.557  -1.997  1.00  0.00     0.219 HD
ENDBRANCH   1  22
BRANCH   1  24
HETATM   24  N1  UNL     1     -17.880   9.501  -1.608  1.00  0.00    -0.332 N
ATOM     25  H1  UNL     1     -17.825  10.248  -2.301  1.00  0.00     0.168 HD
BRANCH  24  26
HETATM   26  C5  UNL     1     -17.474   9.806  -0.235  1.00  0.00     0.097 A
HETATM   27  C6  UNL     1     -16.659   9.012   0.525  1.00  0.00     0.140 A
HETATM   28  N2  UNL     1     -16.435   9.676   1.707  1.00  0.00    -0.306 N
HETATM   29  N3  UNL     1     -17.065  10.811   1.695  1.00  0.00    -0.280 N
ATOM     30  H2  UNL     1     -15.862   9.330   2.476  1.00  0.00     0.186 HD
HETATM   31  C7  UNL     1     -17.137  11.846   2.704  1.00  0.00     0.179 C
HETATM   32  C8  UNL     1     -17.738  10.938   0.489  1.00  0.00     0.148 A
BRANCH  32  33
HETATM   33  N4  UNL     1     -18.579  12.013   0.168  1.00  0.00    -0.363 N
HETATM   34  C9  UNL     1     -18.409  13.151  -0.667  1.00  0.00     0.125 C
HETATM   35  C10 UNL     1     -19.806  13.474  -1.198  1.00  0.00     0.039 C
HETATM   36  C11 UNL     1     -20.719  12.574  -0.432  1.00  0.00     0.062 C
HETATM   37  C14 UNL     1     -19.954  12.156   0.769  1.00  0.00     0.142 C
BRANCH  36  38
HETATM   38  C12 UNL     1     -22.013  13.298  -0.061  1.00  0.00     0.239 C
HETATM   39  F1  UNL     1     -22.732  12.550   0.857  1.00  0.00    -0.254 F
ENDBRANCH  36  38
BRANCH  36  40
HETATM   40  C13 UNL     1     -21.052  11.331  -1.249  1.00  0.00     0.365 C
HETATM   41  F2  UNL     1     -22.126  11.590  -2.060  1.00  0.00    -0.213 F
HETATM   42  F3  UNL     1     -21.211  10.241  -0.454  1.00  0.00    -0.213 F
ENDBRANCH  36  40
ENDBRANCH  32  33
ENDBRANCH  24  26
ENDBRANCH   1  24
TORSDOF 9
ENDMDL