MODEL 3
REMARK VINA RESULT: -6.642382447      1.917      2.543
REMARK  10 active torsions:
REMARK  status: ('A' for Active; 'I' for Inactive)
REMARK    1  A    between atoms: C4_4  and  C5_5
REMARK    2  A    between atoms: C5_5  and  N1_6
REMARK    3  A    between atoms: N1_6  and  C6_7
REMARK    4  A    between atoms: C6_7  and  O1_8
REMARK    5  A    between atoms: C6_7  and  N2_10
REMARK       I    between atoms: N2_10  and  C7_12
REMARK       I    between atoms: C7_12  and  N3_13
REMARK    6  A    between atoms: C8_17  and  N5_18
REMARK    7  A    between atoms: N5_18  and  C9_20
REMARK    8  A    between atoms: C11_22  and  C13_24
REMARK    9  A    between atoms: N6_27  and  C14_28
REMARK   10  A    between atoms: C15_31  and  C16_32
ROOT
HETATM    1  C9  UNL     1     -13.691   6.907  -2.610  1.00  0.00     0.178 C
HETATM    2  C10 UNL     1     -14.014   5.805  -3.630  1.00  0.00     0.072 C
HETATM    3  C11 UNL     1     -12.682   5.414  -4.174  1.00  0.00     0.115 C
HETATM    4  C12 UNL     1     -12.506   6.136  -5.499  1.00  0.00     0.045 C
HETATM    5  N6  UNL     1     -11.728   5.719  -3.177  1.00  0.00    -0.132 N
HETATM    6  C18 UNL     1     -12.366   6.501  -2.177  1.00  0.00     0.262 C
HETATM    7  O2  UNL     1     -11.877   6.830  -1.026  1.00  0.00    -0.270 OA
ENDROOT
BRANCH   1   8
HETATM    8  N5  UNL     1     -14.636   6.906  -1.553  1.00  0.00    -0.370 N
ATOM      9  H5  UNL     1     -14.457   6.277  -0.770  1.00  0.00     0.161 HD
BRANCH   8  10
HETATM   10  C8  UNL     1     -15.796   7.696  -1.492  1.00  0.00     0.083 A
HETATM   11  C4  UNL     1     -16.195   8.486  -0.386  1.00  0.00     0.027 A
HETATM   12  C3  UNL     1     -17.287   9.234  -0.594  1.00  0.00     0.031 A
HETATM   13  C2  UNL     1     -17.922   9.197  -1.771  1.00  0.00    -0.018 A
HETATM   14  C1  UNL     1     -19.164   9.938  -2.224  1.00  0.00     0.056 C
HETATM   15  S1  UNL     1     -16.967   8.077  -2.660  1.00  0.00    -0.077 SA
BRANCH  11  16
HETATM   16  C5  UNL     1     -15.491   8.351   0.912  1.00  0.00     0.201 C
BRANCH  16  17
HETATM   17  N1  UNL     1     -14.369   8.446   1.261  1.00  0.00    -0.377 NA
BRANCH  17  18
HETATM   18  C6  UNL     1     -13.139   8.716   1.712  1.00  0.00     0.300 C
BRANCH  18  19
HETATM   19  O1  UNL     1     -12.987   8.701   3.045  1.00  0.00    -0.321 OA
ATOM     20  H1  UNL     1     -12.110   8.877   3.364  1.00  0.00     0.222 HD
ENDBRANCH  18  19
BRANCH  18  21
HETATM   21  N2  UNL     1     -11.990   9.004   0.978  1.00  0.00    -0.285 N
HETATM   22  C7  UNL     1     -10.703   8.879   1.557  1.00  0.00     0.189 C
HETATM   23  N3  UNL     1      -9.639   9.132   0.918  1.00  0.00    -0.373 N
HETATM   24  N4  UNL     1     -10.568   8.472   2.924  1.00  0.00    -0.064 NA
ATOM     25  H32 UNL     1      -9.735   9.422  -0.055  1.00  0.00     0.158 HD
ATOM     26  H31 UNL     1      -8.713   9.042   1.335  1.00  0.00     0.158 HD
ATOM     27  H2  UNL     1     -12.077   9.311   0.010  1.00  0.00     0.173 HD
ENDBRANCH  18  21
ENDBRANCH  17  18
ENDBRANCH  16  17
ENDBRANCH  11  16
ENDBRANCH   8  10
ENDBRANCH   1   8
BRANCH   3  28
HETATM   28  C13 UNL     1     -12.707   3.910  -4.483  1.00  0.00     0.381 C
HETATM   29  F1  UNL     1     -11.600   3.552  -5.222  1.00  0.00    -0.212 F
HETATM   30  F2  UNL     1     -12.802   3.155  -3.341  1.00  0.00    -0.212 F
ENDBRANCH   3  28
BRANCH   5  31
HETATM   31  C14 UNL     1     -10.341   5.386  -2.966  1.00  0.00     0.706 A
HETATM   32  N7  UNL     1      -9.939   4.388  -2.115  1.00  0.00    -0.168 N
HETATM   33  C15 UNL     1      -8.606   4.311  -2.072  1.00  0.00     0.220 A
ATOM     34  H7  UNL     1     -10.571   3.787  -1.587  1.00  0.00     0.186 HD
HETATM   35  N8  UNL     1      -8.167   5.269  -2.906  1.00  0.00    -0.265 N
HETATM   36  N9  UNL     1      -9.225   5.914  -3.444  1.00  0.00    -0.126 N
ATOM     37  H8  UNL     1      -7.187   5.476  -3.102  1.00  0.00     0.189 HD
HETATM   38  C17 UNL     1      -9.060   7.011  -4.375  1.00  0.00     0.197 C
BRANCH  33  39
HETATM   39  C16 UNL     1      -7.798   3.371  -1.237  1.00  0.00     0.451 C
HETATM   40  F3  UNL     1      -6.462   3.584  -1.364  1.00  0.00    -0.163 F
HETATM   41  F4  UNL     1      -8.188   3.508   0.086  1.00  0.00    -0.163 F
HETATM   42  F5  UNL     1      -8.050   2.077  -1.606  1.00  0.00    -0.163 F
ENDBRANCH  33  39
ENDBRANCH   5  31
TORSDOF 10
ENDMDL