MODEL 4
REMARK VINA RESULT: -7.278458746      1.377      1.822
REMARK  7 active torsions:
REMARK  status: ('A' for Active; 'I' for Inactive)
REMARK    1  A    between atoms: C2_2  and  O1_3
REMARK    2  A    between atoms: C2_2  and  C3_5
REMARK    3  A    between atoms: C2_2  and  C11_25
REMARK    4  A    between atoms: C3_5  and  O2_6
REMARK    5  A    between atoms: O2_6  and  C4_7
REMARK    6  A    between atoms: C5_11  and  C7_13
REMARK    7  A    between atoms: C13_30  and  C14_31
ROOT
HETATM    1  C1  UNL     1     -13.611   5.593  -3.754  1.00  0.00     0.057 C
HETATM    2  C2  UNL     1     -12.815   5.476  -2.370  1.00  0.00     0.135 C
ENDROOT
BRANCH   2   3
HETATM    3  O1  UNL     1     -13.548   4.540  -1.707  1.00  0.00    -0.380 OA
ATOM      4  H1  UNL     1     -13.366   3.757  -2.213  1.00  0.00     0.211 HD
ENDBRANCH   2   3
BRANCH   2   5
HETATM    5  C3  UNL     1     -12.777   6.833  -1.800  1.00  0.00     0.216 C
BRANCH   5   6
HETATM    6  O2  UNL     1     -13.028   7.054  -0.508  1.00  0.00    -0.351 OA
BRANCH   6   7
HETATM    7  C4  UNL     1     -14.112   7.764  -0.088  1.00  0.00     0.397 C
HETATM    8  N1  UNL     1     -14.648   8.560  -1.233  1.00  0.00    -0.017 N
HETATM    9  C5  UNL     1     -16.083   8.616  -1.239  1.00  0.00     0.300 C
ATOM     10  H12 UNL     1     -14.243   9.496  -1.251  1.00  0.00     0.282 HD
ATOM     11  H11 UNL     1     -14.290   8.210  -2.122  1.00  0.00     0.282 HD
HETATM   12  C6  UNL     1     -16.614   9.945  -1.778  1.00  0.00     0.067 C
HETATM   13  C8  UNL     1     -16.631   8.442   0.136  1.00  0.00     0.263 C
HETATM   14  O3  UNL     1     -17.679   7.779   0.293  1.00  0.00    -0.270 OA
HETATM   15  N2  UNL     1     -16.090   8.959   1.351  1.00  0.00    -0.353 N
HETATM   16  C9  UNL     1     -14.821   9.667   1.419  1.00  0.00     0.206 C
ATOM     17  H2  UNL     1     -16.617   8.826   2.213  1.00  0.00     0.162 HD
HETATM   18  C10 UNL     1     -13.695   8.770   0.945  1.00  0.00     0.309 C
HETATM   19  F4  UNL     1     -13.208   8.114   2.046  1.00  0.00    -0.200 F
HETATM   20  F5  UNL     1     -12.672   9.536   0.384  1.00  0.00    -0.200 F
BRANCH   9  21
HETATM   21  C7  UNL     1     -16.712   7.534  -2.091  1.00  0.00     0.429 C
HETATM   22  F1  UNL     1     -16.361   6.303  -1.579  1.00  0.00    -0.168 F
HETATM   23  F2  UNL     1     -18.063   7.697  -2.250  1.00  0.00    -0.168 F
HETATM   24  F3  UNL     1     -16.154   7.668  -3.375  1.00  0.00    -0.168 F
ENDBRANCH   9  21
ENDBRANCH   6   7
ENDBRANCH   5   6
ENDBRANCH   2   5
BRANCH   2  25
HETATM   25  C11 UNL     1     -11.483   4.977  -2.793  1.00  0.00     0.135 A
HETATM   26  N3  UNL     1     -11.148   4.708  -4.062  1.00  0.00    -0.321 N
HETATM   27  C12 UNL     1      -9.865   4.208  -4.003  1.00  0.00     0.173 A
ATOM     28  H3  UNL     1     -11.722   4.843  -4.894  1.00  0.00     0.169 HD
HETATM   29  S1  UNL     1      -8.579   3.573  -4.894  1.00  0.00    -0.048 SA
HETATM   30  N5  UNL     1      -9.419   4.172  -2.767  1.00  0.00    -0.217 N
HETATM   31  C13 UNL     1      -7.458   3.266  -3.579  1.00  0.00     0.057 A
HETATM   32  C21 UNL     1      -8.190   3.694  -2.533  1.00  0.00     0.158 A
HETATM   33  N4  UNL     1      -7.668   3.651  -1.170  1.00  0.00    -0.079 NA
HETATM   34  N6  UNL     1     -10.452   4.661  -2.020  1.00  0.00    -0.276 N
ATOM     35  H6  UNL     1     -10.433   4.769  -1.006  1.00  0.00     0.189 HD
BRANCH  31  36
HETATM   36  C14 UNL     1      -6.147   2.669  -3.803  1.00  0.00    -0.041 C
HETATM   37  C15 UNL     1      -6.048   1.388  -3.959  1.00  0.00    -0.018 C
HETATM   38  C16 UNL     1      -4.841   0.511  -4.204  1.00  0.00     0.028 C
HETATM   39  C17 UNL     1      -3.660   1.343  -4.539  1.00  0.00     0.004 C
HETATM   40  C18 UNL     1      -3.990   2.280  -5.660  1.00  0.00     0.001 C
HETATM   41  C19 UNL     1      -4.351   3.670  -5.192  1.00  0.00     0.005 C
HETATM   42  C20 UNL     1      -5.009   3.655  -3.834  1.00  0.00     0.040 C
ENDBRANCH  31  36
ENDBRANCH   2  25
TORSDOF 7
ENDMDL