MODEL 2
REMARK VINA RESULT: -5.692738461      5.581      8.760
REMARK  9 active torsions:
REMARK  status: ('A' for Active; 'I' for Inactive)
REMARK    1  A    between atoms: C2_2  and  C3_4
REMARK    2  A    between atoms: C3_4  and  N1_5
REMARK    3  A    between atoms: C3_4  and  C11_21
REMARK    4  A    between atoms: N1_5  and  C4_7
REMARK    5  A    between atoms: C4_7  and  N2_8
REMARK    6  A    between atoms: C4_7  and  C10_17
REMARK       I    between atoms: N2_8  and  C5_10
REMARK    7  A    between atoms: C5_10  and  O2_12
REMARK    8  A    between atoms: O2_12  and  C6_13
REMARK       I    between atoms: C11_21  and  N3_23
REMARK    9  A    between atoms: C12_24  and  O4_25
ROOT
HETATM    1  C11 UNL     1     -17.948   8.898  -2.701  1.00  0.00     0.257 C
HETATM    2  O3  UNL     1     -18.307   9.957  -3.343  1.00  0.00    -0.270 OA
HETATM    3  N3  UNL     1     -18.949   8.137  -2.124  1.00  0.00    -0.241 N
HETATM    4  C12 UNL     1     -18.810   7.046  -1.362  1.00  0.00     0.191 A
HETATM    5  C13 UNL     1     -20.095   6.595  -1.019  1.00  0.00     0.189 A
HETATM    6  C14 UNL     1     -20.445   5.467  -0.221  1.00  0.00     0.124 C
HETATM    7  N4  UNL     1     -20.723   4.550   0.421  1.00  0.00    -0.190 NA
HETATM    8  N5  UNL     1     -20.976   7.450  -1.597  1.00  0.00    -0.222 N
HETATM    9  N6  UNL     1     -22.278   7.652  -1.711  1.00  0.00    -0.266 N
ATOM     10  H6  UNL     1     -23.004   7.072  -1.288  1.00  0.00     0.190 HD
HETATM   11  C15 UNL     1     -22.494   8.731  -2.463  1.00  0.00     0.206 A
HETATM   12  F2  UNL     1     -23.684   9.294  -2.835  1.00  0.00    -0.185 F
HETATM   13  C16 UNL     1     -21.250   9.200  -2.819  1.00  0.00     0.113 A
HETATM   14  C17 UNL     1     -20.274   8.378  -2.263  1.00  0.00     0.144 A
ENDROOT
BRANCH   4  15
HETATM   15  O4  UNL     1     -17.708   6.364  -0.905  1.00  0.00    -0.343 OA
ATOM     16  H4  UNL     1     -17.500   5.964  -0.069  1.00  0.00     0.219 HD
ENDBRANCH   4  15
BRANCH   1  17
HETATM   17  C3  UNL     1     -16.471   8.669  -2.691  1.00  0.00     0.206 C
BRANCH  17  18
HETATM   18  C2  UNL     1     -15.964   9.436  -3.926  1.00  0.00     0.197 C
HETATM   19  C1  UNL     1     -14.900   8.586  -4.628  1.00  0.00     0.048 C
HETATM   20  F1  UNL     1     -15.314  10.599  -3.613  1.00  0.00    -0.247 F
ENDBRANCH  17  18
BRANCH  17  21
HETATM   21  N1  UNL     1     -15.984   9.235  -1.494  1.00  0.00    -0.383 N
ATOM     22  H1  UNL     1     -15.935  10.251  -1.429  1.00  0.00     0.156 HD
BRANCH  21  23
HETATM   23  C4  UNL     1     -15.564   8.485  -0.394  1.00  0.00     0.237 C
BRANCH  23  24
HETATM   24  N2  UNL     1     -15.553   9.244   0.853  1.00  0.00    -0.312 N
HETATM   25  C5  UNL     1     -16.745   9.854   1.296  1.00  0.00     0.363 C
HETATM   26  O1  UNL     1     -17.801   9.748   0.632  1.00  0.00    -0.238 OA
ATOM     27  H2  UNL     1     -14.695   9.333   1.397  1.00  0.00     0.167 HD
BRANCH  25  28
HETATM   28  O2  UNL     1     -16.797  10.586   2.468  1.00  0.00    -0.294 OA
BRANCH  28  29
HETATM   29  C6  UNL     1     -16.867  11.969   2.582  1.00  0.00     0.061 C
HETATM   30  C7  UNL     1     -16.336  12.358   3.971  1.00  0.00     0.046 C
HETATM   31  C8  UNL     1     -18.283  12.503   2.517  1.00  0.00     0.046 C
HETATM   32  C9  UNL     1     -16.045  12.741   1.585  1.00  0.00     0.046 C
ENDBRANCH  28  29
ENDBRANCH  25  28
ENDBRANCH  23  24
BRANCH  23  33
HETATM   33  C10 UNL     1     -14.075   8.154  -0.695  1.00  0.00     0.225 C
HETATM   34 CL1  UNL     1     -13.311   7.896   0.886  1.00  0.00    -0.080 Cl
HETATM   35 CL2  UNL     1     -13.943   6.665  -1.644  1.00  0.00    -0.080 Cl
HETATM   36 CL3  UNL     1     -13.287   9.524  -1.472  1.00  0.00    -0.080 Cl
ENDBRANCH  23  33
ENDBRANCH  21  23
ENDBRANCH  17  21
ENDBRANCH   1  17
TORSDOF 9
ENDMDL