MODEL 3
REMARK VINA RESULT: -6.236373586      1.189      1.473
REMARK  10 active torsions:
REMARK  status: ('A' for Active; 'I' for Inactive)
REMARK    1  A    between atoms: C2_2  and  C3_3
REMARK    2  A    between atoms: C3_3  and  N1_4
REMARK    3  A    between atoms: N1_4  and  C4_5
REMARK    4  A    between atoms: N1_4  and  C10_11
REMARK    5  A    between atoms: C4_5  and  C5_6
REMARK    6  A    between atoms: C5_6  and  C6_7
REMARK    7  A    between atoms: C6_7  and  C7_8
REMARK    8  A    between atoms: C7_8  and  C8_9
REMARK    9  A    between atoms: C10_11  and  C12_13
REMARK   10  A    between atoms: N2_15  and  C15_17
ROOT
HETATM    1  N1  UNL     1     -19.932 -39.529 -25.096  1.00  0.00     0.096 N
ENDROOT
BRANCH   1   2
HETATM    2  C3  UNL     1     -20.067 -38.210 -25.728  1.00  0.00     0.299 C
BRANCH   2   3
HETATM    3  C2  UNL     1     -21.399 -37.596 -25.518  1.00  0.00    -0.007 C
HETATM    4  C1  UNL     1     -21.805 -37.080 -24.355  1.00  0.00     0.008 C
ENDBRANCH   2   3
ENDBRANCH   1   2
BRANCH   1   5
HETATM    5  C4  UNL     1     -18.530 -39.881 -25.042  1.00  0.00     0.273 C
BRANCH   5   6
HETATM    6  C5  UNL     1     -17.773 -39.240 -23.914  1.00  0.00     0.030 C
BRANCH   6   7
HETATM    7  C6  UNL     1     -16.304 -39.588 -23.956  1.00  0.00     0.002 C
BRANCH   7   8
HETATM    8  C7  UNL     1     -15.553 -39.176 -22.744  1.00  0.00    -0.000 C
BRANCH   8   9
HETATM    9  C8  UNL     1     -14.106 -38.820 -23.010  1.00  0.00    -0.005 C
HETATM   10  C9  UNL     1     -13.170 -39.945 -22.645  1.00  0.00     0.005 C
ENDBRANCH   8   9
ENDBRANCH   7   8
ENDBRANCH   6   7
ENDBRANCH   5   6
ENDBRANCH   1   5
BRANCH   1  11
HETATM   11  C10 UNL     1     -20.746 -40.475 -25.777  1.00  0.00     0.226 C
HETATM   12  C11 UNL     1     -20.070 -41.215 -26.908  1.00  0.00     0.043 C
BRANCH  11  13
HETATM   13  C12 UNL     1     -21.620 -41.269 -24.922  1.00  0.00     0.072 C
HETATM   14  C13 UNL     1     -22.127 -40.852 -23.607  1.00  0.00     0.251 C
HETATM   15  N2  UNL     1     -22.162 -42.293 -23.248  1.00  0.00    -0.051 N
HETATM   16  C14 UNL     1     -23.289 -43.001 -23.769  1.00  0.00     0.278 C
HETATM   17  C17 UNL     1     -20.976 -42.392 -24.123  1.00  0.00     0.251 C
BRANCH  15  18
HETATM   18  C15 UNL     1     -21.879 -42.556 -21.890  1.00  0.00     0.192 C
HETATM   19  C16 UNL     1     -22.763 -43.240 -21.176  1.00  0.00     0.037 C
ENDBRANCH  15  18
ENDBRANCH  11  13
ENDBRANCH   1  11
TORSDOF 10
ENDMDL