MODEL 4
REMARK VINA RESULT: -5.896374754      1.258      2.422
REMARK  11 active torsions:
REMARK  status: ('A' for Active; 'I' for Inactive)
REMARK    1  A    between atoms: C2_2  and  C3_3
REMARK    2  A    between atoms: C3_3  and  C4_4
REMARK    3  A    between atoms: C4_4  and  C5_5
REMARK    4  A    between atoms: C6_6  and  C7_7
REMARK    5  A    between atoms: C7_7  and  C8_8
REMARK    6  A    between atoms: C7_7  and  C16_17
REMARK    7  A    between atoms: C8_8  and  N1_9
REMARK    8  A    between atoms: N1_9  and  C10_11
REMARK    9  A    between atoms: N1_9  and  C12_13
REMARK   10  A    between atoms: C12_13  and  C13_14
REMARK   11  A    between atoms: C13_14  and  C14_15
ROOT
HETATM    1  C7  UNL     1     -19.775 -40.269 -24.885  1.00  0.00     0.039 C
ENDROOT
BRANCH   1   2
HETATM    2  C6  UNL     1     -18.275 -40.201 -24.704  1.00  0.00    -0.011 C
HETATM    3  C5  UNL     1     -17.843 -39.587 -23.599  1.00  0.00     0.061 C
BRANCH   3   4
HETATM    4  C4  UNL     1     -16.533 -39.406 -23.262  1.00  0.00    -0.074 C
BRANCH   4   5
HETATM    5  C3  UNL     1     -15.342 -39.221 -22.961  1.00  0.00    -0.075 C
BRANCH   5   6
HETATM    6  C2  UNL     1     -14.027 -39.014 -22.611  1.00  0.00     0.054 C
HETATM    7  C1  UNL     1     -13.086 -39.998 -22.770  1.00  0.00     0.020 C
ENDBRANCH   5   6
ENDBRANCH   4   5
ENDBRANCH   3   4
ENDBRANCH   1   2
BRANCH   1   8
HETATM    8  C8  UNL     1     -20.274 -41.523 -24.363  1.00  0.00     0.245 C
BRANCH   8   9
HETATM    9  N1  UNL     1     -21.086 -41.524 -23.181  1.00  0.00    -0.071 N
HETATM   10  C9  UNL     1     -21.847 -42.839 -23.381  1.00  0.00     0.272 C
BRANCH   9  11
HETATM   11  C10 UNL     1     -20.503 -41.696 -21.915  1.00  0.00     0.232 C
HETATM   12  C11 UNL     1     -20.474 -43.013 -21.245  1.00  0.00     0.035 C
ENDBRANCH   9  11
BRANCH   9  13
HETATM   13  C12 UNL     1     -22.155 -40.571 -23.330  1.00  0.00     0.237 C
BRANCH  13  14
HETATM   14  C13 UNL     1     -22.004 -39.324 -22.535  1.00  0.00     0.027 C
BRANCH  14  15
HETATM   15  C14 UNL     1     -22.447 -38.051 -23.216  1.00  0.00    -0.003 C
HETATM   16  C15 UNL     1     -21.337 -37.166 -23.695  1.00  0.00     0.005 C
ENDBRANCH  14  15
ENDBRANCH  13  14
ENDBRANCH   9  13
ENDBRANCH   8   9
ENDBRANCH   1   8
BRANCH   1  17
HETATM   17  C16 UNL     1     -19.990 -40.000 -26.366  1.00  0.00    -0.005 A
HETATM   18  C17 UNL     1     -20.014 -38.614 -26.920  1.00  0.00     0.005 A
HETATM   19  C18 UNL     1     -21.308 -39.237 -26.732  1.00  0.00     0.005 A
ENDBRANCH   1  17
TORSDOF 11
ENDMDL