MODEL 5
REMARK VINA RESULT: -6.827806535      2.144      3.134
REMARK  12 active torsions:
REMARK  status: ('A' for Active; 'I' for Inactive)
REMARK    1  A    between atoms: N1_1  and  N2_4
REMARK    2  A    between atoms: N2_4  and  C1_5
REMARK    3  A    between atoms: C1_5  and  C2_6
REMARK    4  A    between atoms: C2_6  and  C3_7
REMARK    5  A    between atoms: C3_7  and  C4_8
REMARK    6  A    between atoms: C4_8  and  C5_9
REMARK    7  A    between atoms: C6_10  and  C7_11
REMARK    8  A    between atoms: C7_11  and  C8_12
REMARK    9  A    between atoms: C8_12  and  C9_13
REMARK   10  A    between atoms: C9_13  and  C10_14
REMARK   11  A    between atoms: C10_14  and  C11_15
REMARK   12  A    between atoms: C11_15  and  N3_16
ROOT
HETATM    1  C7  UNL     1     -22.677 -40.039 -22.483  1.00  0.00     0.027 C
ENDROOT
BRANCH   1   2
HETATM    2  C6  UNL     1     -22.163 -39.146 -23.550  1.00  0.00    -0.031 C
HETATM    3  C5  UNL     1     -22.203 -37.828 -23.388  1.00  0.00    -0.031 C
BRANCH   3   4
HETATM    4  C4  UNL     1     -21.694 -36.903 -24.444  1.00  0.00     0.027 C
BRANCH   4   5
HETATM    5  C3  UNL     1     -21.333 -37.751 -25.644  1.00  0.00     0.010 C
BRANCH   5   6
HETATM    6  C2  UNL     1     -21.042 -36.897 -26.860  1.00  0.00     0.062 C
BRANCH   6   7
HETATM    7  C1  UNL     1     -21.331 -37.690 -28.082  1.00  0.00     0.181 C
BRANCH   7   8
HETATM    8  N2  UNL     1     -21.510 -37.187 -29.202  1.00  0.00    -0.350 NA
BRANCH   8   9
HETATM    9  N1  UNL     1     -21.310 -36.629 -30.288  1.00  0.00    -0.281 N
ATOM     10  H12 UNL     1     -21.533 -35.691 -29.955  1.00  0.00     0.191 HD
ATOM     11  H11 UNL     1     -21.079 -36.466 -31.269  1.00  0.00     0.191 HD
ENDBRANCH   8   9
ENDBRANCH   7   8
ENDBRANCH   6   7
ENDBRANCH   5   6
ENDBRANCH   4   5
ENDBRANCH   3   4
ENDBRANCH   1   2
BRANCH   1  12
HETATM   12  C8  UNL     1     -21.835 -39.997 -21.241  1.00  0.00     0.004 C
BRANCH  12  13
HETATM   13  C9  UNL     1     -20.530 -40.729 -21.398  1.00  0.00     0.002 C
BRANCH  13  14
HETATM   14  C10 UNL     1     -20.722 -42.184 -21.647  1.00  0.00     0.020 C
BRANCH  14  15
HETATM   15  C11 UNL     1     -19.823 -42.752 -22.695  1.00  0.00     0.128 C
BRANCH  15  16
HETATM   16  N3  UNL     1     -20.273 -42.337 -24.006  1.00  0.00    -0.366 N
HETATM   17  C12 UNL     1     -21.476 -42.759 -24.461  1.00  0.00     0.090 A
HETATM   18  C13 UNL     1     -21.946 -42.389 -25.708  1.00  0.00     0.017 A
HETATM   19  C14 UNL     1     -21.163 -41.579 -26.481  1.00  0.00     0.003 A
HETATM   20  C15 UNL     1     -19.937 -41.149 -26.020  1.00  0.00     0.017 A
HETATM   21  C16 UNL     1     -19.496 -41.537 -24.770  1.00  0.00     0.090 A
ENDBRANCH  15  16
ENDBRANCH  14  15
ENDBRANCH  13  14
ENDBRANCH  12  13
ENDBRANCH   1  12
TORSDOF 12
ENDMDL