MODEL 5
REMARK VINA RESULT: -6.605107999      1.405      3.055
REMARK  11 active torsions:
REMARK  status: ('A' for Active; 'I' for Inactive)
REMARK    1  A    between atoms: C2_2  and  C3_3
REMARK    2  A    between atoms: C3_3  and  C4_4
REMARK    3  A    between atoms: C4_4  and  C5_5
REMARK    4  A    between atoms: C5_5  and  C6_6
REMARK    5  A    between atoms: C5_5  and  C8_8
REMARK    6  A    between atoms: N1_9  and  C9_10
REMARK    7  A    between atoms: N1_9  and  C16_17
REMARK    8  A    between atoms: C9_10  and  C10_11
REMARK    9  A    between atoms: C11_12  and  C12_13
REMARK   10  A    between atoms: C12_13  and  C13_14
REMARK   11  A    between atoms: C16_17  and  C17_18
ROOT
HETATM    1  C8  UNL     1     -19.806 -41.829 -22.585  1.00  0.00     0.072 C
HETATM    2  N1  UNL     1     -19.834 -41.129 -23.758  1.00  0.00    -0.362 N
ENDROOT
BRANCH   2   3
HETATM    3  C9  UNL     1     -19.109 -39.868 -23.752  1.00  0.00     0.220 C
BRANCH   3   4
HETATM    4  C10 UNL     1     -17.687 -40.216 -23.823  1.00  0.00    -0.086 C
HETATM    5  C11 UNL     1     -16.510 -40.485 -23.869  1.00  0.00    -0.104 C
BRANCH   5   6
HETATM    6  C12 UNL     1     -15.078 -40.801 -23.900  1.00  0.00     0.098 C
BRANCH   6   7
HETATM    7  C13 UNL     1     -14.436 -40.254 -22.643  1.00  0.00    -0.003 A
HETATM    8  C14 UNL     1     -12.964 -39.954 -22.768  1.00  0.00     0.006 A
HETATM    9  C15 UNL     1     -13.973 -38.833 -22.678  1.00  0.00     0.006 A
ENDBRANCH   6   7
ENDBRANCH   5   6
ENDBRANCH   3   4
ENDBRANCH   2   3
BRANCH   2  10
HETATM   10  C16 UNL     1     -20.299 -41.524 -24.997  1.00  0.00     0.064 C
BRANCH  10  11
HETATM   11  C17 UNL     1     -21.734 -41.308 -25.350  1.00  0.00     0.040 C
HETATM   12  C18 UNL     1     -22.341 -42.704 -25.561  1.00  0.00     0.010 C
ENDBRANCH  10  11
ENDBRANCH   2  10
BRANCH   1  13
HETATM   13  C5  UNL     1     -20.507 -43.124 -22.395  1.00  0.00     0.046 C
BRANCH  13  14
HETATM   14  C4  UNL     1     -19.542 -44.223 -21.937  1.00  0.00     0.017 C
BRANCH  14  15
HETATM   15  C3  UNL     1     -18.796 -44.859 -23.079  1.00  0.00     0.027 C
BRANCH  15  16
HETATM   16  C2  UNL     1     -19.800 -45.161 -24.131  1.00  0.00    -0.037 C
HETATM   17  C1  UNL     1     -19.428 -45.123 -25.396  1.00  0.00     0.007 C
ENDBRANCH  15  16
ENDBRANCH  14  15
ENDBRANCH  13  14
BRANCH  13  18
HETATM   18  C6  UNL     1     -21.629 -43.160 -21.456  1.00  0.00    -0.027 C
HETATM   19  C7  UNL     1     -22.912 -43.156 -21.843  1.00  0.00     0.007 C
ENDBRANCH  13  18
ENDBRANCH   1  13
TORSDOF 11
ENDMDL