MODEL 1
REMARK VINA RESULT: -6.778047239      0.000      0.000
REMARK  10 active torsions:
REMARK  status: ('A' for Active; 'I' for Inactive)
REMARK    1  A    between atoms: C2_2  and  C3_3
REMARK    2  A    between atoms: C3_3  and  C4_4
REMARK    3  A    between atoms: C4_4  and  C6_6
REMARK    4  A    between atoms: C6_6  and  C7_7
REMARK    5  A    between atoms: C7_7  and  N1_8
REMARK    6  A    between atoms: N2_11  and  C10_12
REMARK    7  A    between atoms: C10_12  and  C11_13
REMARK    8  A    between atoms: C11_13  and  C12_14
REMARK    9  A    between atoms: C12_14  and  C13_15
REMARK   10  A    between atoms: C13_15  and  C14_16
ROOT
HETATM    1  N1  UNL     1     -19.521 -39.841 -24.176  1.00  0.00    -0.363 N
HETATM    2  C8  UNL     1     -19.412 -41.159 -24.423  1.00  0.00     0.107 A
HETATM    3  C9  UNL     1     -18.219 -41.738 -24.804  1.00  0.00     0.107 A
HETATM    4  N2  UNL     1     -17.103 -41.002 -24.944  1.00  0.00    -0.364 N
HETATM    5  C16 UNL     1     -17.207 -39.685 -24.697  1.00  0.00     0.107 A
HETATM    6  C17 UNL     1     -18.401 -39.109 -24.317  1.00  0.00     0.107 A
ENDROOT
BRANCH   1   7
HETATM    7  C7  UNL     1     -20.794 -39.230 -23.771  1.00  0.00     0.132 C
BRANCH   7   8
HETATM    8  C6  UNL     1     -21.672 -38.989 -24.951  1.00  0.00     0.058 C
BRANCH   8   9
HETATM    9  C4  UNL     1     -21.418 -37.571 -25.451  1.00  0.00    -0.066 C
HETATM   10  C5  UNL     1     -21.759 -36.639 -24.593  1.00  0.00     0.019 C
BRANCH   9  11
HETATM   11  C3  UNL     1     -20.862 -37.491 -26.781  1.00  0.00     0.005 C
BRANCH  11  12
HETATM   12  C2  UNL     1     -21.243 -38.329 -27.878  1.00  0.00    -0.010 C
HETATM   13  C1  UNL     1     -21.818 -38.176 -29.025  1.00  0.00     0.011 C
ENDBRANCH  11  12
ENDBRANCH   9  11
ENDBRANCH   8   9
ENDBRANCH   7   8
ENDBRANCH   1   7
BRANCH   4  14
HETATM   14  C10 UNL     1     -15.836 -41.609 -25.346  1.00  0.00     0.128 C
BRANCH  14  15
HETATM   15  C11 UNL     1     -15.130 -42.233 -24.150  1.00  0.00     0.020 C
BRANCH  15  16
HETATM   16  C12 UNL     1     -14.019 -41.292 -23.748  1.00  0.00     0.002 C
BRANCH  16  17
HETATM   17  C13 UNL     1     -14.344 -40.623 -22.459  1.00  0.00    -0.000 C
BRANCH  17  18
HETATM   18  C14 UNL     1     -13.609 -39.332 -22.333  1.00  0.00    -0.005 C
HETATM   19  C15 UNL     1     -13.829 -38.575 -23.651  1.00  0.00     0.005 C
ENDBRANCH  17  18
ENDBRANCH  16  17
ENDBRANCH  15  16
ENDBRANCH  14  15
ENDBRANCH   4  14
TORSDOF 10
ENDMDL