MODEL 1
REMARK VINA RESULT: -7.106018100      0.000      0.000
REMARK  10 active torsions:
REMARK  status: ('A' for Active; 'I' for Inactive)
REMARK    1  A    between atoms: C2_2  and  C3_3
REMARK    2  A    between atoms: C3_3  and  C4_4
REMARK    3  A    between atoms: C4_4  and  C5_5
REMARK    4  A    between atoms: C5_5  and  C6_6
REMARK    5  A    between atoms: C6_6  and  N1_7
REMARK    6  A    between atoms: N1_7  and  C7_8
REMARK    7  A    between atoms: C7_8  and  C8_9
REMARK    8  A    between atoms: C8_9  and  O1_10
REMARK    9  A    between atoms: O1_10  and  C9_11
REMARK   10  A    between atoms: C9_11  and  C10_12
ROOT
HETATM    1  N1  UNL     1     -19.846 -40.559 -23.982  1.00  0.00    -0.064 N
HETATM    2  C13 UNL     1     -19.995 -40.687 -25.409  1.00  0.00     0.242 C
HETATM    3  C14 UNL     1     -21.312 -40.046 -25.772  1.00  0.00     0.018 A
HETATM    4  C15 UNL     1     -21.419 -38.576 -25.864  1.00  0.00     0.013 A
HETATM    5  C16 UNL     1     -21.760 -39.297 -24.581  1.00  0.00     0.018 A
HETATM    6  C17 UNL     1     -20.617 -39.380 -23.603  1.00  0.00     0.242 C
ENDROOT
BRANCH   1   7
HETATM    7  C6  UNL     1     -20.456 -41.747 -23.416  1.00  0.00     0.237 C
BRANCH   7   8
HETATM    8  C5  UNL     1     -20.510 -41.774 -21.925  1.00  0.00     0.028 C
BRANCH   8   9
HETATM    9  C4  UNL     1     -20.284 -43.168 -21.376  1.00  0.00     0.002 C
BRANCH   9  10
HETATM   10  C3  UNL     1     -19.849 -44.131 -22.438  1.00  0.00    -0.000 C
BRANCH  10  11
HETATM   11  C2  UNL     1     -18.686 -44.999 -22.021  1.00  0.00    -0.005 C
HETATM   12  C1  UNL     1     -18.260 -45.807 -23.232  1.00  0.00     0.005 C
ENDBRANCH  10  11
ENDBRANCH   9  10
ENDBRANCH   8   9
ENDBRANCH   7   8
ENDBRANCH   1   7
BRANCH   1  13
HETATM   13  C7  UNL     1     -18.516 -40.380 -23.529  1.00  0.00     0.263 C
BRANCH  13  14
HETATM   14  C8  UNL     1     -17.782 -39.168 -24.005  1.00  0.00     0.195 C
BRANCH  14  15
HETATM   15  O1  UNL     1     -16.689 -38.819 -23.217  1.00  0.00    -0.389 OA
BRANCH  15  16
HETATM   16  C9  UNL     1     -15.679 -39.744 -23.468  1.00  0.00     0.172 C
BRANCH  16  17
HETATM   17  C10 UNL     1     -14.330 -39.068 -23.230  1.00  0.00     0.009 A
HETATM   18  C11 UNL     1     -13.093 -39.880 -23.509  1.00  0.00     0.007 A
HETATM   19  C12 UNL     1     -13.467 -39.598 -22.117  1.00  0.00     0.007 A
ENDBRANCH  16  17
ENDBRANCH  15  16
ENDBRANCH  14  15
ENDBRANCH  13  14
ENDBRANCH   1  13
TORSDOF 10
ENDMDL