MODEL 2
REMARK VINA RESULT: -6.679385006      1.962      2.436
REMARK  10 active torsions:
REMARK  status: ('A' for Active; 'I' for Inactive)
REMARK    1  A    between atoms: C2_2  and  C3_3
REMARK    2  A    between atoms: C3_3  and  N1_4
REMARK    3  A    between atoms: N1_4  and  C4_5
REMARK    4  A    between atoms: C4_5  and  C5_6
REMARK    5  A    between atoms: C5_6  and  C6_7
REMARK    6  A    between atoms: C6_7  and  C7_8
REMARK    7  A    between atoms: C7_8  and  C8_9
REMARK    8  A    between atoms: C9_10  and  C10_11
REMARK    9  A    between atoms: C10_11  and  C11_12
REMARK   10  A    between atoms: C11_12  and  N2_13
ROOT
HETATM    1  C6  UNL     1     -21.813 -37.029 -24.203  1.00  0.00     0.005 C
ENDROOT
BRANCH   1   2
HETATM    2  C5  UNL     1     -22.225 -38.058 -23.173  1.00  0.00     0.028 C
BRANCH   2   3
HETATM    3  C4  UNL     1     -22.214 -39.457 -23.752  1.00  0.00     0.238 C
BRANCH   3   4
HETATM    4  N1  UNL     1     -22.058 -40.371 -22.617  1.00  0.00    -0.064 N
HETATM    5  C12 UNL     1     -22.389 -41.695 -23.105  1.00  0.00     0.238 C
HETATM    6  C13 UNL     1     -23.378 -42.283 -22.125  1.00  0.00     0.029 C
HETATM    7  C14 UNL     1     -24.129 -41.037 -21.679  1.00  0.00     0.029 C
HETATM    8  C15 UNL     1     -23.002 -40.031 -21.597  1.00  0.00     0.238 C
BRANCH   4   9
HETATM    9  C3  UNL     1     -20.677 -40.299 -22.197  1.00  0.00     0.264 C
BRANCH   9  10
HETATM   10  C2  UNL     1     -19.724 -40.774 -23.226  1.00  0.00    -0.009 C
HETATM   11  C1  UNL     1     -18.569 -40.176 -23.468  1.00  0.00     0.008 C
ENDBRANCH   9  10
ENDBRANCH   4   9
ENDBRANCH   3   4
ENDBRANCH   2   3
ENDBRANCH   1   2
BRANCH   1  12
HETATM   12  C7  UNL     1     -20.822 -37.689 -25.120  1.00  0.00     0.027 C
BRANCH  12  13
HETATM   13  C8  UNL     1     -21.005 -37.368 -26.551  1.00  0.00    -0.031 C
HETATM   14  C9  UNL     1     -21.355 -38.351 -27.370  1.00  0.00    -0.029 C
BRANCH  14  15
HETATM   15  C10 UNL     1     -21.561 -38.112 -28.835  1.00  0.00     0.048 C
BRANCH  15  16
HETATM   16  C11 UNL     1     -20.880 -39.279 -29.547  1.00  0.00     0.142 C
BRANCH  16  17
HETATM   17  N2  UNL     1     -21.241 -40.499 -28.918  1.00  0.00    -0.343 N
HETATM   18  N3  UNL     1     -21.297 -41.536 -29.576  1.00  0.00    -0.349 N
ATOM     19  H32 UNL     1     -21.081 -41.502 -30.572  1.00  0.00     0.176 HD
ATOM     20  H31 UNL     1     -21.556 -42.412 -29.124  1.00  0.00     0.176 HD
ATOM     21  H2  UNL     1     -21.454 -40.515 -27.920  1.00  0.00     0.179 HD
ENDBRANCH  16  17
ENDBRANCH  15  16
ENDBRANCH  14  15
ENDBRANCH  12  13
ENDBRANCH   1  12
TORSDOF 10
ENDMDL