MODEL 4
REMARK VINA RESULT: -6.623005561      2.245      5.443
REMARK  9 active torsions:
REMARK  status: ('A' for Active; 'I' for Inactive)
REMARK    1  A    between atoms: C2_2  and  C3_3
REMARK    2  A    between atoms: C3_3  and  C4_4
REMARK    3  A    between atoms: C4_4  and  C5_5
REMARK    4  A    between atoms: C5_5  and  C6_6
REMARK    5  A    between atoms: C7_7  and  C8_8
REMARK    6  A    between atoms: C7_7  and  C10_10
REMARK    7  A    between atoms: C11_11  and  N1_12
REMARK    8  A    between atoms: N1_12  and  C12_13
REMARK    9  A    between atoms: C12_13  and  C13_14
ROOT
HETATM    1  C10 UNL     1     -19.008 -41.551 -23.437  1.00  0.00     0.036 C
HETATM    2  C11 UNL     1     -20.257 -41.479 -24.144  1.00  0.00     0.204 C
ENDROOT
BRANCH   1   3
HETATM    3  C7  UNL     1     -17.870 -40.981 -23.923  1.00  0.00    -0.036 C
HETATM    4  C6  UNL     1     -16.910 -41.897 -24.481  1.00  0.00     0.007 C
BRANCH   4   5
HETATM    5  C5  UNL     1     -15.616 -42.189 -23.870  1.00  0.00    -0.026 C
BRANCH   5   6
HETATM    6  C4  UNL     1     -14.474 -41.273 -23.830  1.00  0.00     0.031 C
BRANCH   6   7
HETATM    7  C3  UNL     1     -14.381 -40.608 -22.448  1.00  0.00     0.030 C
BRANCH   7   8
HETATM    8  C2  UNL     1     -13.778 -39.279 -22.533  1.00  0.00    -0.037 C
HETATM    9  C1  UNL     1     -13.884 -38.545 -23.610  1.00  0.00     0.007 C
ENDBRANCH   7   8
ENDBRANCH   6   7
ENDBRANCH   5   6
ENDBRANCH   4   5
BRANCH   3  10
HETATM   10  C8  UNL     1     -17.837 -39.561 -23.857  1.00  0.00     0.001 C
HETATM   11  C9  UNL     1     -18.026 -38.595 -24.691  1.00  0.00     0.012 C
ENDBRANCH   3  10
ENDBRANCH   1   3
BRANCH   2  12
HETATM   12  N1  UNL     1     -21.315 -40.776 -23.447  1.00  0.00    -0.044 N
HETATM   13  C15 UNL     1     -22.476 -41.620 -23.226  1.00  0.00     0.243 C
HETATM   14  C16 UNL     1     -23.274 -40.835 -22.230  1.00  0.00     0.030 C
HETATM   15  C17 UNL     1     -22.214 -40.205 -21.362  1.00  0.00     0.030 C
HETATM   16  C18 UNL     1     -20.926 -40.242 -22.187  1.00  0.00     0.243 C
BRANCH  12  17
HETATM   17  C12 UNL     1     -21.740 -39.678 -24.297  1.00  0.00     0.269 C
BRANCH  17  18
HETATM   18  C13 UNL     1     -21.346 -39.888 -25.719  1.00  0.00    -0.009 C
HETATM   19  C14 UNL     1     -21.273 -38.886 -26.582  1.00  0.00     0.008 C
ENDBRANCH  17  18
ENDBRANCH  12  17
ENDBRANCH   2  12
TORSDOF 9
ENDMDL