MODEL 1
REMARK VINA RESULT: -6.746669010      0.000      0.000
REMARK  12 active torsions:
REMARK  status: ('A' for Active; 'I' for Inactive)
REMARK    1  A    between atoms: C2_2  and  C3_3
REMARK    2  A    between atoms: C3_3  and  C4_4
REMARK    3  A    between atoms: C4_4  and  N1_5
REMARK    4  A    between atoms: C6_7  and  C7_8
REMARK    5  A    between atoms: C7_8  and  C8_9
REMARK    6  A    between atoms: C9_10  and  C10_11
REMARK    7  A    between atoms: C11_12  and  C12_13
REMARK    8  A    between atoms: C12_13  and  C13_14
REMARK    9  A    between atoms: C13_14  and  C14_15
REMARK   10  A    between atoms: C14_15  and  C15_16
REMARK   11  A    between atoms: C15_16  and  N2_17
REMARK   12  A    between atoms: N2_17  and  N3_18
ROOT
HETATM    1  C8  UNL     1     -20.404 -40.778 -21.945  1.00  0.00    -0.022 C
HETATM    2  C9  UNL     1     -21.393 -40.025 -21.528  1.00  0.00    -0.004 C
ENDROOT
BRANCH   2   3
HETATM    3  C10 UNL     1     -22.424 -39.496 -22.365  1.00  0.00    -0.004 C
HETATM    4  C11 UNL     1     -22.542 -38.497 -23.145  1.00  0.00    -0.027 C
BRANCH   4   5
HETATM    5  C12 UNL     1     -21.674 -37.424 -23.541  1.00  0.00     0.027 C
BRANCH   5   6
HETATM    6  C13 UNL     1     -20.646 -37.759 -24.547  1.00  0.00     0.010 C
BRANCH   6   7
HETATM    7  C14 UNL     1     -21.285 -38.399 -25.792  1.00  0.00     0.062 C
BRANCH   7   8
HETATM    8  C15 UNL     1     -20.927 -37.607 -26.994  1.00  0.00     0.181 C
BRANCH   8   9
HETATM    9  N2  UNL     1     -20.801 -36.380 -26.973  1.00  0.00    -0.350 NA
BRANCH   9  10
HETATM   10  N3  UNL     1     -20.620 -35.164 -26.981  1.00  0.00    -0.281 N
ATOM     11  H32 UNL     1     -19.900 -35.623 -27.538  1.00  0.00     0.191 HD
ATOM     12  H31 UNL     1     -20.512 -34.149 -26.957  1.00  0.00     0.191 HD
ENDBRANCH   9  10
ENDBRANCH   8   9
ENDBRANCH   7   8
ENDBRANCH   6   7
ENDBRANCH   5   6
ENDBRANCH   4   5
ENDBRANCH   2   3
BRANCH   1  13
HETATM   13  C7  UNL     1     -20.177 -41.204 -23.302  1.00  0.00     0.068 C
BRANCH  13  14
HETATM   14  C6  UNL     1     -18.703 -41.014 -23.591  1.00  0.00    -0.024 A
HETATM   15  C5  UNL     1     -17.769 -39.908 -23.503  1.00  0.00     0.099 A
HETATM   16  N1  UNL     1     -16.792 -40.630 -23.930  1.00  0.00    -0.365 N
HETATM   17  C16 UNL     1     -17.684 -41.728 -24.024  1.00  0.00     0.099 A
BRANCH  16  18
HETATM   18  C4  UNL     1     -15.368 -40.392 -24.195  1.00  0.00     0.128 C
BRANCH  18  19
HETATM   19  C3  UNL     1     -14.602 -41.026 -23.041  1.00  0.00     0.020 C
BRANCH  19  20
HETATM   20  C2  UNL     1     -13.500 -40.031 -22.685  1.00  0.00    -0.003 C
HETATM   21  C1  UNL     1     -13.975 -38.611 -22.875  1.00  0.00     0.005 C
ENDBRANCH  19  20
ENDBRANCH  18  19
ENDBRANCH  16  18
ENDBRANCH  13  14
ENDBRANCH   1  13
TORSDOF 12
ENDMDL