MODEL 3
REMARK VINA RESULT: -6.343243534      1.926      6.322
REMARK  11 active torsions:
REMARK  status: ('A' for Active; 'I' for Inactive)
REMARK    1  A    between atoms: C2_2  and  C3_3
REMARK    2  A    between atoms: C3_3  and  C4_4
REMARK    3  A    between atoms: C4_4  and  C5_5
REMARK    4  A    between atoms: N1_9  and  C9_10
REMARK    5  A    between atoms: C9_10  and  C10_11
REMARK    6  A    between atoms: C10_11  and  C11_12
REMARK    7  A    between atoms: C11_12  and  C12_13
REMARK    8  A    between atoms: C12_13  and  C13_14
REMARK    9  A    between atoms: C13_14  and  C14_15
REMARK   10  A    between atoms: C14_15  and  C15_16
REMARK   11  A    between atoms: C15_16  and  C16_17
ROOT
HETATM    1  C5  UNL     1     -21.884 -42.132 -22.363  1.00  0.00     0.089 C
HETATM    2  C6  UNL     1     -23.273 -41.909 -21.860  1.00  0.00     0.031 C
HETATM    3  C7  UNL     1     -23.185 -40.403 -21.581  1.00  0.00     0.046 C
HETATM    4  C8  UNL     1     -22.408 -40.019 -22.828  1.00  0.00     0.064 C
HETATM    5  N1  UNL     1     -21.699 -40.964 -23.250  1.00  0.00    -0.365 N
ENDROOT
BRANCH   5   6
HETATM    6  C9  UNL     1     -20.885 -41.098 -24.405  1.00  0.00     0.090 C
BRANCH   6   7
HETATM    7  C10 UNL     1     -19.475 -40.858 -24.312  1.00  0.00     0.013 C
BRANCH   7   8
HETATM    8  C11 UNL     1     -18.776 -40.227 -23.438  1.00  0.00    -0.025 C
BRANCH   8   9
HETATM    9  C12 UNL     1     -17.328 -39.844 -23.661  1.00  0.00     0.027 C
BRANCH   9  10
HETATM   10  C13 UNL     1     -16.624 -41.073 -24.231  1.00  0.00     0.004 C
BRANCH  10  11
HETATM   11  C14 UNL     1     -15.143 -40.919 -24.167  1.00  0.00     0.000 C
BRANCH  11  12
HETATM   12  C15 UNL     1     -14.460 -40.938 -22.873  1.00  0.00    -0.000 C
BRANCH  12  13
HETATM   13  C16 UNL     1     -13.655 -39.794 -22.424  1.00  0.00    -0.005 C
HETATM   14  C17 UNL     1     -13.907 -38.520 -23.136  1.00  0.00     0.005 C
ENDBRANCH  12  13
ENDBRANCH  11  12
ENDBRANCH  10  11
ENDBRANCH   9  10
ENDBRANCH   8   9
ENDBRANCH   7   8
ENDBRANCH   6   7
ENDBRANCH   5   6
BRANCH   1  15
HETATM   15  C4  UNL     1     -20.894 -42.096 -21.254  1.00  0.00     0.029 C
BRANCH  15  16
HETATM   16  C3  UNL     1     -20.328 -43.465 -21.018  1.00  0.00     0.028 C
BRANCH  16  17
HETATM   17  C2  UNL     1     -19.732 -44.019 -22.291  1.00  0.00    -0.037 C
HETATM   18  C1  UNL     1     -18.788 -44.923 -22.188  1.00  0.00     0.007 C
ENDBRANCH  16  17
ENDBRANCH  15  16
ENDBRANCH   1  15
TORSDOF 11
ENDMDL