MODEL 3
REMARK VINA RESULT: -7.410570582      1.790      2.883
REMARK  6 active torsions:
REMARK  status: ('A' for Active; 'I' for Inactive)
REMARK    1  A    between atoms: C4_4  and  C5_5
REMARK    2  A    between atoms: C5_5  and  C6_6
REMARK    3  A    between atoms: C6_6  and  C7_7
REMARK    4  A    between atoms: C21_23  and  C22_24
REMARK    5  A    between atoms: C22_24  and  C23_25
REMARK    6  A    between atoms: C23_25  and  O3_26
ROOT
HETATM    1  C7  UNL     1      -8.017  -6.158  13.001  1.00  0.00    -0.024 C
HETATM    2  C8  UNL     1      -6.778  -6.883  13.576  1.00  0.00     0.017 C
HETATM    3  C9  UNL     1      -7.718  -6.245  11.517  1.00  0.00    -0.009 C
HETATM    4  C10 UNL     1      -6.312  -6.118  11.085  1.00  0.00     0.011 C
HETATM    5  C11 UNL     1      -8.740  -5.640  10.600  1.00  0.00     0.006 C
HETATM    6  C12 UNL     1      -8.252  -4.498   9.786  1.00  0.00     0.016 C
HETATM    7  C13 UNL     1      -8.579  -3.123  10.171  1.00  0.00     0.000 C
HETATM    8  C14 UNL     1      -8.936  -2.291   8.916  1.00  0.00     0.022 C
HETATM    9  C15 UNL     1      -9.584  -2.905  11.235  1.00  0.00    -0.019 C
HETATM   10  C16 UNL     1      -9.945  -3.324  12.435  1.00  0.00    -0.028 C
HETATM   11  C17 UNL     1      -9.608  -4.271  13.516  1.00  0.00     0.047 C
HETATM   12  C18 UNL     1      -8.185  -4.786  13.551  1.00  0.00     0.055 C
HETATM   13  C19 UNL     1      -7.829  -4.744  15.061  1.00  0.00     0.027 C
HETATM   14  C20 UNL     1      -7.240  -3.791  12.972  1.00  0.00     0.268 C
HETATM   15  O1  UNL     1      -6.115  -3.802  13.611  1.00  0.00    -0.264 OA
HETATM   16  O2  UNL     1      -7.115  -2.839  11.983  1.00  0.00    -0.314 OA
HETATM   17  C21 UNL     1      -7.302  -2.421  10.680  1.00  0.00     0.145 C
ENDROOT
BRANCH   1  18
HETATM   18  C6  UNL     1      -9.140  -7.119  13.235  1.00  0.00     0.014 C
BRANCH  18  19
HETATM   19  C5  UNL     1      -8.923  -8.383  13.935  1.00  0.00     0.028 C
BRANCH  19  20
HETATM   20  C4  UNL     1      -9.580  -9.552  13.225  1.00  0.00    -0.025 C
HETATM   21  C2  UNL     1      -8.897 -10.369  12.428  1.00  0.00    -0.091 C
HETATM   22  C1  UNL     1      -9.536 -11.497  11.745  1.00  0.00     0.042 C
HETATM   23  C3  UNL     1      -7.421 -10.156  12.198  1.00  0.00     0.042 C
ENDBRANCH  19  20
ENDBRANCH  18  19
ENDBRANCH   1  18
BRANCH  17  24
HETATM   24  C22 UNL     1      -7.516  -0.919  10.689  1.00  0.00     0.059 C
BRANCH  24  25
HETATM   25  C23 UNL     1      -6.884  -0.391  11.982  1.00  0.00     0.166 C
BRANCH  25  26
HETATM   26  O3  UNL     1      -7.886  -0.271  12.963  1.00  0.00    -0.401 OA
ATOM     27  H3  UNL     1      -7.848   0.601  13.338  1.00  0.00     0.209 HD
ENDBRANCH  25  26
ENDBRANCH  24  25
ENDBRANCH  17  24
TORSDOF 6
ENDMDL