MODEL 5
REMARK VINA RESULT: -7.297104667      1.252      1.323
REMARK  6 active torsions:
REMARK  status: ('A' for Active; 'I' for Inactive)
REMARK    1  A    between atoms: C9_9  and  C10_10
REMARK    2  A    between atoms: C10_10  and  C11_11
REMARK    3  A    between atoms: C12_12  and  C13_13
REMARK    4  A    between atoms: C13_13  and  C14_18
REMARK    5  A    between atoms: N1_14  and  O1_16
REMARK    6  A    between atoms: C14_18  and  O2_21
ROOT
HETATM    1  C1  UNL     1      -7.474  -1.012  10.789  1.00  0.00     0.015 C
HETATM    2  C2  UNL     1      -7.398  -2.116  10.101  1.00  0.00    -0.084 C
HETATM    3  C3  UNL     1      -8.525  -2.817   9.453  1.00  0.00     0.039 C
HETATM    4  C4  UNL     1      -8.149  -4.291   9.487  1.00  0.00     0.006 C
HETATM    5  C5  UNL     1      -9.101  -4.888  10.507  1.00  0.00     0.033 C
HETATM    6  C6  UNL     1      -8.849  -4.250  11.843  1.00  0.00    -0.019 C
HETATM    7  C7  UNL     1      -7.552  -4.323  12.216  1.00  0.00    -0.062 C
HETATM    8  C8  UNL     1      -7.116  -3.744  13.510  1.00  0.00     0.048 C
HETATM    9  C9  UNL     1      -6.670  -5.010  11.240  1.00  0.00    -0.061 C
HETATM   10  C17 UNL     1      -6.688  -4.350   9.942  1.00  0.00    -0.004 C
HETATM   11  C18 UNL     1      -5.831  -5.129   8.928  1.00  0.00     0.019 C
HETATM   12  C19 UNL     1      -4.613  -4.397   8.506  1.00  0.00    -0.017 C
HETATM   13  C20 UNL     1      -3.569  -5.457   8.122  1.00  0.00     0.010 C
HETATM   14  C21 UNL     1      -3.955  -3.483   9.465  1.00  0.00     0.005 C
HETATM   15  C22 UNL     1      -4.916  -2.587  10.250  1.00  0.00     0.010 C
HETATM   16  C23 UNL     1      -6.271  -2.949   9.764  1.00  0.00     0.027 C
ENDROOT
BRANCH   9  17
HETATM   17  C10 UNL     1      -5.394  -5.516  11.810  1.00  0.00     0.062 C
BRANCH  17  18
HETATM   18  C11 UNL     1      -5.662  -6.910  12.297  1.00  0.00    -0.020 C
HETATM   19  C12 UNL     1      -6.749  -7.567  11.942  1.00  0.00     0.026 C
BRANCH  19  20
HETATM   20  C13 UNL     1      -7.048  -8.918  12.390  1.00  0.00     0.065 C
HETATM   21  N1  UNL     1      -6.071  -9.695  12.710  1.00  0.00    -0.270 N
ATOM     22  H1  UNL     1      -5.130  -9.312  12.628  1.00  0.00     0.194 HD
BRANCH  21  23
HETATM   23  O1  UNL     1      -6.181 -10.978  13.144  1.00  0.00    -0.290 OA
ATOM     24  H1  UNL     1      -5.570 -11.683  12.963  1.00  0.00     0.244 HD
ENDBRANCH  21  23
BRANCH  20  25
HETATM   25  C14 UNL     1      -8.427  -9.439  12.494  1.00  0.00     0.094 C
HETATM   26  C15 UNL     1      -8.794 -10.295  11.304  1.00  0.00     0.052 C
HETATM   27  C16 UNL     1      -9.348  -8.217  12.433  1.00  0.00     0.052 C
BRANCH  25  28
HETATM   28  O2  UNL     1      -8.686 -10.115  13.658  1.00  0.00    -0.384 OA
ATOM     29  H2  UNL     1      -8.899 -11.032  13.537  1.00  0.00     0.211 HD
ENDBRANCH  25  28
ENDBRANCH  20  25
ENDBRANCH  19  20
ENDBRANCH  17  18
ENDBRANCH   9  17
TORSDOF 6
ENDMDL