MODEL 3
REMARK VINA RESULT: -7.869787203      2.198      6.180
REMARK  6 active torsions:
REMARK  status: ('A' for Active; 'I' for Inactive)
REMARK    1  A    between atoms: C2_2  and  C3_3
REMARK    2  A    between atoms: C3_3  and  C4_4
REMARK    3  A    between atoms: C4_4  and  C5_5
REMARK    4  A    between atoms: C5_5  and  C6_6
REMARK    5  A    between atoms: C16_17  and  C17_18
REMARK    6  A    between atoms: C19_21  and  O3_22
ROOT
HETATM    1  C6  UNL     1      -6.893  -3.141   9.945  1.00  0.00    -0.004 C
HETATM    2  C7  UNL     1      -6.315  -2.946  11.328  1.00  0.00     0.022 C
HETATM    3  C8  UNL     1      -7.375  -2.139  12.056  1.00  0.00     0.021 C
HETATM    4  C9  UNL     1      -6.819  -1.327  13.183  1.00  0.00     0.024 C
HETATM    5  C10 UNL     1      -8.405  -3.116  12.506  1.00  0.00     0.135 C
HETATM    6  O1  UNL     1      -8.247  -3.744  13.560  1.00  0.00    -0.297 OA
HETATM    7  C11 UNL     1      -9.606  -3.324  11.690  1.00  0.00     0.080 C
HETATM    8  C12 UNL     1      -9.388  -3.136  10.203  1.00  0.00     0.018 C
HETATM    9  C13 UNL     1      -8.161  -2.374   9.869  1.00  0.00    -0.024 C
HETATM   10  C14 UNL     1      -8.003  -1.310  10.969  1.00  0.00     0.011 C
HETATM   11  C15 UNL     1      -7.078  -0.283  10.397  1.00  0.00     0.016 C
HETATM   12  C16 UNL     1      -7.307  -0.368   8.918  1.00  0.00     0.029 C
HETATM   13  C21 UNL     1      -8.248  -1.507   8.647  1.00  0.00    -0.032 C
HETATM   14  C22 UNL     1      -9.658  -1.081   8.319  1.00  0.00     0.016 C
HETATM   15  C23 UNL     1      -7.775  -2.248   7.385  1.00  0.00     0.016 C
ENDROOT
BRANCH  12  16
HETATM   16  C17 UNL     1      -7.701   0.914   8.308  1.00  0.00    -0.026 A
HETATM   17  C18 UNL     1      -7.933   1.163   6.987  1.00  0.00     0.152 A
HETATM   18  O2  UNL     1      -8.252   2.417   6.866  1.00  0.00    -0.300 OA
HETATM   19  C19 UNL     1      -8.251   3.027   8.026  1.00  0.00     0.183 A
HETATM   20  C20 UNL     1      -7.902   2.100   8.982  1.00  0.00     0.073 A
BRANCH  19  21
HETATM   21  O3  UNL     1      -8.555   4.368   8.195  1.00  0.00    -0.341 OA
ATOM     22  H3  UNL     1      -9.320   4.684   8.660  1.00  0.00     0.220 HD
ENDBRANCH  19  21
ENDBRANCH  12  16
BRANCH   1  23
HETATM   23  C5  UNL     1      -7.012  -4.600   9.647  1.00  0.00     0.006 C
BRANCH  23  24
HETATM   24  C4  UNL     1      -5.641  -5.215   9.463  1.00  0.00     0.004 C
BRANCH  24  25
HETATM   25  C3  UNL     1      -4.998  -4.537   8.261  1.00  0.00     0.026 C
BRANCH  25  26
HETATM   26  C2  UNL     1      -3.710  -5.206   7.910  1.00  0.00    -0.037 C
HETATM   27  C1  UNL     1      -3.197  -6.168   8.666  1.00  0.00     0.007 C
ENDBRANCH  25  26
ENDBRANCH  24  25
ENDBRANCH  23  24
ENDBRANCH   1  23
TORSDOF 6
ENDMDL