MODEL 4
REMARK VINA RESULT: -7.452273096      1.784      4.353
REMARK  8 active torsions:
REMARK  status: ('A' for Active; 'I' for Inactive)
REMARK       I    between atoms: N1_3  and  C3_4
REMARK    1  A    between atoms: C3_4  and  O2_6
REMARK    2  A    between atoms: O2_6  and  C4_7
REMARK    3  A    between atoms: C8_11  and  C9_12
REMARK    4  A    between atoms: C9_12  and  C10_13
REMARK    5  A    between atoms: C14_17  and  O3_18
REMARK    6  A    between atoms: C14_17  and  C15_20
REMARK    7  A    between atoms: C15_20  and  C16_21
REMARK    8  A    between atoms: C17_22  and  C18_23
ROOT
HETATM    1  C1  UNL     1      -9.328  -3.304  11.664  1.00  0.00     0.041 C
HETATM    2  C2  UNL     1      -8.304  -4.036  11.370  1.00  0.00     0.042 C
HETATM    3  N1  UNL     1      -7.019  -3.685  10.774  1.00  0.00    -0.290 N
HETATM    4  C3  UNL     1      -6.870  -2.538   9.970  1.00  0.00     0.368 C
HETATM    5  O1  UNL     1      -5.821  -2.114   9.473  1.00  0.00    -0.238 OA
HETATM    6  C8  UNL     1      -6.069  -4.673  11.174  1.00  0.00     0.098 C
HETATM    7  C13 UNL     1      -6.827  -5.597  12.159  1.00  0.00     0.070 C
HETATM    8  C14 UNL     1      -8.219  -5.496  11.642  1.00  0.00     0.104 C
ENDROOT
BRANCH   8   9
HETATM    9  O3  UNL     1      -8.451  -6.216  10.504  1.00  0.00    -0.383 OA
ATOM     10  H3  UNL     1      -8.137  -7.107  10.599  1.00  0.00     0.211 HD
ENDBRANCH   8   9
BRANCH   8  11
HETATM   11  C15 UNL     1      -9.275  -5.918  12.665  1.00  0.00     0.071 C
BRANCH  11  12
HETATM   12  C16 UNL     1      -8.582  -6.677  13.690  1.00  0.00    -0.027 C
HETATM   13  C17 UNL     1      -8.480  -7.932  13.905  1.00  0.00    -0.026 C
BRANCH  13  14
HETATM   14  C18 UNL     1      -9.005  -9.078  13.221  1.00  0.00     0.008 C
HETATM   15  C19 UNL     1      -8.169  -9.442  11.978  1.00  0.00     0.008 C
HETATM   16  C20 UNL     1      -8.823 -10.711  11.514  1.00  0.00     0.001 C
HETATM   17  C21 UNL     1      -9.548 -11.284  12.709  1.00  0.00     0.001 C
HETATM   18  C22 UNL     1      -9.075 -10.403  13.888  1.00  0.00     0.008 C
ENDBRANCH  13  14
ENDBRANCH  11  12
ENDBRANCH   8  11
BRANCH   6  19
HETATM   19  C9  UNL     1      -5.425  -5.562  10.210  1.00  0.00     0.029 C
BRANCH  19  20
HETATM   20  C10 UNL     1      -4.114  -5.301   9.605  1.00  0.00    -0.021 C
HETATM   21  C11 UNL     1      -3.169  -6.490   9.563  1.00  0.00     0.009 C
HETATM   22  C12 UNL     1      -4.397  -5.016   8.099  1.00  0.00     0.009 C
ENDBRANCH  19  20
ENDBRANCH   6  19
BRANCH   4  23
HETATM   23  O2  UNL     1      -7.983  -1.748   9.654  1.00  0.00    -0.294 OA
BRANCH  23  24
HETATM   24  C4  UNL     1      -8.612  -1.753   8.397  1.00  0.00     0.061 C
HETATM   25  C5  UNL     1      -8.506  -0.344   7.841  1.00  0.00     0.046 C
HETATM   26  C6  UNL     1      -7.963  -2.697   7.414  1.00  0.00     0.046 C
HETATM   27  C7  UNL     1     -10.082  -2.087   8.471  1.00  0.00     0.046 C
ENDBRANCH  23  24
ENDBRANCH   4  23
TORSDOF 8
ENDMDL