MODEL 3
REMARK VINA RESULT: -7.375276912      0.621      1.468
REMARK  7 active torsions:
REMARK  status: ('A' for Active; 'I' for Inactive)
REMARK    1  A    between atoms: C5_5  and  C6_6
REMARK    2  A    between atoms: C6_6  and  O1_7
REMARK    3  A    between atoms: C6_6  and  C7_9
REMARK    4  A    between atoms: C7_9  and  O2_10
REMARK    5  A    between atoms: O2_10  and  C8_11
REMARK    6  A    between atoms: C8_11  and  C11_14
REMARK    7  A    between atoms: C11_14  and  C12_15
ROOT
HETATM    1  C1  UNL     1      -6.502  -9.452  11.558  1.00  0.00     0.017 C
HETATM    2  C2  UNL     1      -6.266  -8.311  12.191  1.00  0.00    -0.058 C
HETATM    3  C3  UNL     1      -7.218  -7.220  11.942  1.00  0.00     0.036 C
HETATM    4  C4  UNL     1      -6.855  -5.846  12.309  1.00  0.00     0.011 C
HETATM    5  C5  UNL     1      -7.145  -4.807  11.271  1.00  0.00     0.017 C
HETATM    6  C14 UNL     1      -6.325  -4.980  10.016  1.00  0.00     0.011 C
HETATM    7  C15 UNL     1      -4.853  -4.768  10.247  1.00  0.00     0.034 C
HETATM    8  C16 UNL     1      -4.076  -5.358   9.122  1.00  0.00    -0.087 C
HETATM    9  C17 UNL     1      -4.371  -4.793   7.749  1.00  0.00     0.043 C
HETATM   10  C18 UNL     1      -3.179  -6.318   9.283  1.00  0.00    -0.024 C
HETATM   11  C19 UNL     1      -2.819  -6.938  10.586  1.00  0.00     0.030 C
HETATM   12  C20 UNL     1      -3.772  -8.096  10.911  1.00  0.00     0.044 C
HETATM   13  C21 UNL     1      -3.801  -8.392  12.392  1.00  0.00     0.088 A
HETATM   14  C22 UNL     1      -2.631  -9.143  12.936  1.00  0.00     0.049 C
HETATM   15  O3  UNL     1      -4.176  -7.284  13.154  1.00  0.00    -0.365 OA
HETATM   16  C23 UNL     1      -5.080  -8.294  13.067  1.00  0.00     0.185 A
ENDROOT
BRANCH   5  17
HETATM   17  C6  UNL     1      -8.607  -4.831  10.802  1.00  0.00     0.146 C
BRANCH  17  18
HETATM   18  O1  UNL     1      -8.531  -5.518   9.567  1.00  0.00    -0.393 OA
ATOM     19  H1  UNL     1      -9.438  -5.741   9.391  1.00  0.00     0.210 HD
ENDBRANCH  17  18
BRANCH  17  20
HETATM   20  C7  UNL     1      -9.149  -3.473  10.548  1.00  0.00     0.200 C
BRANCH  20  21
HETATM   21  O2  UNL     1      -9.317  -3.116   9.292  1.00  0.00    -0.378 OA
BRANCH  21  22
HETATM   22  C8  UNL     1      -8.661  -2.258   8.555  1.00  0.00     0.053 C
HETATM   23  C9  UNL     1      -7.780  -2.852   7.497  1.00  0.00     0.045 C
HETATM   24  C10 UNL     1      -9.540  -1.241   7.808  1.00  0.00     0.045 C
BRANCH  22  25
HETATM   25  C11 UNL     1      -7.772  -1.352   9.438  1.00  0.00     0.037 C
BRANCH  25  26
HETATM   26  C12 UNL     1      -6.365  -1.297   8.957  1.00  0.00    -0.002 C
HETATM   27  C13 UNL     1      -5.360  -1.184  10.071  1.00  0.00     0.005 C
ENDBRANCH  25  26
ENDBRANCH  22  25
ENDBRANCH  21  22
ENDBRANCH  20  21
ENDBRANCH  17  20
ENDBRANCH   5  17
TORSDOF 7
ENDMDL