MODEL 4
REMARK VINA RESULT: -7.382210241      1.589      2.925
REMARK  7 active torsions:
REMARK  status: ('A' for Active; 'I' for Inactive)
REMARK    1  A    between atoms: C5_5  and  O1_6
REMARK    2  A    between atoms: C13_15  and  C15_17
REMARK    3  A    between atoms: C15_17  and  C16_18
REMARK    4  A    between atoms: C16_18  and  C17_19
REMARK    5  A    between atoms: C17_19  and  C18_20
REMARK    6  A    between atoms: C18_20  and  C19_21
REMARK    7  A    between atoms: C19_21  and  C20_22
ROOT
HETATM    1  C1  UNL     1      -8.187  -2.378   7.412  1.00  0.00     0.044 C
HETATM    2  C2  UNL     1      -7.496  -3.135   8.506  1.00  0.00    -0.074 C
HETATM    3  C3  UNL     1      -6.471  -3.861   8.114  1.00  0.00    -0.017 C
HETATM    4  C4  UNL     1      -5.771  -4.627   9.211  1.00  0.00     0.092 C
HETATM    5  C5  UNL     1      -6.866  -5.091  10.108  1.00  0.00     0.051 C
HETATM    6  C6  UNL     1      -7.596  -4.030  10.865  1.00  0.00    -0.026 C
HETATM    7  C7  UNL     1      -8.016  -2.989   9.893  1.00  0.00     0.006 C
HETATM    8  C8  UNL     1      -9.548  -3.007   9.676  1.00  0.00     0.025 C
HETATM    9  C9  UNL     1      -7.687  -1.562  10.226  1.00  0.00     0.019 C
HETATM   10  C10 UNL     1      -7.548  -1.243  11.667  1.00  0.00     0.007 C
HETATM   11  C11 UNL     1      -6.572  -2.249  12.248  1.00  0.00    -0.002 C
HETATM   12  C12 UNL     1      -6.042  -1.680  13.482  1.00  0.00     0.011 C
HETATM   13  C13 UNL     1      -7.068  -3.636  12.200  1.00  0.00     0.004 C
HETATM   14  C14 UNL     1      -5.841  -4.522  12.574  1.00  0.00     0.025 C
ENDROOT
BRANCH  13  15
HETATM   15  C15 UNL     1      -7.960  -3.953  13.376  1.00  0.00    -0.013 C
BRANCH  15  16
HETATM   16  C16 UNL     1      -9.333  -4.270  13.221  1.00  0.00    -0.007 C
BRANCH  16  17
HETATM   17  C17 UNL     1      -9.922  -5.417  13.447  1.00  0.00    -0.026 C
BRANCH  17  18
HETATM   18  C18 UNL     1      -9.382  -6.776  13.293  1.00  0.00     0.035 C
BRANCH  18  19
HETATM   19  C19 UNL     1      -9.564  -7.295  11.863  1.00  0.00     0.088 C
BRANCH  19  20
HETATM   20  C20 UNL     1      -9.059  -8.714  11.847  1.00  0.00     0.124 A
HETATM   21  N1  UNL     1      -7.804  -9.086  11.542  1.00  0.00    -0.348 N
HETATM   22  C21 UNL     1      -7.729 -10.411  11.633  1.00  0.00     0.122 A
ATOM     23  H1  UNL     1      -7.040  -8.460  11.285  1.00  0.00     0.167 HD
HETATM   24  C22 UNL     1      -8.988 -10.870  12.009  1.00  0.00     0.066 A
HETATM   25  C23 UNL     1      -9.385 -12.285  12.234  1.00  0.00     0.078 C
HETATM   26  O2  UNL     1      -9.729  -9.798  12.119  1.00  0.00    -0.301 OA
ENDBRANCH  19  20
ENDBRANCH  18  19
ENDBRANCH  17  18
ENDBRANCH  16  17
ENDBRANCH  15  16
ENDBRANCH  13  15
BRANCH   5  27
HETATM   27  O1  UNL     1      -6.592  -6.258  10.794  1.00  0.00    -0.364 OA
ATOM     28  H1  UNL     1      -6.530  -7.033  10.247  1.00  0.00     0.217 HD
ENDBRANCH   5  27
TORSDOF 7
ENDMDL