MODEL 3
REMARK VINA RESULT: -7.264127465      1.298      2.897
REMARK  10 active torsions:
REMARK  status: ('A' for Active; 'I' for Inactive)
REMARK    1  A    between atoms: C2_2  and  C3_3
REMARK    2  A    between atoms: C2_2  and  C11_12
REMARK    3  A    between atoms: C3_3  and  C4_4
REMARK    4  A    between atoms: C4_4  and  C5_5
REMARK    5  A    between atoms: C5_5  and  C6_6
REMARK    6  A    between atoms: C6_6  and  C7_7
REMARK    7  A    between atoms: C11_12  and  C12_13
REMARK    8  A    between atoms: C12_13  and  C13_14
REMARK    9  A    between atoms: C13_14  and  C14_15
REMARK   10  A    between atoms: C15_16  and  O2_17
ROOT
HETATM    1  C13 UNL     1      -7.226  -6.287  12.542  1.00  0.00    -0.019 C
ENDROOT
BRANCH   1   2
HETATM    2  C12 UNL     1      -6.247  -5.837  11.727  1.00  0.00    -0.003 C
BRANCH   2   3
HETATM    3  C11 UNL     1      -4.885  -6.059  12.139  1.00  0.00     0.006 C
BRANCH   3   4
HETATM    4  C2  UNL     1      -4.198  -7.103  11.640  1.00  0.00    -0.062 C
HETATM    5  C1  UNL     1      -3.709  -8.146  12.552  1.00  0.00     0.048 C
BRANCH   4   6
HETATM    6  C3  UNL     1      -3.961  -7.160  10.197  1.00  0.00     0.007 C
BRANCH   6   7
HETATM    7  C4  UNL     1      -3.172  -6.309   9.609  1.00  0.00     0.001 C
BRANCH   7   8
HETATM    8  C5  UNL     1      -3.403  -5.959   8.191  1.00  0.00     0.001 C
BRANCH   8   9
HETATM    9  C6  UNL     1      -3.706  -4.724   7.827  1.00  0.00     0.013 C
BRANCH   9  10
HETATM   10  C7  UNL     1      -4.692  -3.957   8.607  1.00  0.00    -0.012 A
HETATM   11  C8  UNL     1      -4.421  -2.943   9.502  1.00  0.00     0.038 A
HETATM   12  C9  UNL     1      -5.626  -2.511   9.998  1.00  0.00     0.142 A
HETATM   13  O1  UNL     1      -6.561  -3.214   9.443  1.00  0.00    -0.334 OA
HETATM   14  C10 UNL     1      -6.060  -4.089   8.608  1.00  0.00     0.152 A
ENDBRANCH   9  10
ENDBRANCH   8   9
ENDBRANCH   7   8
ENDBRANCH   6   7
ENDBRANCH   4   6
ENDBRANCH   3   4
ENDBRANCH   2   3
ENDBRANCH   1   2
BRANCH   1  15
HETATM   15  C14 UNL     1      -8.130  -7.353  12.091  1.00  0.00     0.045 C
HETATM   16  C15 UNL     1      -9.547  -7.110  12.623  1.00  0.00     0.127 C
HETATM   17  C16 UNL     1     -10.120  -8.496  12.948  1.00  0.00     0.038 C
HETATM   18  C17 UNL     1      -9.200  -9.358  12.247  1.00  0.00     0.004 C
HETATM   19  C18 UNL     1      -8.992 -10.753  12.491  1.00  0.00    -0.043 C
HETATM   20  C23 UNL     1      -7.848  -8.711  12.594  1.00  0.00    -0.030 C
HETATM   21  C19 UNL     1      -9.747 -11.564  11.422  1.00  0.00     0.015 C
HETATM   22  C20 UNL     1      -9.376 -11.332  13.804  1.00  0.00     0.015 C
HETATM   23  C21 UNL     1      -7.500 -10.964  12.185  1.00  0.00     0.010 C
HETATM   24  C22 UNL     1      -6.979  -9.585  11.742  1.00  0.00     0.011 C
HETATM   25  C24 UNL     1      -7.510  -8.746  14.021  1.00  0.00     0.016 C
BRANCH  16  26
HETATM   26  O2  UNL     1      -9.564  -6.269  13.722  1.00  0.00    -0.395 OA
ATOM     27  H2  UNL     1      -9.341  -6.719  14.527  1.00  0.00     0.210 HD
ENDBRANCH  16  26
ENDBRANCH   1  15
TORSDOF 10
ENDMDL