MODEL 2
REMARK VINA RESULT: -7.899681921      2.406      3.102
REMARK  6 active torsions:
REMARK  status: ('A' for Active; 'I' for Inactive)
REMARK    1  A    between atoms: C2_2  and  C3_3
REMARK    2  A    between atoms: C3_3  and  C4_4
REMARK    3  A    between atoms: C4_4  and  C5_5
REMARK    4  A    between atoms: C5_5  and  O1_6
REMARK    5  A    between atoms: O1_6  and  N1_7
REMARK    6  A    between atoms: C17_20  and  O2_21
ROOT
HETATM    1  N1  UNL     1      -7.181  -4.253  12.660  1.00  0.00    -0.275 N
ATOM      2  H1  UNL     1      -6.988  -3.547  13.370  1.00  0.00     0.193 HD
HETATM    3  C6  UNL     1      -7.236  -3.877  11.391  1.00  0.00     0.014 C
HETATM    4  C7  UNL     1      -7.521  -5.015  10.522  1.00  0.00     0.055 C
HETATM    5  C8  UNL     1      -8.294  -4.756   9.287  1.00  0.00     0.010 C
HETATM    6  C9  UNL     1      -9.270  -3.618   9.576  1.00  0.00     0.034 C
HETATM    7  C10 UNL     1      -8.571  -2.298   9.404  1.00  0.00    -0.076 C
HETATM    8  C11 UNL     1      -7.595  -1.761  10.111  1.00  0.00    -0.064 C
HETATM    9  C12 UNL     1      -6.980  -2.443  11.300  1.00  0.00     0.089 C
HETATM   10  C13 UNL     1      -6.963  -0.432   9.851  1.00  0.00    -0.015 C
HETATM   11  C14 UNL     1      -5.572  -0.728   9.336  1.00  0.00     0.020 C
HETATM   12  C15 UNL     1      -6.840   0.403  11.083  1.00  0.00     0.016 C
HETATM   13  C16 UNL     1      -7.096   1.859  10.856  1.00  0.00     0.033 C
HETATM   14  C17 UNL     1      -6.684   2.368   9.516  1.00  0.00     0.126 C
HETATM   15  C18 UNL     1      -7.364   1.612   8.400  1.00  0.00    -0.017 C
HETATM   16  C19 UNL     1      -8.623   2.433   8.072  1.00  0.00     0.018 C
HETATM   17  C20 UNL     1      -6.517   1.610   7.174  1.00  0.00     0.018 C
HETATM   18  C21 UNL     1      -7.825   0.282   8.863  1.00  0.00     0.008 C
HETATM   19  C22 UNL     1      -8.176  -0.638   7.685  1.00  0.00     0.011 C
HETATM   20  C23 UNL     1      -9.177  -1.616   8.242  1.00  0.00     0.035 C
ENDROOT
BRANCH   1  21
HETATM   21  O1  UNL     1      -7.371  -5.542  13.060  1.00  0.00    -0.281 OA
BRANCH  21  22
HETATM   22  C5  UNL     1      -8.434  -5.882  13.929  1.00  0.00     0.201 C
BRANCH  22  23
HETATM   23  C4  UNL     1      -9.729  -6.078  13.172  1.00  0.00     0.029 C
BRANCH  23  24
HETATM   24  C3  UNL     1      -9.979  -7.566  13.070  1.00  0.00     0.002 C
BRANCH  24  25
HETATM   25  C2  UNL     1      -9.605  -8.057  11.686  1.00  0.00    -0.004 C
HETATM   26  C1  UNL     1      -9.279  -9.523  11.771  1.00  0.00     0.005 C
ENDBRANCH  24  25
ENDBRANCH  23  24
ENDBRANCH  22  23
ENDBRANCH  21  22
ENDBRANCH   1  21
BRANCH  14  27
HETATM   27  O2  UNL     1      -7.036   3.736   9.481  1.00  0.00    -0.395 OA
ATOM     28  H2  UNL     1      -6.569   4.116   8.747  1.00  0.00     0.210 HD
ENDBRANCH  14  27
TORSDOF 6
ENDMDL