MODEL 4
REMARK VINA RESULT: -7.606891160      2.654      6.089
REMARK  6 active torsions:
REMARK  status: ('A' for Active; 'I' for Inactive)
REMARK    1  A    between atoms: C4_4  and  C5_5
REMARK    2  A    between atoms: C5_5  and  C6_6
REMARK    3  A    between atoms: C8_8  and  C9_9
REMARK    4  A    between atoms: C12_12  and  O1_13
REMARK    5  A    between atoms: O1_13  and  C13_14
REMARK    6  A    between atoms: C13_14  and  C15_16
ROOT
HETATM    1  C9  UNL     1      -7.993  -3.962   9.765  1.00  0.00    -0.000 C
HETATM    2  C10 UNL     1      -9.058  -5.037   9.750  1.00  0.00     0.021 C
HETATM    3  C11 UNL     1      -6.756  -4.476   9.072  1.00  0.00     0.050 C
HETATM    4  C12 UNL     1      -5.796  -4.958  10.140  1.00  0.00     0.160 C
HETATM    5  C19 UNL     1      -6.307  -4.466  11.452  1.00  0.00     0.116 C
HETATM    6  C20 UNL     1      -5.348  -3.481  12.122  1.00  0.00     0.052 C
HETATM    7  O2  UNL     1      -6.583  -5.494  12.386  1.00  0.00    -0.288 OA
HETATM    8  C21 UNL     1      -7.781  -5.228  13.022  1.00  0.00     0.361 C
HETATM    9  O3  UNL     1      -8.110  -5.718  14.130  1.00  0.00    -0.238 OA
HETATM   10  N1  UNL     1      -8.492  -4.324  12.162  1.00  0.00    -0.328 N
ATOM     11  H1  UNL     1      -9.491  -4.123  12.220  1.00  0.00     0.165 HD
HETATM   12  C22 UNL     1      -7.589  -3.742  11.208  1.00  0.00     0.136 C
ENDROOT
BRANCH   1  13
HETATM   13  C8  UNL     1      -8.460  -2.661   9.236  1.00  0.00    -0.013 C
HETATM   14  C6  UNL     1      -8.417  -2.257   7.984  1.00  0.00    -0.083 C
HETATM   15  C7  UNL     1      -7.860  -3.119   6.914  1.00  0.00     0.043 C
BRANCH  14  16
HETATM   16  C5  UNL     1      -8.924  -0.914   7.580  1.00  0.00     0.060 C
BRANCH  16  17
HETATM   17  C4  UNL     1      -8.189   0.180   8.274  1.00  0.00    -0.020 C
HETATM   18  C2  UNL     1      -8.524   1.458   8.140  1.00  0.00    -0.091 C
HETATM   19  C1  UNL     1      -9.665   1.871   7.277  1.00  0.00     0.042 C
HETATM   20  C3  UNL     1      -7.771   2.530   8.847  1.00  0.00     0.042 C
ENDBRANCH  16  17
ENDBRANCH  14  16
ENDBRANCH   1  13
BRANCH   4  21
HETATM   21  O1  UNL     1      -4.576  -4.353   9.887  1.00  0.00    -0.374 OA
BRANCH  21  22
HETATM   22  C13 UNL     1      -3.633  -5.206   9.342  1.00  0.00     0.141 C
HETATM   23  C14 UNL     1      -3.632  -5.245   7.856  1.00  0.00     0.044 C
BRANCH  22  24
HETATM   24  C15 UNL     1      -4.000  -6.592   9.819  1.00  0.00     0.006 C
HETATM   25  C16 UNL     1      -3.232  -7.283  10.623  1.00  0.00    -0.089 C
HETATM   26  C17 UNL     1      -3.639  -8.640  11.059  1.00  0.00     0.042 C
HETATM   27  C18 UNL     1      -1.950  -6.715  11.100  1.00  0.00     0.042 C
ENDBRANCH  22  24
ENDBRANCH  21  22
ENDBRANCH   4  21
TORSDOF 6
ENDMDL