MODEL 2
REMARK VINA RESULT: -6.711533740      4.498      6.728
REMARK  5 active torsions:
REMARK  status: ('A' for Active; 'I' for Inactive)
REMARK    1  A    between atoms: N1_2  and  C2_5
REMARK    2  A    between atoms: C2_5  and  C3_6
REMARK    3  A    between atoms: C3_6  and  C4_7
REMARK    4  A    between atoms: C5_8  and  O1_9
REMARK    5  A    between atoms: C13_18  and  C14_19
ROOT
HETATM    1  C4  UNL     1      -7.150  -3.154  10.408  1.00  0.00     0.010 A
HETATM    2  C5  UNL     1      -6.805  -3.749  11.600  1.00  0.00     0.085 A
HETATM    3  C7  UNL     1      -6.549  -3.061  12.777  1.00  0.00    -0.019 A
HETATM    4  C8  UNL     1      -6.194  -3.772  14.002  1.00  0.00     0.052 C
HETATM    5  C9  UNL     1      -6.648  -1.717  12.754  1.00  0.00    -0.018 A
HETATM    6  C10 UNL     1      -6.382  -0.896  13.981  1.00  0.00     0.052 C
HETATM    7  C11 UNL     1      -7.003  -1.062  11.588  1.00  0.00     0.094 A
HETATM    8  O2  UNL     1      -7.143   0.220  11.371  1.00  0.00    -0.308 OA
HETATM    9  C12 UNL     1      -7.503   0.417  10.135  1.00  0.00     0.095 A
HETATM   10  C13 UNL     1      -7.772   1.624   9.466  1.00  0.00    -0.014 A
HETATM   11  C17 UNL     1      -8.160   1.575   8.163  1.00  0.00    -0.052 A
HETATM   12  C18 UNL     1      -8.412   2.782   7.338  1.00  0.00     0.049 C
HETATM   13  C19 UNL     1      -8.283   0.344   7.551  1.00  0.00     0.015 A
HETATM   14  C20 UNL     1      -8.020  -0.872   8.198  1.00  0.00    -0.048 A
HETATM   15  C21 UNL     1      -8.556  -2.056   7.498  1.00  0.00     0.049 C
HETATM   16  C22 UNL     1      -7.607  -0.808   9.499  1.00  0.00     0.018 A
HETATM   17  C23 UNL     1      -7.267  -1.767  10.414  1.00  0.00     0.025 A
ENDROOT
BRANCH   1  18
HETATM   18  C3  UNL     1      -6.882  -3.897   9.208  1.00  0.00     0.015 C
BRANCH  18  19
HETATM   19  C2  UNL     1      -5.561  -4.052   8.572  1.00  0.00     0.260 C
BRANCH  19  20
HETATM   20  N1  UNL     1      -4.937  -5.340   9.018  1.00  0.00    -0.076 N
HETATM   21  C1  UNL     1      -3.743  -5.508   8.173  1.00  0.00     0.267 C
ATOM     22  H12 UNL     1      -5.574  -6.137   8.993  1.00  0.00     0.276 HD
ATOM     23  H11 UNL     1      -4.741  -5.376  10.019  1.00  0.00     0.276 HD
ENDBRANCH  19  20
ENDBRANCH  18  19
ENDBRANCH   1  18
BRANCH   2  24
HETATM   24  O1  UNL     1      -6.707  -5.127  11.698  1.00  0.00    -0.355 OA
HETATM   25  C6  UNL     1      -7.986  -5.810  11.800  1.00  0.00     0.210 C
ENDBRANCH   2  24
BRANCH  10  26
HETATM   26  C14 UNL     1      -7.560   2.834  10.278  1.00  0.00     0.014 C
HETATM   27  C15 UNL     1      -8.498   3.954  10.180  1.00  0.00     0.015 C
HETATM   28  C16 UNL     1      -6.089   3.307  10.135  1.00  0.00     0.015 C
ENDBRANCH  10  26
TORSDOF 5
ENDMDL