MODEL 5
REMARK VINA RESULT: -7.865712424      2.445      5.549
REMARK  9 active torsions:
REMARK  status: ('A' for Active; 'I' for Inactive)
REMARK    1  A    between atoms: N1_1  and  C1_4
REMARK    2  A    between atoms: C2_7  and  N3_8
REMARK    3  A    between atoms: C6_16  and  O2_17
REMARK    4  A    between atoms: C7_19  and  C8_20
REMARK    5  A    between atoms: C8_20  and  O3_21
REMARK    6  A    between atoms: C8_20  and  O4_23
REMARK    7  A    between atoms: C9_25  and  C10_26
REMARK    8  A    between atoms: C10_26  and  N6_27
REMARK    9  A    between atoms: C10_26  and  O5_31
ROOT
HETATM    1  C1  UNL     1     132.548   5.264  73.444  1.00  0.00     0.680 A
HETATM    2  N2  UNL     1     132.817   6.534  73.115  1.00  0.00    -0.174 N
ATOM      3  H2  UNL     1     133.761   6.893  73.258  1.00  0.00     0.186 HD
HETATM    4  C2  UNL     1     131.862   7.365  72.593  1.00  0.00     0.155 A
HETATM    5  C9  UNL     1     130.609   6.824  72.425  1.00  0.00     0.112 A
HETATM    6  C11 UNL     1     130.319   5.502  72.764  1.00  0.00     0.274 A
HETATM    7  O6  UNL     1     129.192   4.982  72.624  1.00  0.00    -0.267 OA
HETATM    8  N7  UNL     1     131.304   4.758  73.267  1.00  0.00    -0.156 N
ATOM      9  H7  UNL     1     131.118   3.788  73.523  1.00  0.00     0.187 HD
ENDROOT
BRANCH   4  10
HETATM   10  N3  UNL     1     132.203   8.669  72.300  1.00  0.00    -0.250 N
HETATM   11  N4  UNL     1     132.715   9.066  71.100  1.00  0.00    -0.314 N
HETATM   12  C3  UNL     1     133.440  10.264  70.920  1.00  0.00     0.222 C
ATOM     13  H4  UNL     1     132.565   8.467  70.288  1.00  0.00     0.181 HD
HETATM   14  C4  UNL     1     133.783  10.879  72.332  1.00  0.00     0.248 C
HETATM   15  C6  UNL     1     132.436  11.376  70.514  1.00  0.00     0.169 C
HETATM   16  O1  UNL     1     134.936  11.194  72.664  1.00  0.00    -0.271 OA
HETATM   17  N5  UNL     1     132.425  10.806  72.690  1.00  0.00    -0.320 N
HETATM   18  C5  UNL     1     131.794  11.828  71.899  1.00  0.00     0.162 C
HETATM   19  C7  UNL     1     131.921   9.688  73.412  1.00  0.00     0.267 C
BRANCH  19  20
HETATM   20  C8  UNL     1     132.549   9.297  74.681  1.00  0.00     0.298 C
BRANCH  20  21
HETATM   21  O3  UNL     1     131.809   8.407  75.422  1.00  0.00    -0.368 OA
ATOM     22  H3  UNL     1     130.869   8.515  75.331  1.00  0.00     0.212 HD
ENDBRANCH  20  21
BRANCH  20  23
HETATM   23  O4  UNL     1     133.863   8.836  74.548  1.00  0.00    -0.368 OA
ATOM     24  H4  UNL     1     134.239   8.982  73.687  1.00  0.00     0.212 HD
ENDBRANCH  20  23
ENDBRANCH  19  20
BRANCH  15  25
HETATM   25  O2  UNL     1     133.184  12.414  69.994  1.00  0.00    -0.391 OA
ATOM     26  H2  UNL     1     133.684  12.053  69.271  1.00  0.00     0.210 HD
ENDBRANCH  15  25
ENDBRANCH   4  10
BRANCH   5  27
HETATM   27  C10 UNL     1     129.492   7.610  71.873  1.00  0.00     0.359 C
BRANCH  27  28
HETATM   28  N6  UNL     1     128.425   7.545  72.887  1.00  0.00    -0.048 N
ATOM     29  H63 UNL     1     128.194   6.595  73.179  1.00  0.00     0.277 HD
ATOM     30  H62 UNL     1     128.710   7.887  73.805  1.00  0.00     0.277 HD
ATOM     31  H61 UNL     1     127.636   8.053  72.486  1.00  0.00     0.277 HD
ENDBRANCH  27  28
BRANCH  27  32
HETATM   32  O5  UNL     1     129.046   6.895  70.732  1.00  0.00    -0.366 OA
ATOM     33  H5  UNL     1     128.762   7.554  70.110  1.00  0.00     0.212 HD
ENDBRANCH  27  32
ENDBRANCH   5  27
BRANCH   1  34
HETATM   34  N1  UNL     1     133.510   4.520  73.939  1.00  0.00    -0.234 N
ATOM     35  H12 UNL     1     134.457   4.887  74.028  1.00  0.00     0.174 HD
ATOM     36  H11 UNL     1     133.293   3.568  74.234  1.00  0.00     0.174 HD
ENDBRANCH   1  34
TORSDOF 9
ENDMDL