MODEL 2
REMARK VINA RESULT: -8.536370025      2.284      3.779
REMARK  9 active torsions:
REMARK  status: ('A' for Active; 'I' for Inactive)
REMARK    1  A    between atoms: N1_1  and  C1_5
REMARK    2  A    between atoms: C1_5  and  N2_6
REMARK    3  A    between atoms: C1_5  and  C2_10
REMARK    4  A    between atoms: C6_18  and  O3_19
REMARK    5  A    between atoms: C6_18  and  N4_21
REMARK    6  A    between atoms: N4_21  and  C7_23
REMARK    7  A    between atoms: C9_25  and  O4_26
REMARK    8  A    between atoms: C9_25  and  O5_28
REMARK    9  A    between atoms: C10_31  and  C11_32
ROOT
HETATM    1  C2  UNL     1     132.441   9.170  72.103  1.00  0.00     0.143 A
HETATM    2  N3  UNL     1     132.376  10.289  71.477  1.00  0.00    -0.306 N
ATOM      3  H3  UNL     1     133.218  10.860  71.406  1.00  0.00     0.170 HD
HETATM    4  C3  UNL     1     131.177  10.767  70.876  1.00  0.00     0.299 A
HETATM    5  O1  UNL     1     131.082  11.849  70.261  1.00  0.00    -0.264 OA
HETATM    6  C4  UNL     1     129.996   9.922  71.001  1.00  0.00     0.270 A
HETATM    7  O2  UNL     1     128.894  10.302  70.482  1.00  0.00    -0.280 OA
HETATM    8  C5  UNL     1     130.049   8.650  71.708  1.00  0.00     0.141 A
HETATM    9  C6  UNL     1     128.998   7.881  71.828  1.00  0.00     0.172 C
HETATM   10  N5  UNL     1     131.330   8.296  72.264  1.00  0.00    -0.336 N
ATOM     11  H5  UNL     1     131.440   7.419  72.772  1.00  0.00     0.167 HD
ENDROOT
BRANCH   9  12
HETATM   12  O3  UNL     1     127.803   8.293  71.265  1.00  0.00    -0.344 OA
ATOM     13  H3  UNL     1     127.014   8.263  71.793  1.00  0.00     0.219 HD
ENDBRANCH   9  12
BRANCH   9  14
HETATM   14  N4  UNL     1     129.063   6.641  72.521  1.00  0.00    -0.336 N
ATOM     15  H4  UNL     1     129.466   5.835  72.043  1.00  0.00     0.168 HD
BRANCH  14  16
HETATM   16  C7  UNL     1     128.590   6.477  73.851  1.00  0.00     0.055 C
HETATM   17  C8  UNL     1     127.935   5.472  74.407  1.00  0.00     0.101 C
HETATM   18  C9  UNL     1     127.659   5.770  75.837  1.00  0.00     0.302 C
HETATM   19  O6  UNL     1     127.991   7.110  75.984  1.00  0.00    -0.307 OA
HETATM   20  C10 UNL     1     128.765   7.484  74.919  1.00  0.00     0.278 C
BRANCH  18  21
HETATM   21  O4  UNL     1     128.344   4.961  76.707  1.00  0.00    -0.340 OA
ATOM     22  H4  UNL     1     127.886   4.811  77.525  1.00  0.00     0.216 HD
ENDBRANCH  18  21
BRANCH  18  23
HETATM   23  O5  UNL     1     126.283   5.664  76.018  1.00  0.00    -0.340 OA
ATOM     24  H5  UNL     1     126.127   4.866  76.508  1.00  0.00     0.216 HD
ENDBRANCH  18  23
BRANCH  20  25
HETATM   25  C11 UNL     1     130.173   7.604  75.354  1.00  0.00     0.209 C
HETATM   26  O7  UNL     1     130.553   8.473  76.198  1.00  0.00    -0.646 OA
HETATM   27  O8  UNL     1     131.113   6.741  74.825  1.00  0.00    -0.646 OA
ENDBRANCH  20  25
ENDBRANCH  14  16
ENDBRANCH   9  14
BRANCH   1  28
HETATM   28  C1  UNL     1     133.734   8.768  72.689  1.00  0.00     0.444 C
BRANCH  28  29
HETATM   29  N1  UNL     1     134.764   9.752  72.460  1.00  0.00    -0.043 N
ATOM     30  H13 UNL     1     135.388   9.847  73.261  1.00  0.00     0.277 HD
ATOM     31  H12 UNL     1     135.450   9.435  71.775  1.00  0.00     0.277 HD
ATOM     32  H11 UNL     1     134.344  10.643  72.195  1.00  0.00     0.277 HD
ENDBRANCH  28  29
BRANCH  28  33
HETATM   33  N2  UNL     1     133.588   8.525  74.109  1.00  0.00    -0.043 N
ATOM     34  H23 UNL     1     134.080   7.682  74.405  1.00  0.00     0.277 HD
ATOM     35  H22 UNL     1     134.105   9.204  74.668  1.00  0.00     0.277 HD
ATOM     36  H21 UNL     1     132.599   8.498  74.359  1.00  0.00     0.277 HD
ENDBRANCH  28  33
ENDBRANCH   1  28
TORSDOF 9
ENDMDL