MODEL 5
REMARK VINA RESULT: -7.962988633      2.172      4.592
REMARK  8 active torsions:
REMARK  status: ('A' for Active; 'I' for Inactive)
REMARK    1  A    between atoms: C1_2  and  C2_4
REMARK    2  A    between atoms: C3_5  and  O3_6
REMARK    3  A    between atoms: O3_6  and  S1_7
REMARK    4  A    between atoms: C5_12  and  O7_13
REMARK    5  A    between atoms: C5_12  and  C6_15
REMARK    6  A    between atoms: C7_18  and  O10_19
REMARK    7  A    between atoms: C8_21  and  O11_22
REMARK    8  A    between atoms: C8_21  and  O12_24
ROOT
HETATM    1  C2  UNL     1     130.286   7.485  74.993  1.00  0.00     0.141 C
HETATM    2  C3  UNL     1     129.760   7.176  73.820  1.00  0.00     0.106 C
HETATM    3  C4  UNL     1     129.348   8.061  72.738  1.00  0.00     0.121 C
HETATM    4  C5  UNL     1     130.279   9.246  72.522  1.00  0.00     0.184 C
HETATM    5  C7  UNL     1     130.169  10.247  73.648  1.00  0.00     0.248 C
HETATM    6  C8  UNL     1     131.030   9.929  74.818  1.00  0.00     0.275 C
HETATM    7  N1  UNL     1     130.609   8.758  75.552  1.00  0.00    -0.326 N
ATOM      8  H1  UNL     1     130.534   8.850  76.565  1.00  0.00     0.165 HD
ENDROOT
BRANCH   2   9
HETATM    9  O3  UNL     1     129.589   5.819  73.625  1.00  0.00    -0.216 OA
BRANCH   9  10
HETATM   10  S1  UNL     1     130.375   4.883  72.466  1.00  0.00     0.256 S
HETATM   11  O4  UNL     1     129.509   3.810  71.874  1.00  0.00    -0.572 OA
HETATM   12  O5  UNL     1     131.521   4.157  73.156  1.00  0.00    -0.572 OA
HETATM   13  O6  UNL     1     131.052   5.846  71.265  1.00  0.00    -0.572 OA
ENDBRANCH   9  10
ENDBRANCH   2   9
BRANCH   1  14
HETATM   14  C1  UNL     1     130.606   6.371  75.902  1.00  0.00     0.229 C
HETATM   15  O1  UNL     1     129.775   5.884  76.700  1.00  0.00    -0.643 OA
HETATM   16  O2  UNL     1     131.873   5.818  75.894  1.00  0.00    -0.643 OA
ENDBRANCH   1  14
BRANCH   4  17
HETATM   17  O7  UNL     1     131.577   8.844  72.309  1.00  0.00    -0.376 OA
ATOM     18  H7  UNL     1     131.646   7.899  72.236  1.00  0.00     0.211 HD
ENDBRANCH   4  17
BRANCH   4  19
HETATM   19  C6  UNL     1     129.782   9.917  71.294  1.00  0.00     0.212 C
HETATM   20  O8  UNL     1     130.528  10.624  70.570  1.00  0.00    -0.646 OA
HETATM   21  O9  UNL     1     128.468   9.780  70.909  1.00  0.00    -0.646 OA
ENDBRANCH   4  19
BRANCH   6  22
HETATM   22  O11 UNL     1     132.390   9.862  74.487  1.00  0.00    -0.347 OA
ATOM     23  H11 UNL     1     132.890   9.330  75.093  1.00  0.00     0.215 HD
ENDBRANCH   6  22
BRANCH   6  24
HETATM   24  O12 UNL     1     130.933  11.037  75.696  1.00  0.00    -0.347 OA
ATOM     25  H12 UNL     1     130.296  10.797  76.358  1.00  0.00     0.215 HD
ENDBRANCH   6  24
BRANCH   5  26
HETATM   26  O10 UNL     1     128.848  10.266  74.060  1.00  0.00    -0.384 OA
ATOM     27  H10 UNL     1     128.776  10.907  74.758  1.00  0.00     0.210 HD
ENDBRANCH   5  26
TORSDOF 8
ENDMDL