MODEL 4
REMARK VINA RESULT: -7.900987663      1.550      1.798
REMARK  11 active torsions:
REMARK  status: ('A' for Active; 'I' for Inactive)
REMARK    1  A    between atoms: N1_1  and  N2_4
REMARK    2  A    between atoms: N2_4  and  C1_5
REMARK    3  A    between atoms: C1_5  and  O1_6
REMARK    4  A    between atoms: C1_5  and  N3_8
REMARK    5  A    between atoms: C5_15  and  O3_16
REMARK    6  A    between atoms: C5_15  and  C6_18
REMARK    7  A    between atoms: C6_18  and  O4_19
REMARK    8  A    between atoms: C7_22  and  O6_23
REMARK    9  A    between atoms: C7_22  and  C8_25
REMARK   10  A    between atoms: C8_25  and  S1_26
REMARK   11  A    between atoms: S1_26  and  N5_27
ROOT
HETATM    1  N3  UNL     1     128.888   6.902  75.040  1.00  0.00    -0.210 N
HETATM    2  N4  UNL     1     129.430   8.100  74.893  1.00  0.00    -0.290 N
ATOM      3  H4  UNL     1     129.496   8.785  75.647  1.00  0.00     0.187 HD
HETATM    4  C2  UNL     1     129.878   8.319  73.660  1.00  0.00     0.106 A
HETATM    5  C3  UNL     1     129.589   7.148  72.970  1.00  0.00     0.105 A
HETATM    6  C4  UNL     1     128.987   6.308  73.844  1.00  0.00     0.279 A
HETATM    7  O2  UNL     1     128.565   5.127  73.606  1.00  0.00    -0.266 OA
HETATM    8  C5  UNL     1     130.033   7.328  71.573  1.00  0.00     0.223 C
HETATM    9  O5  UNL     1     130.365   8.640  71.432  1.00  0.00    -0.305 OA
HETATM   10  C7  UNL     1     130.523   9.201  72.708  1.00  0.00     0.226 C
ENDROOT
BRANCH  10  11
HETATM   11  O6  UNL     1     129.844  10.422  72.650  1.00  0.00    -0.360 OA
ATOM     12  H6  UNL     1     130.131  10.989  73.357  1.00  0.00     0.213 HD
ENDBRANCH  10  11
BRANCH  10  13
HETATM   13  C8  UNL     1     131.956   9.423  72.953  1.00  0.00     0.238 C
BRANCH  13  14
HETATM   14  S1  UNL     1     132.505  11.064  73.230  1.00  0.00     0.230 S
HETATM   15  O7  UNL     1     133.984  11.218  73.352  1.00  0.00    -0.206 OA
HETATM   16  O8  UNL     1     132.012  12.043  72.182  1.00  0.00    -0.206 OA
BRANCH  14  17
HETATM   17  N5  UNL     1     131.776  11.677  74.716  1.00  0.00    -0.328 N
ATOM     18  H52 UNL     1     130.840  11.438  75.045  1.00  0.00     0.168 HD
ATOM     19  H51 UNL     1     132.437  12.299  75.182  1.00  0.00     0.168 HD
ENDBRANCH  14  17
ENDBRANCH  13  14
ENDBRANCH  10  13
BRANCH   8  20
HETATM   20  O3  UNL     1     128.933   7.056  70.714  1.00  0.00    -0.360 OA
ATOM     21  H3  UNL     1     129.213   7.189  69.816  1.00  0.00     0.213 HD
ENDBRANCH   8  20
BRANCH   8  22
HETATM   22  C6  UNL     1     131.100   6.365  71.212  1.00  0.00     0.238 C
BRANCH  22  23
HETATM   23  O4  UNL     1     130.630   5.040  71.246  1.00  0.00    -0.395 OA
ATOM     24  H4  UNL     1     130.595   4.707  72.135  1.00  0.00     0.209 HD
ENDBRANCH  22  23
ENDBRANCH   8  22
BRANCH   1  25
HETATM   25  C1  UNL     1     128.306   6.339  76.244  1.00  0.00     0.362 C
BRANCH  25  26
HETATM   26  N2  UNL     1     126.880   6.404  76.263  1.00  0.00    -0.093 NA
BRANCH  26  27
HETATM   27  N1  UNL     1     126.263   5.270  75.742  1.00  0.00    -0.344 N
ATOM     28  H12 UNL     1     125.478   4.814  76.207  1.00  0.00     0.172 HD
ATOM     29  H11 UNL     1     126.671   4.950  74.863  1.00  0.00     0.172 HD
ENDBRANCH  26  27
ENDBRANCH  25  26
BRANCH  25  30
HETATM   30  O1  UNL     1     128.657   4.976  76.374  1.00  0.00    -0.360 OA
ATOM     31  H1  UNL     1     129.351   4.930  77.020  1.00  0.00     0.213 HD
ENDBRANCH  25  30
ENDBRANCH   1  25
TORSDOF 11
ENDMDL