MODEL 2
REMARK VINA RESULT: -8.836990220      3.568      6.039
REMARK  7 active torsions:
REMARK  status: ('A' for Active; 'I' for Inactive)
REMARK       I    between atoms: N1_2  and  C2_4
REMARK    1  A    between atoms: C2_4  and  C3_6
REMARK    2  A    between atoms: C3_6  and  O2_7
REMARK    3  A    between atoms: C3_6  and  N2_9
REMARK    4  A    between atoms: C7_17  and  N4_18
REMARK    5  A    between atoms: N6_24  and  C9_25
REMARK    6  A    between atoms: C10_29  and  C11_30
REMARK    7  A    between atoms: C11_30  and  O5_31
ROOT
HETATM    1  N2  UNL     1     134.578   7.402  74.262  1.00  0.00    -0.210 N
HETATM    2  C4  UNL     1     134.148   6.146  74.165  1.00  0.00     0.284 A
HETATM    3  O3  UNL     1     134.574   5.179  74.884  1.00  0.00    -0.265 OA
HETATM    4  C5  UNL     1     133.192   6.088  73.179  1.00  0.00     0.148 A
HETATM    5  C6  UNL     1     132.433   5.062  72.672  1.00  0.00     0.279 A
HETATM    6  O4  UNL     1     132.548   3.886  73.124  1.00  0.00    -0.266 OA
HETATM    7  N3  UNL     1     131.574   5.364  71.685  1.00  0.00    -0.155 N
ATOM      8  H3  UNL     1     131.000   4.617  71.294  1.00  0.00     0.187 HD
HETATM    9  C7  UNL     1     131.434   6.602  71.189  1.00  0.00     0.680 A
HETATM   10  N5  UNL     1     132.183   7.588  71.698  1.00  0.00    -0.174 N
ATOM     11  H5  UNL     1     132.077   8.531  71.322  1.00  0.00     0.186 HD
HETATM   12  C8  UNL     1     133.069   7.383  72.686  1.00  0.00     0.163 A
HETATM   13  N6  UNL     1     133.942   8.158  73.383  1.00  0.00    -0.212 N
ENDROOT
BRANCH  13  14
HETATM   14  C9  UNL     1     134.094   9.557  73.151  1.00  0.00     0.457 C
HETATM   15  N7  UNL     1     135.005   9.953  72.090  1.00  0.00    -0.000 N
HETATM   16  C10 UNL     1     134.104  11.090  72.017  1.00  0.00     0.353 C
ATOM     17  H72 UNL     1     136.014  10.038  72.215  1.00  0.00     0.285 HD
ATOM     18  H71 UNL     1     135.233   9.361  71.291  1.00  0.00     0.285 HD
HETATM   19  O6  UNL     1     133.097  10.191  72.407  1.00  0.00    -0.307 OA
BRANCH  16  20
HETATM   20  C11 UNL     1     133.903  11.653  70.635  1.00  0.00     0.225 C
BRANCH  20  21
HETATM   21  O5  UNL     1     133.525  10.594  69.809  1.00  0.00    -0.397 OA
ATOM     22  H5  UNL     1     133.277  10.966  68.972  1.00  0.00     0.209 HD
ENDBRANCH  20  21
ENDBRANCH  16  20
ENDBRANCH  13  14
BRANCH   1  23
HETATM   23  C3  UNL     1     135.575   7.901  75.162  1.00  0.00     0.338 C
BRANCH  23  24
HETATM   24  C2  UNL     1     136.964   7.647  74.737  1.00  0.00     0.268 C
HETATM   25  N1  UNL     1     137.599   8.347  73.675  1.00  0.00    -0.362 N
HETATM   26  C1  UNL     1     138.947   8.112  73.249  1.00  0.00     0.149 C
ATOM     27  H1  UNL     1     137.060   9.062  73.186  1.00  0.00     0.162 HD
HETATM   28  O1  UNL     1     137.670   6.774  75.308  1.00  0.00    -0.269 OA
ENDBRANCH  23  24
BRANCH  23  29
HETATM   29  O2  UNL     1     135.440   7.322  76.446  1.00  0.00    -0.367 OA
ATOM     30  H2  UNL     1     135.590   8.022  77.071  1.00  0.00     0.212 HD
ENDBRANCH  23  29
ENDBRANCH   1  23
BRANCH   9  31
HETATM   31  N4  UNL     1     130.574   6.828  70.224  1.00  0.00    -0.234 N
ATOM     32  H42 UNL     1     130.878   6.922  69.254  1.00  0.00     0.174 HD
ATOM     33  H41 UNL     1     129.580   6.912  70.436  1.00  0.00     0.174 HD
ENDBRANCH   9  31
TORSDOF 7
ENDMDL