MODEL 3
REMARK VINA RESULT: -8.947211518      1.314      2.094
REMARK  8 active torsions:
REMARK  status: ('A' for Active; 'I' for Inactive)
REMARK    1  A    between atoms: O1_2  and  C2_3
REMARK    2  A    between atoms: C7_14  and  C8_15
REMARK    3  A    between atoms: C7_14  and  N6_28
REMARK    4  A    between atoms: C8_15  and  O3_16
REMARK    5  A    between atoms: O3_16  and  C9_17
REMARK    6  A    between atoms: C11_22  and  O4_23
REMARK    7  A    between atoms: C12_25  and  O5_26
REMARK    8  A    between atoms: N6_28  and  N7_30
ROOT
HETATM    1  C2  UNL     1     131.910   7.132  73.698  1.00  0.00     0.235 A
HETATM    2  C3  UNL     1     131.829   7.490  72.324  1.00  0.00     0.089 A
HETATM    3  N1  UNL     1     132.796   8.266  71.538  1.00  0.00    -0.102 NA
HETATM    4  C4  UNL     1     130.738   7.028  71.740  1.00  0.00     0.102 A
HETATM    5  C5  UNL     1     129.993   6.266  72.723  1.00  0.00     0.254 A
HETATM    6  O2  UNL     1     128.859   5.677  72.545  1.00  0.00    -0.268 OA
HETATM    7  N2  UNL     1     130.696   6.262  73.915  1.00  0.00    -0.245 N
HETATM    8  C6  UNL     1     130.858   5.755  75.253  1.00  0.00     0.198 C
HETATM    9  N3  UNL     1     129.816   5.398  76.115  1.00  0.00    -0.063 NA
HETATM   10  N4  UNL     1     132.138   5.685  75.499  1.00  0.00    -0.330 N
ATOM     11  H4  UNL     1     132.567   5.360  76.366  1.00  0.00     0.165 HD
HETATM   12  C7  UNL     1     132.875   6.175  74.266  1.00  0.00     0.198 C
ENDROOT
BRANCH  12  13
HETATM   13  C8  UNL     1     134.102   6.834  74.804  1.00  0.00     0.231 C
BRANCH  13  14
HETATM   14  O3  UNL     1     134.570   6.169  75.958  1.00  0.00    -0.353 OA
BRANCH  14  15
HETATM   15  C9  UNL     1     135.945   6.360  76.018  1.00  0.00     0.352 C
HETATM   16  N5  UNL     1     136.313   7.747  76.059  1.00  0.00    -0.044 N
HETATM   17  C10 UNL     1     137.745   7.663  76.374  1.00  0.00     0.269 C
ATOM     18  H52 UNL     1     136.083   8.283  75.222  1.00  0.00     0.280 HD
ATOM     19  H51 UNL     1     135.762   8.325  76.693  1.00  0.00     0.280 HD
HETATM   20  C11 UNL     1     137.741   6.659  77.509  1.00  0.00     0.176 C
HETATM   21  C12 UNL     1     136.483   5.861  77.366  1.00  0.00     0.205 C
BRANCH  20  22
HETATM   22  O4  UNL     1     137.754   7.350  78.719  1.00  0.00    -0.391 OA
ATOM     23  H4  UNL     1     138.246   8.155  78.605  1.00  0.00     0.210 HD
ENDBRANCH  20  22
BRANCH  21  24
HETATM   24  O5  UNL     1     135.523   6.141  78.308  1.00  0.00    -0.389 OA
ATOM     25  H5  UNL     1     135.739   6.988  78.680  1.00  0.00     0.210 HD
ENDBRANCH  21  24
ENDBRANCH  14  15
ENDBRANCH  13  14
ENDBRANCH  12  13
BRANCH  12  26
HETATM   26  N6  UNL     1     133.099   4.999  73.497  1.00  0.00    -0.307 N
ATOM     27  H6  UNL     1     132.979   4.998  72.485  1.00  0.00     0.182 HD
BRANCH  26  28
HETATM   28  N7  UNL     1     133.483   3.871  74.166  1.00  0.00    -0.347 N
ATOM     29  H72 UNL     1     134.435   3.781  74.521  1.00  0.00     0.176 HD
ATOM     30  H71 UNL     1     132.786   3.136  74.290  1.00  0.00     0.176 HD
ENDBRANCH  26  28
ENDBRANCH  12  26
BRANCH   1  31
HETATM   31  O1  UNL     1     131.603   8.212  74.562  1.00  0.00    -0.356 OA
HETATM   32  C1  UNL     1     131.607   9.447  74.024  1.00  0.00     0.205 C
ENDBRANCH   1  31
TORSDOF 8
ENDMDL