MODEL 1
REMARK VINA RESULT: -8.410252600      0.000      0.000
REMARK  10 active torsions:
REMARK  status: ('A' for Active; 'I' for Inactive)
REMARK    1  A    between atoms: C2_2  and  O1_3
REMARK    2  A    between atoms: C2_2  and  O2_5
REMARK    3  A    between atoms: C2_2  and  C3_7
REMARK       I    between atoms: C3_7  and  N1_9
REMARK    4  A    between atoms: N1_9  and  S1_11
REMARK    5  A    between atoms: S1_11  and  O6_14
REMARK    6  A    between atoms: O6_14  and  C4_15
REMARK    7  A    between atoms: C5_16  and  C6_17
REMARK    8  A    between atoms: C6_17  and  N2_18
REMARK    9  A    between atoms: C6_17  and  O7_22
REMARK   10  A    between atoms: C7_26  and  N4_27
ROOT
HETATM    1  C4  UNL     1     129.605   6.113  73.230  1.00  0.00     0.186 A
HETATM    2  C5  UNL     1     130.871   5.704  72.863  1.00  0.00     0.122 A
HETATM    3  N3  UNL     1     131.353   6.100  71.648  1.00  0.00    -0.188 N
ATOM      4  H3  UNL     1     132.289   5.802  71.369  1.00  0.00     0.184 HD
HETATM    5  C7  UNL     1     130.637   6.869  70.804  1.00  0.00     0.679 A
HETATM    6  N5  UNL     1     129.396   7.286  71.138  1.00  0.00    -0.154 N
ATOM      7  H5  UNL     1     128.848   7.870  70.507  1.00  0.00     0.187 HD
HETATM    8  C8  UNL     1     128.907   6.904  72.331  1.00  0.00     0.296 A
HETATM    9  O8  UNL     1     127.753   7.277  72.667  1.00  0.00    -0.264 OA
ENDROOT
BRANCH   1  10
HETATM   10  O6  UNL     1     129.066   5.726  74.473  1.00  0.00    -0.208 OA
BRANCH  10  11
HETATM   11  S1  UNL     1     128.960   6.802  75.766  1.00  0.00     0.369 S
HETATM   12  O4  UNL     1     127.654   6.626  76.503  1.00  0.00    -0.175 OA
HETATM   13  O5  UNL     1     130.046   6.559  76.801  1.00  0.00    -0.175 OA
BRANCH  11  14
HETATM   14  N1  UNL     1     129.128   8.432  75.247  1.00  0.00    -0.226 N
HETATM   15  C3  UNL     1     130.416   9.061  75.162  1.00  0.00     0.294 C
HETATM   16  O3  UNL     1     131.425   8.392  75.462  1.00  0.00    -0.266 OA
ATOM     17  H1  UNL     1     128.295   8.964  74.995  1.00  0.00     0.184 HD
BRANCH  15  18
HETATM   18  C2  UNL     1     130.578  10.462  74.735  1.00  0.00     0.240 C
HETATM   19  C1  UNL     1     131.540  10.532  73.580  1.00  0.00     0.090 C
BRANCH  18  20
HETATM   20  O1  UNL     1     131.063  11.269  75.762  1.00  0.00    -0.358 OA
ATOM     21  H1  UNL     1     130.596  12.096  75.741  1.00  0.00     0.213 HD
ENDBRANCH  18  20
BRANCH  18  22
HETATM   22  O2  UNL     1     129.337  11.012  74.360  1.00  0.00    -0.358 OA
ATOM     23  H2  UNL     1     128.632  10.439  74.635  1.00  0.00     0.213 HD
ENDBRANCH  18  22
ENDBRANCH  15  18
ENDBRANCH  11  14
ENDBRANCH  10  11
ENDBRANCH   1  10
BRANCH   2  24
HETATM   24  C6  UNL     1     131.719   4.869  73.731  1.00  0.00     0.371 C
BRANCH  24  25
HETATM   25  N2  UNL     1     132.283   5.682  74.814  1.00  0.00    -0.047 N
ATOM     26  H23 UNL     1     132.942   6.379  74.466  1.00  0.00     0.277 HD
ATOM     27  H22 UNL     1     131.592   6.317  75.214  1.00  0.00     0.277 HD
ATOM     28  H21 UNL     1     132.703   5.079  75.521  1.00  0.00     0.277 HD
ENDBRANCH  24  25
BRANCH  24  29
HETATM   29  O7  UNL     1     132.789   4.416  72.967  1.00  0.00    -0.365 OA
ATOM     30  H7  UNL     1     133.580   4.811  73.315  1.00  0.00     0.212 HD
ENDBRANCH  24  29
ENDBRANCH   2  24
BRANCH   5  31
HETATM   31  N4  UNL     1     131.113   7.224  69.661  1.00  0.00    -0.234 N
ATOM     32  H42 UNL     1     131.009   8.197  69.375  1.00  0.00     0.174 HD
ATOM     33  H41 UNL     1     131.580   6.551  69.054  1.00  0.00     0.174 HD
ENDBRANCH   5  31
TORSDOF 10
ENDMDL