MODEL 3
REMARK VINA RESULT: -8.164025907      3.421      5.720
REMARK  11 active torsions:
REMARK  status: ('A' for Active; 'I' for Inactive)
REMARK    1  A    between atoms: N1_1  and  N2_4
REMARK       I    between atoms: N2_4  and  C1_5
REMARK    2  A    between atoms: C1_5  and  C2_7
REMARK    3  A    between atoms: C2_7  and  O2_8
REMARK    4  A    between atoms: C2_7  and  C3_10
REMARK    5  A    between atoms: C6_15  and  N4_16
REMARK    6  A    between atoms: C7_20  and  O4_21
REMARK    7  A    between atoms: O4_21  and  C8_22
REMARK    8  A    between atoms: C9_23  and  N5_24
REMARK    9  A    between atoms: C11_32  and  C12_33
REMARK   10  A    between atoms: C12_33  and  O5_34
REMARK   11  A    between atoms: C12_33  and  O6_36
ROOT
HETATM    1  C3  UNL     1     132.283  12.145  71.624  1.00  0.00     0.061 C
HETATM    2  C4  UNL     1     133.204  12.726  72.340  1.00  0.00     0.164 C
HETATM    3  N3  UNL     1     134.038  13.806  71.998  1.00  0.00    -0.074 NA
HETATM    4  O3  UNL     1     133.448  12.245  73.673  1.00  0.00    -0.335 OA
HETATM    5  C5  UNL     1     132.296  11.974  74.425  1.00  0.00     0.212 C
HETATM    6  C6  UNL     1     131.461  10.996  73.668  1.00  0.00     0.241 C
HETATM    7  C7  UNL     1     131.577  10.911  72.210  1.00  0.00     0.194 C
ENDROOT
BRANCH   7   8
HETATM    8  O4  UNL     1     132.306   9.765  71.869  1.00  0.00    -0.369 OA
BRANCH   8   9
HETATM    9  C8  UNL     1     131.929   8.619  72.515  1.00  0.00     0.190 C
HETATM   10  C9  UNL     1     133.049   7.591  72.605  1.00  0.00     0.240 C
HETATM   11  C10 UNL     1     132.416   6.254  72.281  1.00  0.00     0.268 C
HETATM   12  N6  UNL     1     130.992   6.501  72.172  1.00  0.00    -0.062 N
HETATM   13  C11 UNL     1     130.928   7.867  71.671  1.00  0.00     0.271 C
ATOM     14  H62 UNL     1     130.485   5.819  71.609  1.00  0.00     0.277 HD
ATOM     15  H61 UNL     1     130.467   6.339  73.031  1.00  0.00     0.277 HD
BRANCH  10  16
HETATM   16  N5  UNL     1     133.610   7.512  73.933  1.00  0.00    -0.071 N
ATOM     17  H53 UNL     1     134.628   7.577  73.910  1.00  0.00     0.274 HD
ATOM     18  H52 UNL     1     133.407   8.355  74.470  1.00  0.00     0.274 HD
ATOM     19  H51 UNL     1     133.305   6.675  74.430  1.00  0.00     0.274 HD
ENDBRANCH  10  16
BRANCH  13  20
HETATM   20  C12 UNL     1     131.309   7.854  70.231  1.00  0.00     0.287 C
BRANCH  20  21
HETATM   21  O5  UNL     1     130.888   8.985  69.546  1.00  0.00    -0.369 OA
ATOM     22  H5  UNL     1     131.487   9.248  68.857  1.00  0.00     0.212 HD
ENDBRANCH  20  21
BRANCH  20  23
HETATM   23  O6  UNL     1     130.664   6.747  69.620  1.00  0.00    -0.369 OA
ATOM     24  H6  UNL     1     129.732   6.933  69.589  1.00  0.00     0.212 HD
ENDBRANCH  20  23
ENDBRANCH  13  20
ENDBRANCH   8   9
ENDBRANCH   7   8
BRANCH   1  25
HETATM   25  C2  UNL     1     131.923  12.519  70.285  1.00  0.00     0.163 C
BRANCH  25  26
HETATM   26  C1  UNL     1     131.539  13.715  69.593  1.00  0.00     0.368 C
HETATM   27  N2  UNL     1     131.634  14.978  70.312  1.00  0.00    -0.286 NA
HETATM   28  O1  UNL     1     131.134  13.726  68.433  1.00  0.00    -0.247 OA
BRANCH  27  29
HETATM   29  N1  UNL     1     131.713  16.061  70.920  1.00  0.00    -0.276 N
ATOM     30  H12 UNL     1     131.390  15.143  70.613  1.00  0.00     0.191 HD
ATOM     31  H11 UNL     1     131.783  16.950  71.415  1.00  0.00     0.191 HD
ENDBRANCH  27  29
ENDBRANCH  25  26
BRANCH  25  32
HETATM   32  O2  UNL     1     131.938  11.505  69.409  1.00  0.00    -0.354 OA
ATOM     33  H2  UNL     1     131.828  10.691  69.887  1.00  0.00     0.218 HD
ENDBRANCH  25  32
ENDBRANCH   1  25
BRANCH   6  34
HETATM   34  N4  UNL     1     130.067  11.100  74.130  1.00  0.00    -0.070 N
ATOM     35  H43 UNL     1     129.994  11.522  75.055  1.00  0.00     0.274 HD
ATOM     36  H42 UNL     1     129.537  11.800  73.612  1.00  0.00     0.274 HD
ATOM     37  H41 UNL     1     129.636  10.177  74.089  1.00  0.00     0.274 HD
ENDBRANCH   6  34
TORSDOF 11
ENDMDL