MODEL 4
REMARK VINA RESULT: -7.588837956      2.469      4.560
REMARK  11 active torsions:
REMARK  status: ('A' for Active; 'I' for Inactive)
REMARK    1  A    between atoms: O1_2  and  C2_3
REMARK    2  A    between atoms: C2_3  and  C3_5
REMARK    3  A    between atoms: C4_9  and  O3_10
REMARK    4  A    between atoms: C4_9  and  C5_12
REMARK    5  A    between atoms: C5_12  and  O4_13
REMARK    6  A    between atoms: C8_17  and  O5_18
REMARK    7  A    between atoms: C8_17  and  C9_20
REMARK    8  A    between atoms: C9_20  and  O6_21
REMARK    9  A    between atoms: C10_23  and  O7_24
REMARK   10  A    between atoms: C10_23  and  C11_26
REMARK   11  A    between atoms: C11_26  and  O8_27
ROOT
HETATM    1  C3  UNL     1     129.486   7.744  73.144  1.00  0.00     0.201 C
HETATM    2  N1  UNL     1     128.761   7.868  71.979  1.00  0.00    -0.309 N
ATOM      3  H1  UNL     1     128.012   8.534  71.794  1.00  0.00     0.177 HD
HETATM    4  N2  UNL     1     129.255   6.901  71.101  1.00  0.00    -0.102 NA
HETATM    5  C4  UNL     1     130.656   6.815  71.369  1.00  0.00     0.175 C
HETATM    6  C6  UNL     1     130.911   7.589  72.636  1.00  0.00     0.091 C
HETATM    7  C7  UNL     1     131.603   8.881  72.376  1.00  0.00     0.056 C
HETATM    8  C8  UNL     1     131.266  10.112  73.117  1.00  0.00     0.119 C
HETATM    9  C10 UNL     1     130.366   9.952  74.275  1.00  0.00     0.175 C
HETATM   10  C12 UNL     1     129.463   8.795  74.192  1.00  0.00     0.205 C
HETATM   11  O9  UNL     1     128.620   8.721  75.102  1.00  0.00    -0.291 OA
ENDROOT
BRANCH   5  12
HETATM   12  O3  UNL     1     131.244   7.526  70.263  1.00  0.00    -0.370 OA
ATOM     13  H3  UNL     1     132.137   7.672  70.550  1.00  0.00     0.212 HD
ENDBRANCH   5  12
BRANCH   5  14
HETATM   14  C5  UNL     1     131.193   5.460  71.228  1.00  0.00     0.222 C
BRANCH  14  15
HETATM   15  O4  UNL     1     130.406   4.399  71.583  1.00  0.00    -0.396 OA
ATOM     16  H4  UNL     1     130.399   3.627  71.027  1.00  0.00     0.209 HD
ENDBRANCH  14  15
ENDBRANCH   5  14
BRANCH   1  17
HETATM   17  C2  UNL     1     129.104   6.420  73.826  1.00  0.00     0.296 C
HETATM   18  O2  UNL     1     129.918   5.702  74.440  1.00  0.00    -0.262 OA
BRANCH  17  19
HETATM   19  O1  UNL     1     127.795   6.006  73.744  1.00  0.00    -0.324 OA
HETATM   20  C1  UNL     1     126.968   5.569  74.781  1.00  0.00     0.213 C
ENDBRANCH  17  19
ENDBRANCH   1  17
BRANCH   8  21
HETATM   21  O5  UNL     1     132.522  10.549  73.614  1.00  0.00    -0.384 OA
ATOM     22  H5  UNL     1     132.467  10.365  74.544  1.00  0.00     0.210 HD
ENDBRANCH   8  21
BRANCH   8  23
HETATM   23  C9  UNL     1     130.876  11.269  72.220  1.00  0.00     0.205 C
BRANCH  23  24
HETATM   24  O6  UNL     1     129.795  11.139  71.437  1.00  0.00    -0.398 OA
ATOM     25  H6  UNL     1     129.553  11.862  70.870  1.00  0.00     0.209 HD
ENDBRANCH  23  24
ENDBRANCH   8  23
BRANCH   9  26
HETATM   26  O7  UNL     1     129.495  11.058  74.493  1.00  0.00    -0.377 OA
ATOM     27  H7  UNL     1     128.576  10.862  74.356  1.00  0.00     0.211 HD
ENDBRANCH   9  26
BRANCH   9  28
HETATM   28  C11 UNL     1     131.164   9.920  75.582  1.00  0.00     0.213 C
BRANCH  28  29
HETATM   29  O8  UNL     1     130.545  10.547  76.637  1.00  0.00    -0.397 OA
ATOM     30  H8  UNL     1     130.183  11.400  76.428  1.00  0.00     0.209 HD
ENDBRANCH  28  29
ENDBRANCH   9  28
TORSDOF 11
ENDMDL