MODEL 1
REMARK VINA RESULT: -8.957020177      0.000      0.000
REMARK  9 active torsions:
REMARK  status: ('A' for Active; 'I' for Inactive)
REMARK    1  A    between atoms: N1_1  and  C1_5
REMARK    2  A    between atoms: C1_5  and  O1_6
REMARK    3  A    between atoms: C1_5  and  C2_8
REMARK       I    between atoms: C2_8  and  N2_10
REMARK    4  A    between atoms: N2_10  and  C3_12
REMARK    5  A    between atoms: C3_12  and  N3_13
REMARK    6  A    between atoms: C3_12  and  C4_17
REMARK    7  A    between atoms: C4_17  and  O3_18
REMARK    8  A    between atoms: C4_17  and  N4_20
REMARK    9  A    between atoms: N7_30  and  O5_32
ROOT
HETATM    1  N4  UNL     1     131.319  10.401  73.019  1.00  0.00    -0.305 N
HETATM    2  C5  UNL     1     131.993  10.546  74.206  1.00  0.00     0.186 A
HETATM    3  N5  UNL     1     132.789  11.626  74.179  1.00  0.00    -0.346 N
ATOM      4  H5  UNL     1     133.388  11.943  74.941  1.00  0.00     0.167 HD
HETATM    5  C6  UNL     1     132.667  12.213  73.000  1.00  0.00     0.135 A
HETATM    6  C7  UNL     1     133.322  13.365  72.567  1.00  0.00     0.289 C
HETATM    7  O4  UNL     1     134.331  13.691  73.238  1.00  0.00    -0.265 OA
HETATM    8  N6  UNL     1     132.984  14.151  71.514  1.00  0.00    -0.152 N
ATOM      9  H6  UNL     1     133.585  14.956  71.339  1.00  0.00     0.187 HD
HETATM   10  C8  UNL     1     131.939  13.986  70.670  1.00  0.00     0.707 C
HETATM   11  N7  UNL     1     131.559  15.053  70.063  1.00  0.00    -0.098 N
ATOM     12  H7  UNL     1     130.777  15.021  69.410  1.00  0.00     0.213 HD
HETATM   13  N8  UNL     1     131.244  12.874  70.379  1.00  0.00    -0.152 N
ATOM     14  H8  UNL     1     130.604  12.938  69.587  1.00  0.00     0.187 HD
HETATM   15  C9  UNL     1     131.291  11.682  71.009  1.00  0.00     0.289 C
HETATM   16  O6  UNL     1     130.887  10.670  70.419  1.00  0.00    -0.265 OA
HETATM   17  C10 UNL     1     131.755  11.451  72.283  1.00  0.00     0.139 A
ENDROOT
BRANCH   1  18
HETATM   18  C4  UNL     1     130.395   9.353  72.748  1.00  0.00     0.276 C
BRANCH  18  19
HETATM   19  C3  UNL     1     130.252   8.291  73.805  1.00  0.00     0.333 C
BRANCH  19  20
HETATM   20  N2  UNL     1     130.742   6.993  73.428  1.00  0.00    -0.326 N
HETATM   21  C2  UNL     1     129.983   6.156  72.584  1.00  0.00     0.275 C
HETATM   22  O2  UNL     1     128.874   6.566  72.167  1.00  0.00    -0.269 OA
ATOM     23  H2  UNL     1     131.646   6.674  73.775  1.00  0.00     0.164 HD
BRANCH  21  24
HETATM   24  C1  UNL     1     130.444   4.809  72.169  1.00  0.00     0.409 C
BRANCH  24  25
HETATM   25  N1  UNL     1     131.275   4.909  70.975  1.00  0.00    -0.044 N
ATOM     26  H13 UNL     1     132.201   4.499  71.094  1.00  0.00     0.278 HD
ATOM     27  H12 UNL     1     130.962   4.303  70.216  1.00  0.00     0.278 HD
ATOM     28  H11 UNL     1     131.302   5.895  70.716  1.00  0.00     0.278 HD
ENDBRANCH  24  25
BRANCH  24  29
HETATM   29  O1  UNL     1     129.387   3.970  71.853  1.00  0.00    -0.363 OA
ATOM     30  H1  UNL     1     128.688   4.167  72.465  1.00  0.00     0.212 HD
ENDBRANCH  24  29
ENDBRANCH  21  24
ENDBRANCH  19  20
BRANCH  19  31
HETATM   31  N3  UNL     1     128.946   8.218  74.431  1.00  0.00    -0.054 N
ATOM     32  H33 UNL     1     128.210   8.520  73.791  1.00  0.00     0.277 HD
ATOM     33  H32 UNL     1     128.653   7.250  74.566  1.00  0.00     0.277 HD
ATOM     34  H31 UNL     1     128.912   8.740  75.306  1.00  0.00     0.277 HD
ENDBRANCH  19  31
ENDBRANCH  18  19
BRANCH  18  35
HETATM   35  O3  UNL     1     129.130  10.057  72.843  1.00  0.00    -0.372 OA
ATOM     36  H3  UNL     1     128.560   9.523  72.302  1.00  0.00     0.212 HD
ENDBRANCH  18  35
ENDBRANCH   1  18
BRANCH  11  37
HETATM   37  O5  UNL     1     132.210  16.233  70.300  1.00  0.00    -0.276 OA
ATOM     38  H5  UNL     1     132.355  16.841  69.585  1.00  0.00     0.245 HD
ENDBRANCH  11  37
TORSDOF 9
ENDMDL