MODEL 3
REMARK VINA RESULT: -9.688976456      1.172      1.354
REMARK  8 active torsions:
REMARK  status: ('A' for Active; 'I' for Inactive)
REMARK    1  A    between atoms: N1_1  and  C1_4
REMARK    2  A    between atoms: N3_9  and  O2_10
REMARK    3  A    between atoms: C3_12  and  C4_13
REMARK    4  A    between atoms: C4_13  and  N4_14
REMARK    5  A    between atoms: C4_13  and  C5_18
REMARK       I    between atoms: C5_18  and  N5_20
REMARK    6  A    between atoms: N5_20  and  N6_22
REMARK    7  A    between atoms: N6_22  and  C6_24
REMARK    8  A    between atoms: C9_35  and  O6_36
ROOT
HETATM    1  C4  UNL     1     137.032   6.195  75.256  1.00  0.00     0.331 C
ENDROOT
BRANCH   1   2
HETATM    2  C3  UNL     1     138.087   6.709  76.126  1.00  0.00     0.122 A
HETATM    3  N3  UNL     1     138.059   6.615  77.457  1.00  0.00    -0.171 N
HETATM    4  C2  UNL     1     139.058   7.160  78.203  1.00  0.00     0.352 A
HETATM    5  N2  UNL     1     140.092   7.802  77.651  1.00  0.00    -0.291 N
HETATM    6  O1  UNL     1     139.025   7.066  79.456  1.00  0.00    -0.244 OA
HETATM    7  C1  UNL     1     140.181   7.934  76.319  1.00  0.00     0.139 A
ATOM      8  H2  UNL     1     140.820   8.196  78.247  1.00  0.00     0.172 HD
HETATM    9  C9  UNL     1     139.178   7.386  75.566  1.00  0.00     0.138 A
BRANCH   3  10
HETATM   10  O2  UNL     1     136.999   6.016  78.139  1.00  0.00    -0.279 OA
ATOM     11  H2  UNL     1     136.552   5.296  77.710  1.00  0.00     0.245 HD
ENDBRANCH   3  10
BRANCH   7  12
HETATM   12  N1  UNL     1     141.191   8.563  75.771  1.00  0.00    -0.383 N
ATOM     13  H12 UNL     1     142.122   8.550  76.188  1.00  0.00     0.157 HD
ATOM     14  H11 UNL     1     141.074   9.087  74.904  1.00  0.00     0.157 HD
ENDBRANCH   7  12
BRANCH   9  15
HETATM   15  O6  UNL     1     139.248   7.511  74.189  1.00  0.00    -0.355 OA
ATOM     16  H6  UNL     1     138.497   7.870  73.731  1.00  0.00     0.218 HD
ENDBRANCH   9  15
ENDBRANCH   1   2
BRANCH   1  17
HETATM   17  N4  UNL     1     136.598   4.847  75.637  1.00  0.00    -0.061 N
ATOM     18  H43 UNL     1     135.770   4.565  75.112  1.00  0.00     0.275 HD
ATOM     19  H42 UNL     1     137.253   4.141  75.302  1.00  0.00     0.275 HD
ATOM     20  H41 UNL     1     136.443   4.756  76.642  1.00  0.00     0.275 HD
ENDBRANCH   1  17
BRANCH   1  21
HETATM   21  C5  UNL     1     135.869   7.023  74.964  1.00  0.00     0.273 C
HETATM   22  O3  UNL     1     135.581   8.047  75.598  1.00  0.00    -0.269 OA
HETATM   23  N5  UNL     1     135.013   6.655  73.905  1.00  0.00    -0.254 N
ATOM     24  H5  UNL     1     135.201   5.823  73.346  1.00  0.00     0.190 HD
BRANCH  23  25
HETATM   25  N6  UNL     1     133.911   7.449  73.642  1.00  0.00    -0.129 N
ATOM     26  H6  UNL     1     133.711   8.198  74.305  1.00  0.00     0.205 HD
BRANCH  25  27
HETATM   27  C6  UNL     1     133.127   7.332  72.651  1.00  0.00     0.705 A
HETATM   28  N7  UNL     1     133.565   7.357  71.387  1.00  0.00    -0.139 N
HETATM   29  C7  UNL     1     132.673   7.225  70.402  1.00  0.00     0.342 A
ATOM     30  H7  UNL     1     134.557   7.476  71.181  1.00  0.00     0.189 HD
HETATM   31  O4  UNL     1     133.042   7.244  69.217  1.00  0.00    -0.246 OA
HETATM   32  N8  UNL     1     131.374   7.072  70.682  1.00  0.00    -0.260 N
HETATM   33  C8  UNL     1     130.905   7.043  71.948  1.00  0.00     0.342 A
ATOM     34  H8  UNL     1     130.713   6.974  69.911  1.00  0.00     0.175 HD
HETATM   35  O5  UNL     1     129.682   6.899  72.206  1.00  0.00    -0.246 OA
HETATM   36  N9  UNL     1     131.802   7.175  72.931  1.00  0.00    -0.139 N
ATOM     37  H9  UNL     1     131.492   7.160  73.902  1.00  0.00     0.189 HD
ENDBRANCH  25  27
ENDBRANCH  23  25
ENDBRANCH   1  21
TORSDOF 8
ENDMDL