MODEL 4
REMARK VINA RESULT: -8.760146589      1.308      1.623
REMARK  6 active torsions:
REMARK  status: ('A' for Active; 'I' for Inactive)
REMARK    1  A    between atoms: N1_1  and  N2_4
REMARK    2  A    between atoms: C2_6  and  O1_7
REMARK    3  A    between atoms: C3_9  and  O2_10
REMARK    4  A    between atoms: C4_12  and  C5_13
REMARK    5  A    between atoms: C5_13  and  O3_14
REMARK    6  A    between atoms: O3_14  and  C6_15
ROOT
HETATM    1  C6  UNL     1     135.886   7.960  73.255  1.00  0.00     0.255 C
HETATM    2  C7  UNL     1     134.734   8.291  72.344  1.00  0.00     0.282 C
HETATM    3  N3  UNL     1     134.013   7.165  71.860  1.00  0.00    -0.070 N
ATOM      4  H31 UNL     1     133.403   6.748  72.563  1.00  0.00     0.277 HD
ATOM      5  H32 UNL     1     134.606   6.350  71.700  1.00  0.00     0.277 HD
HETATM    6  C8  UNL     1     133.289   7.598  70.652  1.00  0.00     0.260 C
HETATM    7  C9  UNL     1     132.122   8.470  70.975  1.00  0.00     0.261 C
HETATM    8  N4  UNL     1     132.002   9.608  70.049  1.00  0.00    -0.050 N
ATOM      9  H41 UNL     1     131.036   9.877  69.867  1.00  0.00     0.279 HD
ATOM     10  H42 UNL     1     132.256   9.374  69.090  1.00  0.00     0.279 HD
HETATM   11  C10 UNL     1     132.786  10.666  70.594  1.00  0.00     0.462 C
HETATM   12  N5  UNL     1     132.435  11.982  70.185  1.00  0.00    -0.050 N
ATOM     13  H51 UNL     1     131.621  12.352  70.675  1.00  0.00     0.279 HD
ATOM     14  H52 UNL     1     132.045  12.020  69.243  1.00  0.00     0.279 HD
HETATM   15  C11 UNL     1     133.641  12.811  70.351  1.00  0.00     0.253 C
HETATM   16  C12 UNL     1     134.111  12.822  71.780  1.00  0.00     0.142 C
HETATM   17  N6  UNL     1     135.423  12.283  71.965  1.00  0.00    -0.406 N
ATOM     18  H6  UNL     1     136.206  12.527  71.358  1.00  0.00     0.154 HD
HETATM   19  C13 UNL     1     135.554  11.378  73.062  1.00  0.00     0.246 C
HETATM   20  N7  UNL     1     136.271  10.214  72.638  1.00  0.00    -0.127 NA
HETATM   21  N8  UNL     1     136.466   9.265  73.621  1.00  0.00    -0.113 NA
ENDROOT
BRANCH   1  22
HETATM   22  O3  UNL     1     135.386   7.329  74.377  1.00  0.00    -0.365 OA
BRANCH  22  23
HETATM   23  C5  UNL     1     136.178   7.536  75.491  1.00  0.00     0.194 C
BRANCH  23  24
HETATM   24  C4  UNL     1     137.530   6.872  75.231  1.00  0.00     0.134 C
HETATM   25  N2  UNL     1     138.556   7.662  75.892  1.00  0.00    -0.226 NA
HETATM   26  C1  UNL     1     138.621   7.233  77.255  1.00  0.00     0.148 C
HETATM   27  C2  UNL     1     137.982   5.874  77.322  1.00  0.00     0.163 C
HETATM   28  C3  UNL     1     137.549   5.533  75.920  1.00  0.00     0.169 C
BRANCH  25  29
HETATM   29  N1  UNL     1     139.743   7.467  75.182  1.00  0.00    -0.363 NA
ATOM     30  H12 UNL     1     140.510   7.590  75.844  1.00  0.00     0.171 HD
ATOM     31  H11 UNL     1     139.882   8.132  74.422  1.00  0.00     0.171 HD
ENDBRANCH  25  29
BRANCH  27  32
HETATM   32  O1  UNL     1     136.926   5.850  78.208  1.00  0.00    -0.392 OA
ATOM     33  H1  UNL     1     137.161   5.427  79.025  1.00  0.00     0.210 HD
ENDBRANCH  27  32
BRANCH  28  34
HETATM   34  O2  UNL     1     136.318   4.927  75.872  1.00  0.00    -0.391 OA
ATOM     35  H2  UNL     1     136.211   4.365  75.113  1.00  0.00     0.210 HD
ENDBRANCH  28  34
ENDBRANCH  23  24
ENDBRANCH  22  23
ENDBRANCH   1  22
TORSDOF 6
ENDMDL