MODEL 5
REMARK VINA RESULT: -8.426982746      2.686      6.584
REMARK  7 active torsions:
REMARK  status: ('A' for Active; 'I' for Inactive)
REMARK    1  A    between atoms: N1_1  and  N2_4
REMARK    2  A    between atoms: N2_4  and  C1_6
REMARK       I    between atoms: N4_9  and  C2_10
REMARK       I    between atoms: C2_10  and  N5_12
REMARK    3  A    between atoms: N5_12  and  N6_14
REMARK    4  A    between atoms: N7_19  and  C4_20
REMARK    5  A    between atoms: C6_22  and  C7_23
REMARK    6  A    between atoms: C9_28  and  O4_29
REMARK    7  A    between atoms: C10_31  and  O5_32
ROOT
HETATM    1  C1  UNL     1     132.065  10.030  73.712  1.00  0.00     0.718 A
HETATM    2  N3  UNL     1     132.646  11.157  73.294  1.00  0.00    -0.115 N
ATOM      3  H3  UNL     1     132.519  12.062  73.747  1.00  0.00     0.206 HD
HETATM    4  N4  UNL     1     133.406  10.968  72.226  1.00  0.00    -0.137 N
HETATM    5  C2  UNL     1     134.174  11.922  71.507  1.00  0.00     0.364 C
HETATM    6  O1  UNL     1     134.848  11.584  70.505  1.00  0.00    -0.243 OA
HETATM    7  N5  UNL     1     134.188  13.275  71.914  1.00  0.00    -0.256 N
ATOM      8  H5  UNL     1     133.644  13.563  72.728  1.00  0.00     0.191 HD
HETATM    9  C3  UNL     1     133.286   9.642  71.968  1.00  0.00     0.367 A
HETATM   10  O2  UNL     1     133.904   9.140  70.990  1.00  0.00    -0.244 OA
HETATM   11  N7  UNL     1     132.474   9.045  72.858  1.00  0.00    -0.120 N
ENDROOT
BRANCH  11  12
HETATM   12  C4  UNL     1     132.078   7.692  72.960  1.00  0.00     0.149 C
HETATM   13  C5  UNL     1     133.165   6.720  73.283  1.00  0.00     0.074 C
HETATM   14  C6  UNL     1     132.675   5.310  73.223  1.00  0.00     0.032 C
HETATM   15  C8  UNL     1     131.509   4.937  72.789  1.00  0.00     0.066 C
HETATM   16  N9  UNL     1     131.076   3.572  72.748  1.00  0.00    -0.103 NA
HETATM   17  C9  UNL     1     130.544   5.944  72.306  1.00  0.00     0.196 C
HETATM   18  C10 UNL     1     131.346   7.113  71.778  1.00  0.00     0.176 C
BRANCH  14  19
HETATM   19  C7  UNL     1     133.603   4.289  73.700  1.00  0.00     0.262 C
HETATM   20  N8  UNL     1     133.661   3.868  75.046  1.00  0.00    -0.057 NA
HETATM   21  O3  UNL     1     134.407   3.736  72.894  1.00  0.00    -0.271 OA
ENDBRANCH  14  19
BRANCH  17  22
HETATM   22  O4  UNL     1     129.808   6.356  73.439  1.00  0.00    -0.387 OA
ATOM     23  H4  UNL     1     129.288   7.102  73.159  1.00  0.00     0.210 HD
ENDBRANCH  17  22
BRANCH  18  24
HETATM   24  O5  UNL     1     130.510   7.961  71.123  1.00  0.00    -0.391 OA
ATOM     25  H5  UNL     1     129.915   7.560  70.500  1.00  0.00     0.210 HD
ENDBRANCH  18  24
ENDBRANCH  11  12
BRANCH   1  26
HETATM   26  N2  UNL     1     131.265   9.891  74.734  1.00  0.00    -0.137 N
ATOM     27  H2  UNL     1     130.279   9.699  74.558  1.00  0.00     0.205 HD
BRANCH  26  28
HETATM   28  N1  UNL     1     131.692   9.992  76.039  1.00  0.00    -0.331 N
ATOM     29  H12 UNL     1     131.158   9.490  76.749  1.00  0.00     0.177 HD
ATOM     30  H11 UNL     1     132.508  10.538  76.316  1.00  0.00     0.177 HD
ENDBRANCH  26  28
ENDBRANCH   1  26
BRANCH   7  31
HETATM   31  N6  UNL     1     134.942  14.225  71.213  1.00  0.00    -0.341 N
ATOM     32  H62 UNL     1     134.992  14.157  70.196  1.00  0.00     0.177 HD
ATOM     33  H61 UNL     1     135.431  14.970  71.708  1.00  0.00     0.177 HD
ENDBRANCH   7  31
TORSDOF 7
ENDMDL