MODEL 1
REMARK VINA RESULT: -9.142150384      0.000      0.000
REMARK  5 active torsions:
REMARK  status: ('A' for Active; 'I' for Inactive)
REMARK    1  A    between atoms: N1_1  and  N2_4
REMARK    2  A    between atoms: N2_4  and  C1_6
REMARK    3  A    between atoms: C2_7  and  C3_8
REMARK       I    between atoms: C3_8  and  N3_10
REMARK    4  A    between atoms: N3_10  and  N4_12
REMARK    5  A    between atoms: N4_12  and  C4_14
ROOT
HETATM    1  C1  UNL     1     132.901   7.933  74.774  1.00  0.00     0.115 C
HETATM    2  C2  UNL     1     134.033   7.283  74.596  1.00  0.00     0.127 C
HETATM    3  N8  UNL     1     133.738   5.920  74.229  1.00  0.00    -0.379 N
ATOM      4  H8  UNL     1     134.343   5.107  74.344  1.00  0.00     0.160 HD
HETATM    5  C6  UNL     1     132.408   5.943  73.663  1.00  0.00     0.189 C
HETATM    6  C7  UNL     1     131.767   7.002  74.568  1.00  0.00     0.210 C
HETATM    7  N9  UNL     1     131.403   6.334  75.791  1.00  0.00    -0.321 N
ATOM      8  H9  UNL     1     131.961   6.596  76.604  1.00  0.00     0.166 HD
HETATM    9  C8  UNL     1     130.405   5.381  76.044  1.00  0.00     0.238 C
HETATM   10  O2  UNL     1     130.622   4.523  76.969  1.00  0.00    -0.272 OA
HETATM   11  C9  UNL     1     129.088   5.181  75.407  1.00  0.00     0.227 C
HETATM   12  N10 UNL     1     128.906   5.840  74.158  1.00  0.00    -0.328 N
ATOM     13  H10 UNL     1     128.208   5.391  73.565  1.00  0.00     0.165 HD
HETATM   14  C10 UNL     1     129.490   6.988  73.561  1.00  0.00     0.363 C
HETATM   15  O3  UNL     1     128.882   7.518  72.583  1.00  0.00    -0.238 OA
HETATM   16  O4  UNL     1     130.671   7.599  73.940  1.00  0.00    -0.264 OA
ENDROOT
BRANCH   2  17
HETATM   17  C3  UNL     1     135.401   7.762  74.712  1.00  0.00     0.288 C
HETATM   18  O1  UNL     1     135.694   8.953  74.473  1.00  0.00    -0.264 OA
HETATM   19  N3  UNL     1     136.480   6.902  75.107  1.00  0.00    -0.262 N
ATOM     20  H3  UNL     1     136.290   5.921  75.305  1.00  0.00     0.190 HD
BRANCH  19  21
HETATM   21  N4  UNL     1     137.789   7.385  75.226  1.00  0.00    -0.267 N
ATOM     22  H4  UNL     1     138.297   7.745  74.418  1.00  0.00     0.190 HD
BRANCH  21  23
HETATM   23  C4  UNL     1     138.382   7.356  76.520  1.00  0.00     0.207 C
HETATM   24  N5  UNL     1     137.775   7.104  77.605  1.00  0.00    -0.345 N
HETATM   25  C5  UNL     1     138.679   7.157  78.724  1.00  0.00     0.259 C
ATOM     26  H5  UNL     1     136.780   6.891  77.674  1.00  0.00     0.164 HD
HETATM   27  N6  UNL     1     139.917   7.749  78.204  1.00  0.00    -0.119 NA
HETATM   28  N7  UNL     1     139.768   7.604  76.824  1.00  0.00    -0.273 N
ATOM     29  H7  UNL     1     140.522   7.665  76.140  1.00  0.00     0.185 HD
ENDBRANCH  21  23
ENDBRANCH  19  21
ENDBRANCH   2  17
BRANCH   1  30
HETATM   30  N2  UNL     1     132.761   9.292  75.129  1.00  0.00    -0.304 N
ATOM     31  H2  UNL     1     133.432   9.952  74.736  1.00  0.00     0.186 HD
BRANCH  30  32
HETATM   32  N1  UNL     1     131.773   9.804  75.977  1.00  0.00    -0.345 N
ATOM     33  H12 UNL     1     131.084   9.137  76.325  1.00  0.00     0.176 HD
ATOM     34  H11 UNL     1     131.696  10.779  76.265  1.00  0.00     0.176 HD
ENDBRANCH  30  32
ENDBRANCH   1  30
TORSDOF 5
ENDMDL