MODEL 1
REMARK VINA RESULT: -7.975565802      0.000      0.000
REMARK  9 active torsions:
REMARK  status: ('A' for Active; 'I' for Inactive)
REMARK    1  A    between atoms: N1_1  and  C1_4
REMARK    2  A    between atoms: N4_13  and  C4_14
REMARK    3  A    between atoms: C4_14  and  C5_15
REMARK    4  A    between atoms: C5_15  and  C6_16
REMARK    5  A    between atoms: C6_16  and  O3_17
REMARK    6  A    between atoms: C7_22  and  C8_23
REMARK    7  A    between atoms: C8_23  and  O4_24
REMARK    8  A    between atoms: C9_26  and  O5_27
REMARK    9  A    between atoms: C11_33  and  O6_34
ROOT
HETATM    1  C6  UNL     1     130.827   6.834  72.211  1.00  0.00     0.287 C
HETATM    2  N5  UNL     1     130.523   7.704  71.094  1.00  0.00    -0.019 N
ATOM      3  H51 UNL     1     129.677   8.274  71.105  1.00  0.00     0.282 HD
ATOM      4  H52 UNL     1     130.241   7.306  70.198  1.00  0.00     0.282 HD
HETATM    5  C7  UNL     1     131.818   8.330  71.232  1.00  0.00     0.239 C
HETATM    6  C9  UNL     1     132.951   7.704  70.507  1.00  0.00     0.187 C
HETATM    7  C10 UNL     1     133.761   6.973  71.539  1.00  0.00     0.270 C
HETATM    8  N6  UNL     1     133.188   7.212  72.819  1.00  0.00    -0.033 N
ATOM      9  H61 UNL     1     133.790   7.779  73.417  1.00  0.00     0.281 HD
ATOM     10  H62 UNL     1     133.164   6.374  73.400  1.00  0.00     0.281 HD
HETATM   11  C11 UNL     1     131.883   7.797  72.636  1.00  0.00     0.320 C
ENDROOT
BRANCH   1  12
HETATM   12  C5  UNL     1     129.692   6.623  73.187  1.00  0.00     0.095 C
BRANCH  12  13
HETATM   13  C4  UNL     1     129.826   5.255  73.776  1.00  0.00     0.157 C
BRANCH  13  14
HETATM   14  N4  UNL     1     130.199   5.270  75.171  1.00  0.00    -0.132 N
HETATM   15  C1  UNL     1     129.326   5.404  76.186  1.00  0.00     0.686 A
HETATM   16  N2  UNL     1     129.707   5.413  77.473  1.00  0.00    -0.141 N
HETATM   17  C2  UNL     1     130.998   5.287  77.810  1.00  0.00     0.342 A
ATOM     18  H2  UNL     1     129.004   5.517  78.205  1.00  0.00     0.189 HD
HETATM   19  O1  UNL     1     131.382   5.293  79.011  1.00  0.00    -0.246 OA
HETATM   20  N3  UNL     1     131.891   5.152  76.815  1.00  0.00    -0.259 N
HETATM   21  C3  UNL     1     131.490   5.144  75.521  1.00  0.00     0.344 A
ATOM     22  H3  UNL     1     132.882   5.055  77.037  1.00  0.00     0.175 HD
HETATM   23  O2  UNL     1     132.396   5.013  74.655  1.00  0.00    -0.246 OA
BRANCH  15  24
HETATM   24  N1  UNL     1     128.079   5.525  75.851  1.00  0.00    -0.234 N
ATOM     25  H12 UNL     1     127.826   6.389  75.373  1.00  0.00     0.174 HD
ATOM     26  H11 UNL     1     127.402   4.791  76.059  1.00  0.00     0.174 HD
ENDBRANCH  15  24
ENDBRANCH  13  14
ENDBRANCH  12  13
ENDBRANCH   1  12
BRANCH   1  27
HETATM   27  O3  UNL     1     131.385   5.619  71.823  1.00  0.00    -0.361 OA
ATOM     28  H3  UNL     1     131.780   5.686  70.962  1.00  0.00     0.212 HD
ENDBRANCH   1  27
BRANCH  11  29
HETATM   29  O6  UNL     1     131.524   8.761  73.552  1.00  0.00    -0.359 OA
ATOM     30  H6  UNL     1     131.423   8.484  74.456  1.00  0.00     0.212 HD
ENDBRANCH  11  29
BRANCH   5  31
HETATM   31  C8  UNL     1     131.831   9.824  71.131  1.00  0.00     0.211 C
BRANCH  31  32
HETATM   32  O4  UNL     1     131.480  10.168  69.811  1.00  0.00    -0.398 OA
ATOM     33  H4  UNL     1     130.995  10.984  69.844  1.00  0.00     0.209 HD
ENDBRANCH  31  32
ENDBRANCH   5  31
BRANCH   6  34
HETATM   34  O5  UNL     1     132.554   6.868  69.458  1.00  0.00    -0.391 OA
ATOM     35  H5  UNL     1     132.976   7.067  68.631  1.00  0.00     0.210 HD
ENDBRANCH   6  34
TORSDOF 9
ENDMDL