MODEL 3
REMARK VINA RESULT: -8.795265050      2.370      3.023
REMARK  8 active torsions:
REMARK  status: ('A' for Active; 'I' for Inactive)
REMARK    1  A    between atoms: N1_1  and  N2_4
REMARK       I    between atoms: N2_4  and  C1_6
REMARK    2  A    between atoms: C1_6  and  C2_8
REMARK    3  A    between atoms: C5_14  and  C6_15
REMARK    4  A    between atoms: C7_17  and  C8_18
REMARK    5  A    between atoms: C8_18  and  N8_26
REMARK    6  A    between atoms: N4_19  and  N5_21
REMARK    7  A    between atoms: N8_26  and  N9_28
REMARK    8  A    between atoms: N11_34  and  N12_35
ROOT
HETATM    1  C2  UNL     1     137.422   7.319  74.568  1.00  0.00     0.199 A
HETATM    2  N3  UNL     1     136.941   8.164  73.640  1.00  0.00    -0.330 N
ATOM      3  H3  UNL     1     137.457   8.948  73.243  1.00  0.00     0.168 HD
HETATM    4  C3  UNL     1     135.668   7.825  73.308  1.00  0.00     0.132 A
HETATM    5  C4  UNL     1     134.750   8.359  72.427  1.00  0.00     0.218 A
HETATM    6  O2  UNL     1     135.029   9.373  71.727  1.00  0.00    -0.285 OA
HETATM    7  C5  UNL     1     133.517   7.735  72.350  1.00  0.00     0.085 A
HETATM    8  C7  UNL     1     133.238   6.629  73.126  1.00  0.00     0.098 A
HETATM    9  N10 UNL     1     134.172   6.147  73.971  1.00  0.00    -0.335 N
ATOM     10  H10 UNL     1     133.954   5.329  74.540  1.00  0.00     0.168 HD
HETATM   11  C10 UNL     1     135.386   6.718  74.084  1.00  0.00     0.160 A
HETATM   12  N11 UNL     1     136.466   6.416  74.852  1.00  0.00    -0.222 N
ENDROOT
BRANCH   8  13
HETATM   13  C8  UNL     1     131.931   6.015  73.003  1.00  0.00     0.162 C
HETATM   14  N4  UNL     1     131.001   6.174  73.895  1.00  0.00    -0.281 N
ATOM     15  H4  UNL     1     131.205   6.753  74.710  1.00  0.00     0.188 HD
BRANCH  14  16
HETATM   16  N5  UNL     1     129.755   5.601  73.796  1.00  0.00    -0.274 N
HETATM   17  C9  UNL     1     128.808   5.812  74.676  1.00  0.00     0.215 C
HETATM   18  N6  UNL     1     127.537   5.205  74.541  1.00  0.00    -0.065 NA
HETATM   19  N7  UNL     1     129.114   6.666  75.756  1.00  0.00    -0.065 NA
ATOM     20  H5  UNL     1     129.560   4.987  73.005  1.00  0.00     0.189 HD
ENDBRANCH  14  16
BRANCH  13  21
HETATM   21  N8  UNL     1     131.615   5.203  71.881  1.00  0.00    -0.289 N
ATOM     22  H8  UNL     1     130.652   5.021  71.600  1.00  0.00     0.188 HD
BRANCH  21  23
HETATM   23  N9  UNL     1     132.715   4.662  71.178  1.00  0.00    -0.344 N
ATOM     24  H92 UNL     1     133.616   5.140  71.161  1.00  0.00     0.176 HD
ATOM     25  H91 UNL     1     132.548   3.777  70.699  1.00  0.00     0.176 HD
ENDBRANCH  21  23
ENDBRANCH  13  21
ENDBRANCH   8  13
BRANCH   7  26
HETATM   26  C6  UNL     1     132.526   8.262  71.439  1.00  0.00     0.276 C
HETATM   27  O3  UNL     1     132.426   7.747  70.298  1.00  0.00    -0.301 OA
ENDBRANCH   7  26
BRANCH  12  28
HETATM   28  N12 UNL     1     136.547   5.366  75.755  1.00  0.00    -0.335 N
ATOM     29 2H12 UNL     1     137.047   5.384  76.644  1.00  0.00     0.177 HD
ATOM     30 1H12 UNL     1     136.125   4.441  75.664  1.00  0.00     0.177 HD
ENDBRANCH  12  28
BRANCH   1  31
HETATM   31  C1  UNL     1     138.775   7.398  75.152  1.00  0.00     0.305 C
HETATM   32  N2  UNL     1     138.950   7.679  76.520  1.00  0.00    -0.270 N
ATOM     33  H2  UNL     1     138.137   7.830  77.118  1.00  0.00     0.189 HD
HETATM   34  O1  UNL     1     139.751   7.211  74.402  1.00  0.00    -0.263 OA
BRANCH  32  35
HETATM   35  N1  UNL     1     140.226   7.749  77.053  1.00  0.00    -0.342 N
ATOM     36  H12 UNL     1     140.669   6.896  77.393  1.00  0.00     0.176 HD
ATOM     37  H11 UNL     1     140.709   8.646  77.100  1.00  0.00     0.176 HD
ENDBRANCH  32  35
ENDBRANCH   1  31
TORSDOF 8
ENDMDL