MODEL 4
REMARK VINA RESULT: -7.868622705      2.836      5.089
REMARK  11 active torsions:
REMARK  status: ('A' for Active; 'I' for Inactive)
REMARK    1  A    between atoms: C5_6  and  C6_7
REMARK    2  A    between atoms: C6_7  and  O2_8
REMARK    3  A    between atoms: C6_7  and  O3_10
REMARK    4  A    between atoms: C8_14  and  N1_15
REMARK    5  A    between atoms: C8_14  and  C9_19
REMARK    6  A    between atoms: C9_19  and  N3_23
REMARK    7  A    between atoms: N3_23  and  N4_25
REMARK    8  A    between atoms: C11_30  and  O6_31
REMARK    9  A    between atoms: C11_30  and  C12_33
REMARK   10  A    between atoms: C12_33  and  O7_34
REMARK   11  A    between atoms: C12_33  and  O8_36
ROOT
HETATM    1  C1  UNL     1     133.750   9.141  72.554  1.00  0.00     0.048 C
HETATM    2  C2  UNL     1     133.373   7.699  72.622  1.00  0.00     0.084 C
HETATM    3  C3  UNL     1     134.741   6.967  72.636  1.00  0.00     0.048 C
HETATM    4  O1  UNL     1     132.744   7.327  71.464  1.00  0.00    -0.366 OA
HETATM    5  C4  UNL     1     131.581   6.592  71.608  1.00  0.00     0.206 C
HETATM    6  C5  UNL     1     130.363   7.470  71.896  1.00  0.00     0.148 C
HETATM    7  C7  UNL     1     130.421   8.039  73.245  1.00  0.00     0.184 C
HETATM    8  O4  UNL     1     129.431   8.675  73.547  1.00  0.00    -0.294 OA
HETATM    9  C8  UNL     1     131.454   7.968  74.275  1.00  0.00     0.270 C
HETATM   10  C10 UNL     1     132.694   7.235  73.865  1.00  0.00     0.210 C
HETATM   11  O5  UNL     1     132.483   5.866  73.710  1.00  0.00    -0.337 OA
HETATM   12  C11 UNL     1     131.669   5.513  72.669  1.00  0.00     0.241 C
ENDROOT
BRANCH   9  13
HETATM   13  N1  UNL     1     130.886   7.192  75.399  1.00  0.00    -0.053 N
ATOM     14  H13 UNL     1     130.814   7.729  76.262  1.00  0.00     0.276 HD
ATOM     15  H12 UNL     1     129.891   6.994  75.288  1.00  0.00     0.276 HD
ATOM     16  H11 UNL     1     131.456   6.351  75.494  1.00  0.00     0.276 HD
ENDBRANCH   9  13
BRANCH   9  17
HETATM   17  C9  UNL     1     131.737   9.282  74.885  1.00  0.00     0.136 C
HETATM   18  N2  UNL     1     131.297  10.413  74.538  1.00  0.00    -0.385 N
ATOM     19  H22 UNL     1     130.667  10.391  73.736  1.00  0.00     0.157 HD
ATOM     20  H21 UNL     1     131.493  11.321  74.960  1.00  0.00     0.157 HD
BRANCH  17  21
HETATM   21  N3  UNL     1     132.633   9.314  76.025  1.00  0.00    -0.293 N
ATOM     22  H3  UNL     1     133.226   8.516  76.251  1.00  0.00     0.187 HD
BRANCH  21  23
HETATM   23  N4  UNL     1     132.656  10.475  76.806  1.00  0.00    -0.344 N
ATOM     24  H42 UNL     1     133.045  11.338  76.427  1.00  0.00     0.176 HD
ATOM     25  H41 UNL     1     132.276  10.421  77.751  1.00  0.00     0.176 HD
ENDBRANCH  21  23
ENDBRANCH  17  21
ENDBRANCH   9  17
BRANCH   6  26
HETATM   26  C6  UNL     1     129.990   8.364  70.788  1.00  0.00     0.267 C
BRANCH  26  27
HETATM   27  O2  UNL     1     128.688   8.695  70.611  1.00  0.00    -0.371 OA
ATOM     28  H2  UNL     1     128.141   8.152  70.055  1.00  0.00     0.212 HD
ENDBRANCH  26  27
BRANCH  26  29
HETATM   29  O3  UNL     1     130.704   9.584  70.930  1.00  0.00    -0.371 OA
ATOM     30  H3  UNL     1     131.000   9.661  71.829  1.00  0.00     0.212 HD
ENDBRANCH  26  29
ENDBRANCH   6  26
BRANCH  12  31
HETATM   31  O6  UNL     1     130.333   5.365  73.151  1.00  0.00    -0.360 OA
ATOM     32  H6  UNL     1     129.945   4.700  72.593  1.00  0.00     0.213 HD
ENDBRANCH  12  31
BRANCH  12  33
HETATM   33  C12 UNL     1     131.985   4.185  72.030  1.00  0.00     0.320 C
BRANCH  33  34
HETATM   34  O7  UNL     1     132.887   4.372  70.952  1.00  0.00    -0.366 OA
ATOM     35  H7  UNL     1     133.518   3.662  70.932  1.00  0.00     0.212 HD
ENDBRANCH  33  34
BRANCH  33  36
HETATM   36  O8  UNL     1     130.899   3.414  71.677  1.00  0.00    -0.366 OA
ATOM     37  H8  UNL     1     130.123   3.523  72.214  1.00  0.00     0.212 HD
ENDBRANCH  33  36
ENDBRANCH  12  33
TORSDOF 11
ENDMDL