MODEL 4
REMARK VINA RESULT: -8.362451596      4.849      7.162
REMARK  9 active torsions:
REMARK  status: ('A' for Active; 'I' for Inactive)
REMARK    1  A    between atoms: C3_3  and  N1_4
REMARK    2  A    between atoms: N1_4  and  C4_6
REMARK    3  A    between atoms: N3_9  and  O1_10
REMARK    4  A    between atoms: C5_12  and  N4_13
REMARK       I    between atoms: N4_13  and  C6_15
REMARK       I    between atoms: C6_15  and  N5_17
REMARK    5  A    between atoms: N5_17  and  N6_19
REMARK    6  A    between atoms: N6_19  and  N7_20
REMARK    7  A    between atoms: N7_20  and  N8_21
REMARK    8  A    between atoms: C8_30  and  O4_31
REMARK    9  A    between atoms: C9_33  and  O5_34
ROOT
HETATM    1  C4  UNL     1     132.809  10.231  70.754  1.00  0.00     0.712 A
HETATM    2  N2  UNL     1     132.773   9.239  69.875  1.00  0.00    -0.089 N
ATOM      3  H2  UNL     1     132.840   9.446  68.878  1.00  0.00     0.209 HD
HETATM    4  N3  UNL     1     132.651   7.994  70.273  1.00  0.00     0.032 N
HETATM    5  C5  UNL     1     132.556   7.642  71.590  1.00  0.00     0.743 A
HETATM    6  N9  UNL     1     132.593   8.656  72.450  1.00  0.00    -0.114 N
ATOM      7  H9  UNL     1     132.522   8.449  73.446  1.00  0.00     0.206 HD
HETATM    8  N10 UNL     1     132.714   9.908  72.079  1.00  0.00    -0.116 N
ATOM      9  H10 UNL     1     132.738  10.646  72.783  1.00  0.00     0.206 HD
ENDROOT
BRANCH   1  10
HETATM   10  N1  UNL     1     132.940  11.444  70.392  1.00  0.00    -0.197 N
ATOM     11  H1  UNL     1     132.100  12.017  70.310  1.00  0.00     0.180 HD
BRANCH  10  12
HETATM   12  C3  UNL     1     134.199  12.046  70.094  1.00  0.00     0.244 C
HETATM   13  C2  UNL     1     135.135  12.059  71.245  1.00  0.00     0.062 C
HETATM   14  C1  UNL     1     136.276  11.084  71.029  1.00  0.00     0.017 C
HETATM   15  C9  UNL     1     135.724  13.483  71.357  1.00  0.00     0.156 C
HETATM   16  C8  UNL     1     134.590  14.378  71.793  1.00  0.00     0.171 C
HETATM   17  C7  UNL     1     133.396  13.975  70.934  1.00  0.00     0.204 C
HETATM   18  O3  UNL     1     133.904  13.401  69.748  1.00  0.00    -0.363 OA
BRANCH  15  19
HETATM   19  O5  UNL     1     136.738  13.511  72.323  1.00  0.00    -0.392 OA
ATOM     20  H5  UNL     1     136.571  14.202  72.953  1.00  0.00     0.210 HD
ENDBRANCH  15  19
BRANCH  16  21
HETATM   21  O4  UNL     1     134.312  14.080  73.113  1.00  0.00    -0.391 OA
ATOM     22  H4  UNL     1     133.797  14.785  73.486  1.00  0.00     0.210 HD
ENDBRANCH  16  21
ENDBRANCH  10  12
ENDBRANCH   1  10
BRANCH   4  23
HETATM   23  O1  UNL     1     132.624   6.990  69.322  1.00  0.00    -0.254 OA
ATOM     24  H1  UNL     1     131.968   7.028  68.636  1.00  0.00     0.247 HD
ENDBRANCH   4  23
BRANCH   5  25
HETATM   25  N4  UNL     1     132.451   6.278  71.952  1.00  0.00    -0.135 N
HETATM   26  C6  UNL     1     133.572   5.584  72.467  1.00  0.00     0.351 C
HETATM   27  O2  UNL     1     134.670   6.190  72.622  1.00  0.00    -0.245 OA
HETATM   28  N5  UNL     1     133.480   4.213  72.812  1.00  0.00    -0.237 N
ATOM     29  H5  UNL     1     132.595   3.720  72.687  1.00  0.00     0.188 HD
ATOM     30  H4  UNL     1     131.561   5.792  71.841  1.00  0.00     0.189 HD
BRANCH  28  31
HETATM   31  N6  UNL     1     134.574   3.538  73.318  1.00  0.00    -0.005 NA
BRANCH  31  32
HETATM   32  N7  UNL     1     134.642   3.642  74.719  1.00  0.00    -0.016 NA
BRANCH  32  33
HETATM   33  N8  UNL     1     135.785   4.380  75.051  1.00  0.00    -0.330 N
ATOM     34  H82 UNL     1     135.850   5.042  75.824  1.00  0.00     0.173 HD
ATOM     35  H81 UNL     1     136.525   4.137  74.393  1.00  0.00     0.173 HD
ENDBRANCH  32  33
ENDBRANCH  31  32
ENDBRANCH  28  31
ENDBRANCH   5  25
TORSDOF 9
ENDMDL