MODEL 2
REMARK VINA RESULT: -8.120988665      1.408      1.497
REMARK  10 active torsions:
REMARK  status: ('A' for Active; 'I' for Inactive)
REMARK    1  A    between atoms: C2_2  and  N1_3
REMARK    2  A    between atoms: C2_2  and  C3_7
REMARK    3  A    between atoms: C3_7  and  C4_9
REMARK    4  A    between atoms: C4_9  and  O2_10
REMARK    5  A    between atoms: C4_9  and  C5_12
REMARK    6  A    between atoms: C6_14  and  O4_15
REMARK    7  A    between atoms: C6_14  and  C7_17
REMARK    8  A    between atoms: C7_17  and  O5_18
REMARK    9  A    between atoms: C9_23  and  N4_24
REMARK   10  A    between atoms: C11_32  and  O7_33
ROOT
HETATM    1  C5  UNL     1     132.051   7.581  72.696  1.00  0.00     0.193 C
HETATM    2  O3  UNL     1     132.664   6.327  72.767  1.00  0.00    -0.340 OA
HETATM    3  C6  UNL     1     132.488   5.907  74.097  1.00  0.00     0.220 C
HETATM    4  C8  UNL     1     131.075   6.272  74.372  1.00  0.00     0.213 C
HETATM    5  N2  UNL     1     130.149   5.290  73.839  1.00  0.00    -0.116 NA
HETATM    6  N3  UNL     1     128.820   5.773  73.915  1.00  0.00    -0.093 NA
HETATM    7  C9  UNL     1     128.352   5.837  75.282  1.00  0.00     0.395 C
HETATM    8  N5  UNL     1     129.409   6.192  76.207  1.00  0.00    -0.318 N
ATOM      9  H5  UNL     1     129.183   6.277  77.198  1.00  0.00     0.165 HD
HETATM   10  C10 UNL     1     130.747   6.427  75.792  1.00  0.00     0.254 C
HETATM   11  O6  UNL     1     131.594   6.754  76.643  1.00  0.00    -0.271 OA
HETATM   12  C11 UNL     1     130.971   7.626  73.713  1.00  0.00     0.191 C
ENDROOT
BRANCH   1  13
HETATM   13  C4  UNL     1     131.621   7.805  71.277  1.00  0.00     0.221 C
BRANCH  13  14
HETATM   14  C3  UNL     1     131.478   9.249  70.959  1.00  0.00     0.187 C
HETATM   15  O1  UNL     1     130.355   9.641  70.680  1.00  0.00    -0.293 OA
BRANCH  14  16
HETATM   16  C2  UNL     1     132.564  10.236  70.952  1.00  0.00     0.251 C
HETATM   17  C1  UNL     1     133.822   9.683  70.267  1.00  0.00     0.048 C
BRANCH  16  18
HETATM   18  N1  UNL     1     132.265  11.480  70.317  1.00  0.00    -0.069 N
ATOM     19  H13 UNL     1     132.051  12.227  70.977  1.00  0.00     0.275 HD
ATOM     20  H12 UNL     1     133.080  11.919  69.887  1.00  0.00     0.275 HD
ATOM     21  H11 UNL     1     131.510  11.298  69.656  1.00  0.00     0.275 HD
ENDBRANCH  16  18
ENDBRANCH  14  16
ENDBRANCH  13  14
BRANCH  13  22
HETATM   22  O2  UNL     1     130.552   7.035  70.903  1.00  0.00    -0.385 OA
ATOM     23  H2  UNL     1     130.528   6.175  71.306  1.00  0.00     0.210 HD
ENDBRANCH  13  22
ENDBRANCH   1  13
BRANCH  12  24
HETATM   24  O7  UNL     1     129.732   7.983  73.287  1.00  0.00    -0.390 OA
ATOM     25  H7  UNL     1     129.173   7.293  72.950  1.00  0.00     0.210 HD
ENDBRANCH  12  24
BRANCH   3  26
HETATM   26  O4  UNL     1     133.361   6.688  74.859  1.00  0.00    -0.361 OA
ATOM     27  H4  UNL     1     132.862   7.453  75.117  1.00  0.00     0.213 HD
ENDBRANCH   3  26
BRANCH   3  28
HETATM   28  C7  UNL     1     132.858   4.484  74.269  1.00  0.00     0.235 C
BRANCH  28  29
HETATM   29  O5  UNL     1     132.514   3.635  73.250  1.00  0.00    -0.395 OA
ATOM     30  H5  UNL     1     131.832   3.001  73.438  1.00  0.00     0.209 HD
ENDBRANCH  28  29
ENDBRANCH   3  28
BRANCH   7  31
HETATM   31  N4  UNL     1     127.843   4.533  75.648  1.00  0.00    -0.043 N
ATOM     32  H43 UNL     1     126.881   4.568  75.986  1.00  0.00     0.278 HD
ATOM     33  H42 UNL     1     127.684   3.933  74.840  1.00  0.00     0.278 HD
ATOM     34  H41 UNL     1     128.483   4.119  76.326  1.00  0.00     0.278 HD
ENDBRANCH   7  31
TORSDOF 10
ENDMDL