MODEL 5
REMARK VINA RESULT: -8.539615656      4.312      6.613
REMARK  10 active torsions:
REMARK  status: ('A' for Active; 'I' for Inactive)
REMARK    1  A    between atoms: C2_5  and  N3_6
REMARK    2  A    between atoms: N3_6  and  C3_8
REMARK    3  A    between atoms: C4_10  and  O2_11
REMARK    4  A    between atoms: C4_10  and  C5_13
REMARK    5  A    between atoms: C5_13  and  O3_14
REMARK    6  A    between atoms: C6_16  and  O4_17
REMARK    7  A    between atoms: C6_16  and  C7_19
REMARK    8  A    between atoms: C7_19  and  O5_20
REMARK    9  A    between atoms: C8_22  and  O6_23
REMARK   10  A    between atoms: C11_30  and  N5_31
ROOT
HETATM    1  N3  UNL     1     132.988   5.933  72.820  1.00  0.00    -0.346 N
ATOM      2  H3  UNL     1     132.608   5.263  72.152  1.00  0.00     0.163 HD
ENDROOT
BRANCH   1   3
HETATM    3  C2  UNL     1     133.793   5.249  73.421  1.00  0.00     0.138 A
HETATM    4  N2  UNL     1     133.748   3.865  73.467  1.00  0.00    -0.281 N
HETATM    5  N1  UNL     1     134.760   3.496  74.196  1.00  0.00    -0.278 N
ATOM      6  H2  UNL     1     133.061   3.257  73.020  1.00  0.00     0.189 HD
HETATM    7  C1  UNL     1     135.077   2.093  74.497  1.00  0.00     0.179 C
HETATM    8  C12 UNL     1     135.496   4.500  74.653  1.00  0.00     0.157 A
HETATM    9  C9  UNL     1     134.899   5.645  74.171  1.00  0.00     0.123 A
HETATM   10  N6  UNL     1     136.609   4.600  75.426  1.00  0.00    -0.174 N
HETATM   11  C10 UNL     1     135.490   6.836  74.518  1.00  0.00     0.277 A
HETATM   12  O7  UNL     1     134.985   7.896  74.104  1.00  0.00    -0.266 OA
HETATM   13  N4  UNL     1     136.609   6.900  75.296  1.00  0.00    -0.155 N
HETATM   14  C11 UNL     1     137.170   5.770  75.751  1.00  0.00     0.680 A
ATOM     15  H4  UNL     1     137.018   7.805  75.530  1.00  0.00     0.187 HD
ATOM     16  H6  UNL     1     137.038   3.743  75.774  1.00  0.00     0.186 HD
BRANCH  14  17
HETATM   17  N5  UNL     1     138.235   5.843  76.492  1.00  0.00    -0.234 N
ATOM     18  H52 UNL     1     139.155   6.043  76.100  1.00  0.00     0.174 HD
ATOM     19  H51 UNL     1     138.155   5.695  77.497  1.00  0.00     0.174 HD
ENDBRANCH  14  17
ENDBRANCH   1   3
BRANCH   1  20
HETATM   20  C3  UNL     1     132.298   7.050  72.510  1.00  0.00     0.258 C
HETATM   21  O1  UNL     1     131.732   7.655  73.642  1.00  0.00    -0.323 OA
HETATM   22  C4  UNL     1     130.806   8.574  73.152  1.00  0.00     0.222 C
HETATM   23  C6  UNL     1     130.118   7.944  72.000  1.00  0.00     0.167 C
HETATM   24  C8  UNL     1     131.062   6.818  71.618  1.00  0.00     0.209 C
BRANCH  22  25
HETATM   25  O2  UNL     1     129.890   8.822  74.173  1.00  0.00    -0.361 OA
ATOM     26  H2  UNL     1     130.323   9.376  74.811  1.00  0.00     0.213 HD
ENDBRANCH  22  25
BRANCH  22  27
HETATM   27  C5  UNL     1     131.514   9.869  72.846  1.00  0.00     0.236 C
BRANCH  27  28
HETATM   28  O3  UNL     1     131.304  10.708  73.965  1.00  0.00    -0.395 OA
ATOM     29  H3  UNL     1     131.852  10.363  74.661  1.00  0.00     0.209 HD
ENDBRANCH  27  28
ENDBRANCH  22  27
BRANCH  23  30
HETATM   30  O4  UNL     1     128.870   7.400  72.389  1.00  0.00    -0.379 OA
ATOM     31  H4  UNL     1     128.151   7.940  72.082  1.00  0.00     0.211 HD
ENDBRANCH  23  30
BRANCH  23  32
HETATM   32  C7  UNL     1     129.843   8.831  70.830  1.00  0.00     0.210 C
BRANCH  32  33
HETATM   33  O5  UNL     1     128.521   8.751  70.462  1.00  0.00    -0.398 OA
ATOM     34  H5  UNL     1     128.285   7.854  70.254  1.00  0.00     0.209 HD
ENDBRANCH  32  33
ENDBRANCH  23  32
BRANCH  24  35
HETATM   35  O6  UNL     1     130.476   5.619  71.940  1.00  0.00    -0.388 OA
ATOM     36  H6  UNL     1     129.560   5.756  72.150  1.00  0.00     0.210 HD
ENDBRANCH  24  35
ENDBRANCH   1  20
TORSDOF 10
ENDMDL