MODEL 3
REMARK VINA RESULT: -7.986990101      2.016      3.483
REMARK  6 active torsions:
REMARK  status: ('A' for Active; 'I' for Inactive)
REMARK    1  A    between atoms: C3_3  and  C4_4
REMARK    2  A    between atoms: C6_6  and  N1_7
REMARK    3  A    between atoms: N1_7  and  C7_9
REMARK    4  A    between atoms: C7_9  and  C8_10
REMARK    5  A    between atoms: C8_10  and  C9_11
REMARK       I    between atoms: N2_14  and  C12_15
REMARK    6  A    between atoms: C12_15  and  C13_17
ROOT
HETATM    1  C1  UNL     1      46.022 -17.112  45.353  1.00  0.00     0.112 C
HETATM    2  C2  UNL     1      45.781 -18.047  44.249  1.00  0.00    -0.106 C
HETATM    3  C3  UNL     1      45.566 -18.803  43.333  1.00  0.00    -0.071 C
ENDROOT
BRANCH   3   4
HETATM    4  C4  UNL     1      45.288 -19.712  42.255  1.00  0.00     0.006 C
HETATM    5  C5  UNL     1      45.849 -19.395  40.925  1.00  0.00     0.059 C
HETATM    6  C6  UNL     1      44.553 -20.771  42.514  1.00  0.00     0.098 C
BRANCH   6   7
HETATM    7  N1  UNL     1      44.243 -21.711  41.485  1.00  0.00    -0.398 N
ATOM      8  H1  UNL     1      44.983 -22.231  41.014  1.00  0.00     0.158 HD
BRANCH   7   9
HETATM    9  C7  UNL     1      42.889 -21.904  41.135  1.00  0.00     0.119 C
BRANCH   9  10
HETATM   10  C8  UNL     1      41.814 -21.413  42.020  1.00  0.00     0.024 C
BRANCH  10  11
HETATM   11  C9  UNL     1      40.850 -20.425  41.504  1.00  0.00    -0.010 C
HETATM   12  C10 UNL     1      40.282 -19.592  42.658  1.00  0.00     0.024 C
HETATM   13  C11 UNL     1      41.310 -18.632  43.189  1.00  0.00     0.126 C
HETATM   14  N2  UNL     1      41.706 -17.752  42.099  1.00  0.00    -0.352 N
HETATM   15  C12 UNL     1      41.632 -16.335  42.169  1.00  0.00     0.224 C
HETATM   16  C19 UNL     1      42.196 -18.380  40.911  1.00  0.00     0.126 C
HETATM   17  O1  UNL     1      41.989 -15.678  41.143  1.00  0.00    -0.273 OA
HETATM   18  C20 UNL     1      41.254 -19.482  40.439  1.00  0.00     0.024 C
BRANCH  15  19
HETATM   19  C13 UNL     1      41.173 -15.577  43.345  1.00  0.00     0.078 C
HETATM   20  C14 UNL     1      39.656 -15.494  43.321  1.00  0.00     0.014 C
HETATM   21  C15 UNL     1      39.137 -14.704  44.504  1.00  0.00     0.001 C
HETATM   22  C16 UNL     1      39.757 -13.343  44.570  1.00  0.00     0.000 C
HETATM   23  C17 UNL     1      41.279 -13.501  44.599  1.00  0.00     0.001 C
HETATM   24  C18 UNL     1      41.666 -14.127  43.277  1.00  0.00     0.014 C
ENDBRANCH  15  19
ENDBRANCH  10  11
ENDBRANCH   9  10
ENDBRANCH   7   9
ENDBRANCH   6   7
ENDBRANCH   3   4
TORSDOF 6
ENDMDL