MODEL 4
REMARK VINA RESULT: -7.401726057      1.523      5.031
REMARK  7 active torsions:
REMARK  status: ('A' for Active; 'I' for Inactive)
REMARK    1  A    between atoms: C2_2  and  C4_4
REMARK    2  A    between atoms: C4_4  and  C5_6
REMARK    3  A    between atoms: C5_6  and  N1_7
REMARK    4  A    between atoms: N1_7  and  C6_8
REMARK    5  A    between atoms: N1_7  and  C13_18
REMARK    6  A    between atoms: C6_8  and  N2_10
REMARK    7  A    between atoms: N2_10  and  C7_12
ROOT
HETATM    1  N1  UNL     1      41.184 -16.211  43.220  1.00  0.00    -0.347 N
ENDROOT
BRANCH   1   2
HETATM    2  C5  UNL     1      40.518 -17.413  43.719  1.00  0.00     0.204 C
BRANCH   2   3
HETATM    3  C4  UNL     1      40.027 -18.272  42.640  1.00  0.00     0.148 C
HETATM    4  O1  UNL     1      38.974 -18.032  42.089  1.00  0.00    -0.296 OA
BRANCH   3   5
HETATM    5  C2  UNL     1      40.798 -19.458  42.190  1.00  0.00     0.049 C
HETATM    6  C1  UNL     1      40.661 -19.616  40.700  1.00  0.00     0.017 C
HETATM    7  C3  UNL     1      40.414 -20.692  42.965  1.00  0.00     0.017 C
ENDBRANCH   3   5
ENDBRANCH   2   3
ENDBRANCH   1   2
BRANCH   1   8
HETATM    8  C6  UNL     1      42.496 -16.251  42.697  1.00  0.00     0.170 C
HETATM    9  S1  UNL     1      42.643 -16.113  41.062  1.00  0.00    -0.041 SA
BRANCH   8  10
HETATM   10  N2  UNL     1      43.672 -16.390  43.441  1.00  0.00    -0.362 N
ATOM     11  H2  UNL     1      43.871 -15.673  44.139  1.00  0.00     0.162 HD
BRANCH  10  12
HETATM   12  C7  UNL     1      44.625 -17.459  43.303  1.00  0.00     0.083 C
HETATM   13  C8  UNL     1      44.066 -18.823  43.174  1.00  0.00     0.025 C
HETATM   14  C9  UNL     1      43.787 -19.532  44.459  1.00  0.00     0.002 C
HETATM   15  C10 UNL     1      44.242 -18.944  45.716  1.00  0.00     0.000 C
HETATM   16  C11 UNL     1      45.326 -17.929  45.671  1.00  0.00     0.002 C
HETATM   17  C12 UNL     1      45.711 -17.455  44.320  1.00  0.00     0.025 C
ENDBRANCH  10  12
ENDBRANCH   8  10
ENDBRANCH   1   8
BRANCH   1  18
HETATM   18  C13 UNL     1      40.441 -14.989  43.284  1.00  0.00     0.087 C
HETATM   19  C14 UNL     1      39.337 -15.139  44.313  1.00  0.00     0.025 C
HETATM   20  C15 UNL     1      39.054 -13.692  44.676  1.00  0.00     0.002 C
HETATM   21  C16 UNL     1      40.462 -13.156  44.844  1.00  0.00     0.002 C
HETATM   22  C17 UNL     1      41.278 -13.821  43.759  1.00  0.00     0.025 C
ENDBRANCH   1  18
TORSDOF 7
ENDMDL