MODEL 2
REMARK VINA RESULT: -8.020451124      2.038      3.170
REMARK  7 active torsions:
REMARK  status: ('A' for Active; 'I' for Inactive)
REMARK    1  A    between atoms: N1_2  and  C2_3
REMARK       I    between atoms: N1_2  and  C6_7
REMARK    2  A    between atoms: C2_3  and  C3_4
REMARK    3  A    between atoms: C6_7  and  O2_9
REMARK    4  A    between atoms: O2_9  and  C7_10
REMARK    5  A    between atoms: C7_10  and  C8_11
REMARK    6  A    between atoms: C13_16  and  N2_17
REMARK       I    between atoms: N2_17  and  C14_19
REMARK    7  A    between atoms: C14_19  and  C15_21
ROOT
HETATM    1  C8  UNL     1      41.573 -20.320  40.594  1.00  0.00     0.033 C
HETATM    2  C9  UNL     1      42.278 -20.216  39.238  1.00  0.00     0.009 C
HETATM    3  C10 UNL     1      42.914 -21.534  38.861  1.00  0.00     0.001 C
HETATM    4  C11 UNL     1      43.791 -22.093  39.933  1.00  0.00     0.002 C
HETATM    5  C12 UNL     1      43.006 -22.177  41.229  1.00  0.00     0.026 C
HETATM    6  C13 UNL     1      42.644 -20.728  41.584  1.00  0.00     0.090 C
ENDROOT
BRANCH   1   7
HETATM    7  C7  UNL     1      41.079 -18.954  40.953  1.00  0.00     0.187 C
BRANCH   7   8
HETATM    8  O2  UNL     1      40.134 -18.928  41.979  1.00  0.00    -0.303 OA
BRANCH   8   9
HETATM    9  C6  UNL     1      39.410 -17.817  42.379  1.00  0.00     0.362 C
HETATM   10  N1  UNL     1      40.069 -16.770  43.080  1.00  0.00    -0.332 N
HETATM   11  C1  UNL     1      41.485 -16.839  43.385  1.00  0.00     0.155 C
HETATM   12  O1  UNL     1      38.185 -17.784  42.103  1.00  0.00    -0.238 OA
BRANCH  10  13
HETATM   13  C2  UNL     1      39.328 -15.599  43.507  1.00  0.00     0.132 C
BRANCH  13  14
HETATM   14  C3  UNL     1      40.218 -14.477  43.957  1.00  0.00     0.004 A
HETATM   15  C4  UNL     1      39.702 -13.103  43.618  1.00  0.00     0.007 A
HETATM   16  C5  UNL     1      39.708 -13.547  45.022  1.00  0.00     0.007 A
ENDBRANCH  13  14
ENDBRANCH  10  13
ENDBRANCH   8   9
ENDBRANCH   7   8
ENDBRANCH   1   7
BRANCH   6  17
HETATM   17  N2  UNL     1      42.217 -20.681  42.946  1.00  0.00    -0.355 N
HETATM   18  C14 UNL     1      43.166 -20.378  43.960  1.00  0.00     0.225 C
HETATM   19  O3  UNL     1      44.360 -20.162  43.610  1.00  0.00    -0.273 OA
ATOM     20  H2  UNL     1      41.242 -20.861  43.187  1.00  0.00     0.162 HD
BRANCH  18  21
HETATM   21  C15 UNL     1      42.788 -20.313  45.399  1.00  0.00     0.030 C
HETATM   22  C16 UNL     1      42.934 -21.702  45.976  1.00  0.00     0.024 C
HETATM   23  C17 UNL     1      41.383 -19.814  45.586  1.00  0.00     0.024 C
HETATM   24  C18 UNL     1      43.736 -19.401  46.173  1.00  0.00     0.024 C
ENDBRANCH  18  21
ENDBRANCH   6  17
TORSDOF 7
ENDMDL