MODEL 5
REMARK VINA RESULT: -7.751942691      0.272      1.516
REMARK  5 active torsions:
REMARK  status: ('A' for Active; 'I' for Inactive)
REMARK    1  A    between atoms: N1_6  and  C6_7
REMARK    2  A    between atoms: C6_7  and  C7_8
REMARK    3  A    between atoms: C6_7  and  C10_14
REMARK    4  A    between atoms: C7_8  and  C8_9
REMARK    5  A    between atoms: C8_9  and  N2_10
ROOT
HETATM    1  C1  UNL     1      39.662 -13.583  45.090  1.00  0.00     0.012 C
HETATM    2  C2  UNL     1      39.915 -14.370  44.203  1.00  0.00    -0.112 C
HETATM    3  C3  UNL     1      40.222 -15.311  43.158  1.00  0.00     0.070 C
HETATM    4  C4  UNL     1      39.563 -16.631  43.467  1.00  0.00     0.061 C
HETATM    5  C5  UNL     1      39.880 -17.717  42.477  1.00  0.00     0.065 C
HETATM    6  N1  UNL     1      41.133 -17.714  41.889  1.00  0.00    -0.363 N
HETATM    7  C20 UNL     1      41.774 -16.431  41.738  1.00  0.00     0.129 C
HETATM    8  C21 UNL     1      41.701 -15.604  43.021  1.00  0.00     0.038 C
ENDROOT
BRANCH   6   9
HETATM    9  C6  UNL     1      42.012 -18.811  41.938  1.00  0.00     0.017 C
BRANCH   9  10
HETATM   10  C7  UNL     1      43.294 -18.741  41.229  1.00  0.00     0.026 C
BRANCH  10  11
HETATM   11  C8  UNL     1      43.454 -19.126  39.823  1.00  0.00     0.261 C
BRANCH  11  12
HETATM   12  N2  UNL     1      42.293 -20.016  39.545  1.00  0.00    -0.076 N
HETATM   13  C9  UNL     1      42.793 -21.160  38.810  1.00  0.00     0.267 C
ATOM     14  H22 UNL     1      41.780 -20.277  40.387  1.00  0.00     0.276 HD
ATOM     15  H21 UNL     1      41.530 -19.538  39.067  1.00  0.00     0.276 HD
ENDBRANCH  11  12
ENDBRANCH  10  11
ENDBRANCH   9  10
BRANCH   9  16
HETATM   16  C10 UNL     1      42.026 -19.580  43.261  1.00  0.00     0.003 C
HETATM   17  C11 UNL     1      42.358 -18.725  44.426  1.00  0.00     0.020 C
HETATM   18  C12 UNL     1      42.249 -19.520  45.714  1.00  0.00    -0.013 C
HETATM   19  C13 UNL     1      40.875 -20.064  45.947  1.00  0.00     0.009 C
HETATM   20  C17 UNL     1      43.243 -20.649  45.615  1.00  0.00     0.009 C
HETATM   21  C14 UNL     1      40.512 -20.930  44.750  1.00  0.00    -0.013 C
HETATM   22  C15 UNL     1      41.443 -22.097  44.742  1.00  0.00     0.009 C
HETATM   23  C19 UNL     1      40.578 -20.062  43.539  1.00  0.00     0.020 C
HETATM   24  C16 UNL     1      42.835 -21.567  44.498  1.00  0.00    -0.013 C
HETATM   25  C18 UNL     1      42.785 -20.859  43.162  1.00  0.00     0.020 C
ENDBRANCH   9  16
ENDBRANCH   6   9
TORSDOF 5
ENDMDL