MODEL 4
REMARK VINA RESULT: -8.523723248      2.047      7.302
REMARK  5 active torsions:
REMARK  status: ('A' for Active; 'I' for Inactive)
REMARK    1  A    between atoms: C10_11  and  C11_12
REMARK    2  A    between atoms: C11_12  and  N2_13
REMARK       I    between atoms: N2_13  and  C12_15
REMARK    3  A    between atoms: C12_15  and  C13_17
REMARK    4  A    between atoms: C13_17  and  C14_18
REMARK    5  A    between atoms: C14_18  and  C15_19
ROOT
HETATM    1  C11 UNL     1      41.831 -18.057  41.164  1.00  0.00     0.158 C
ENDROOT
BRANCH   1   2
HETATM    2  C10 UNL     1      41.741 -16.767  41.913  1.00  0.00     0.240 C
HETATM    3  N1  UNL     1      42.603 -16.747  43.075  1.00  0.00     0.090 N
HETATM    4  C1  UNL     1      43.925 -17.253  42.805  1.00  0.00     0.310 C
HETATM    5  C2  UNL     1      42.630 -15.448  43.662  1.00  0.00     0.277 C
HETATM    6  C3  UNL     1      41.510 -14.544  43.173  1.00  0.00     0.018 C
HETATM    7  C4  UNL     1      41.438 -13.405  44.147  1.00  0.00     0.007 C
HETATM    8  C8  UNL     1      40.196 -15.286  43.072  1.00  0.00    -0.007 C
HETATM    9  C5  UNL     1      40.042 -12.912  44.399  1.00  0.00     0.000 C
HETATM   10  C6  UNL     1      39.092 -13.994  44.807  1.00  0.00     0.000 C
HETATM   11  C7  UNL     1      39.634 -15.377  44.486  1.00  0.00     0.005 C
HETATM   12  C9  UNL     1      40.321 -16.625  42.428  1.00  0.00     0.042 C
ENDBRANCH   1   2
BRANCH   1  13
HETATM   13  N2  UNL     1      40.994 -19.087  41.677  1.00  0.00    -0.359 N
HETATM   14  C12 UNL     1      41.267 -20.462  41.300  1.00  0.00     0.217 C
HETATM   15  O1  UNL     1      42.225 -20.704  40.535  1.00  0.00    -0.274 OA
ATOM     16  H2  UNL     1      40.217 -18.863  42.299  1.00  0.00     0.162 HD
BRANCH  14  17
HETATM   17  C13 UNL     1      40.424 -21.536  41.814  1.00  0.00     0.103 C
BRANCH  17  18
HETATM   18  C14 UNL     1      40.186 -21.542  43.259  1.00  0.00     0.014 C
BRANCH  18  19
HETATM   19  C15 UNL     1      41.187 -22.055  44.206  1.00  0.00    -0.014 C
HETATM   20  C16 UNL     1      42.443 -22.669  43.751  1.00  0.00     0.004 C
HETATM   21  C17 UNL     1      43.356 -22.839  44.997  1.00  0.00     0.000 C
HETATM   22  C18 UNL     1      42.615 -23.429  46.152  1.00  0.00     0.000 C
HETATM   23  C19 UNL     1      41.323 -24.078  45.701  1.00  0.00     0.000 C
HETATM   24  C20 UNL     1      40.432 -22.977  45.176  1.00  0.00     0.004 C
ENDBRANCH  18  19
ENDBRANCH  17  18
ENDBRANCH  14  17
ENDBRANCH   1  13
TORSDOF 5
ENDMDL