MODEL 2
REMARK VINA RESULT: -8.748237359      0.494      1.084
REMARK  5 active torsions:
REMARK  status: ('A' for Active; 'I' for Inactive)
REMARK       I    between atoms: C1_2  and  N1_3
REMARK    1  A    between atoms: C1_2  and  C14_18
REMARK    2  A    between atoms: N1_3  and  C2_5
REMARK    3  A    between atoms: C2_5  and  C3_6
REMARK    4  A    between atoms: C3_6  and  C4_7
REMARK    5  A    between atoms: N2_10  and  C7_11
ROOT
HETATM    1  C3  UNL     1      44.882 -17.471  44.500  1.00  0.00     0.026 C
ENDROOT
BRANCH   1   2
HETATM    2  C2  UNL     1      44.601 -16.734  43.233  1.00  0.00     0.123 C
BRANCH   2   3
HETATM    3  N1  UNL     1      43.562 -15.754  43.426  1.00  0.00    -0.357 N
HETATM    4  C1  UNL     1      42.201 -16.021  43.216  1.00  0.00     0.247 C
HETATM    5  O1  UNL     1      41.832 -17.176  42.844  1.00  0.00    -0.268 OA
ATOM      6  H1  UNL     1      43.829 -14.819  43.731  1.00  0.00     0.162 HD
BRANCH   4   7
HETATM    7  C14 UNL     1      41.171 -15.019  43.408  1.00  0.00     0.006 C
HETATM    8  C15 UNL     1      39.884 -15.286  43.443  1.00  0.00    -0.014 C
HETATM    9  C16 UNL     1      38.968 -14.124  43.648  1.00  0.00     0.028 C
HETATM   10  C17 UNL     1      39.388 -13.282  44.820  1.00  0.00     0.004 C
HETATM   11  C18 UNL     1      40.883 -13.034  44.834  1.00  0.00     0.005 C
HETATM   12  C19 UNL     1      41.542 -13.576  43.580  1.00  0.00     0.044 C
ENDBRANCH   4   7
ENDBRANCH   2   3
ENDBRANCH   1   2
BRANCH   1  13
HETATM   13  C4  UNL     1      45.016 -18.967  44.260  1.00  0.00     0.017 C
HETATM   14  C5  UNL     1      44.830 -19.265  42.788  1.00  0.00     0.036 C
HETATM   15  C6  UNL     1      44.246 -20.664  42.812  1.00  0.00     0.273 C
HETATM   16  N2  UNL     1      43.621 -20.850  44.073  1.00  0.00     0.093 N
HETATM   17  C13 UNL     1      43.839 -19.706  44.883  1.00  0.00     0.277 C
BRANCH  16  18
HETATM   18  C7  UNL     1      42.287 -21.345  44.049  1.00  0.00     0.223 C
HETATM   19  C8  UNL     1      41.460 -20.758  42.922  1.00  0.00     0.036 C
HETATM   20  C9  UNL     1      40.315 -21.740  42.690  1.00  0.00     0.002 C
HETATM   21  C10 UNL     1      39.567 -22.004  43.964  1.00  0.00     0.000 C
HETATM   22  C11 UNL     1      40.038 -21.186  45.121  1.00  0.00     0.002 C
HETATM   23  C12 UNL     1      41.518 -21.171  45.317  1.00  0.00     0.036 C
ENDBRANCH  16  18
ENDBRANCH   1  13
TORSDOF 5
ENDMDL