MODEL 4
REMARK VINA RESULT: -8.421271317      0.943      1.906
REMARK  5 active torsions:
REMARK  status: ('A' for Active; 'I' for Inactive)
REMARK    1  A    between atoms: C10_10  and  N1_11
REMARK       I    between atoms: N1_11  and  C11_13
REMARK    2  A    between atoms: C11_13  and  C12_15
REMARK    3  A    between atoms: C12_15  and  C13_16
REMARK    4  A    between atoms: C13_16  and  C14_17
REMARK    5  A    between atoms: C14_17  and  N2_18
ROOT
HETATM    1  N1  UNL     1      42.443 -18.981  42.436  1.00  0.00    -0.351 N
ATOM      2  H1  UNL     1      41.940 -19.012  41.549  1.00  0.00     0.163 HD
HETATM    3  C11 UNL     1      43.230 -17.841  42.665  1.00  0.00     0.218 C
HETATM    4  O1  UNL     1      43.884 -17.707  43.715  1.00  0.00    -0.274 OA
ENDROOT
BRANCH   1   5
HETATM    5  C10 UNL     1      42.266 -20.109  43.308  1.00  0.00     0.037 C
HETATM    6  C2  UNL     1      43.587 -20.853  43.495  1.00  0.00     0.014 C
HETATM    7  C1  UNL     1      44.180 -21.291  42.190  1.00  0.00     0.012 C
HETATM    8  C3  UNL     1      43.373 -22.007  44.416  1.00  0.00    -0.008 C
HETATM    9  C4  UNL     1      42.330 -22.934  43.832  1.00  0.00     0.010 C
HETATM   10  C8  UNL     1      42.925 -21.554  45.769  1.00  0.00     0.010 C
HETATM   11  C5  UNL     1      41.020 -22.224  43.718  1.00  0.00    -0.012 C
HETATM   12  C6  UNL     1      40.553 -21.681  45.049  1.00  0.00     0.009 C
HETATM   13  C20 UNL     1      41.203 -21.038  42.780  1.00  0.00     0.036 C
HETATM   14  C7  UNL     1      41.617 -20.793  45.619  1.00  0.00    -0.012 C
HETATM   15  C9  UNL     1      41.866 -19.628  44.684  1.00  0.00     0.036 C
ENDBRANCH   1   5
BRANCH   3  16
HETATM   16  C12 UNL     1      43.331 -16.725  41.673  1.00  0.00     0.104 C
BRANCH  16  17
HETATM   17  C13 UNL     1      42.702 -15.457  42.200  1.00  0.00     0.039 C
BRANCH  17  18
HETATM   18  C14 UNL     1      41.284 -15.775  42.602  1.00  0.00     0.273 C
BRANCH  18  19
HETATM   19  N2  UNL     1      40.695 -14.795  43.447  1.00  0.00     0.088 N
HETATM   20  C15 UNL     1      41.367 -13.512  43.390  1.00  0.00     0.272 C
HETATM   21  C16 UNL     1      40.802 -12.548  44.412  1.00  0.00     0.030 C
HETATM   22  C17 UNL     1      39.796 -13.226  45.316  1.00  0.00     0.003 C
HETATM   23  C18 UNL     1      38.754 -14.007  44.590  1.00  0.00     0.030 C
HETATM   24  C19 UNL     1      39.286 -14.618  43.313  1.00  0.00     0.272 C
ENDBRANCH  18  19
ENDBRANCH  17  18
ENDBRANCH  16  17
ENDBRANCH   3  16
TORSDOF 5
ENDMDL