MODEL 1
REMARK VINA RESULT: -8.779090340      0.000      0.000
REMARK  4 active torsions:
REMARK  status: ('A' for Active; 'I' for Inactive)
REMARK    1  A    between atoms: C1_2  and  C2_4
REMARK    2  A    between atoms: N1_7  and  C5_8
REMARK    3  A    between atoms: C5_8  and  C6_9
REMARK    4  A    between atoms: C6_9  and  C7_10
ROOT
HETATM    1  C7  UNL     1      42.173 -20.276  44.670  1.00  0.00    -0.038 C
HETATM    2  C8  UNL     1      43.409 -21.007  45.237  1.00  0.00     0.010 C
HETATM    3  C9  UNL     1      43.101 -22.292  45.896  1.00  0.00     0.005 C
HETATM    4  C10 UNL     1      42.010 -23.089  45.214  1.00  0.00    -0.013 C
HETATM    5  C11 UNL     1      40.706 -22.802  45.864  1.00  0.00     0.013 C
HETATM    6  C12 UNL     1      40.074 -21.490  45.485  1.00  0.00     0.009 C
HETATM    7  C13 UNL     1      39.484 -21.722  44.146  1.00  0.00    -0.026 C
HETATM    8  C14 UNL     1      40.119 -21.959  43.023  1.00  0.00    -0.026 C
HETATM    9  C15 UNL     1      41.632 -22.034  42.911  1.00  0.00     0.009 C
HETATM   10  C16 UNL     1      42.121 -23.113  43.767  1.00  0.00     0.013 C
HETATM   11  C17 UNL     1      42.080 -20.652  43.254  1.00  0.00     0.018 C
HETATM   12  C18 UNL     1      41.025 -20.334  45.556  1.00  0.00     0.018 C
ENDROOT
BRANCH   1  13
HETATM   13  C6  UNL     1      42.699 -18.824  44.660  1.00  0.00     0.029 C
BRANCH  13  14
HETATM   14  C5  UNL     1      42.701 -18.147  43.356  1.00  0.00     0.122 C
BRANCH  14  15
HETATM   15  N1  UNL     1      41.800 -17.034  43.406  1.00  0.00    -0.393 N
HETATM   16  C4  UNL     1      40.466 -17.240  43.711  1.00  0.00     0.122 C
HETATM   17  C3  UNL     1      39.626 -16.101  43.114  1.00  0.00     0.035 C
HETATM   18  C2  UNL     1      40.123 -14.850  43.834  1.00  0.00     0.093 C
HETATM   19  C20 UNL     1      41.551 -14.579  43.449  1.00  0.00     0.059 C
HETATM   20  C19 UNL     1      42.406 -15.786  43.377  1.00  0.00     0.059 C
BRANCH  18  21
HETATM   21  C1  UNL     1      39.250 -13.729  43.447  1.00  0.00     0.177 C
HETATM   22  O1  UNL     1      39.710 -12.542  43.456  1.00  0.00    -0.648 OA
HETATM   23  O2  UNL     1      37.931 -13.884  43.065  1.00  0.00    -0.648 OA
ENDBRANCH  18  21
ENDBRANCH  14  15
ENDBRANCH  13  14
ENDBRANCH   1  13
TORSDOF 4
ENDMDL