MODEL 5
REMARK VINA RESULT: -8.534178016      0.616      1.106
REMARK  5 active torsions:
REMARK  status: ('A' for Active; 'I' for Inactive)
REMARK    1  A    between atoms: C2_2  and  C3_3
REMARK    2  A    between atoms: C3_3  and  N1_4
REMARK       I    between atoms: N1_4  and  C4_6
REMARK    3  A    between atoms: C4_6  and  C5_8
REMARK    4  A    between atoms: C13_16  and  C14_17
REMARK    5  A    between atoms: C14_17  and  C15_19
ROOT
HETATM    1  C5  UNL     1      42.109 -18.199  43.333  1.00  0.00     0.114 C
HETATM    2  C6  UNL     1      42.894 -19.472  43.540  1.00  0.00     0.003 C
HETATM    3  C7  UNL     1      43.287 -19.793  44.921  1.00  0.00     0.006 C
HETATM    4  C8  UNL     1      42.332 -19.511  46.015  1.00  0.00     0.001 C
HETATM    5  C9  UNL     1      40.927 -19.957  45.758  1.00  0.00     0.009 C
HETATM    6  C10 UNL     1      40.393 -19.557  44.382  1.00  0.00     0.019 C
HETATM    7  C11 UNL     1      40.745 -20.610  43.356  1.00  0.00     0.009 C
HETATM    8  C12 UNL     1      42.171 -20.667  42.951  1.00  0.00     0.006 C
HETATM    9  C13 UNL     1      40.798 -18.168  44.060  1.00  0.00    -0.016 C
ENDROOT
BRANCH   9  10
HETATM   10  C14 UNL     1      39.830 -17.212  43.582  1.00  0.00     0.157 C
HETATM   11  O2  UNL     1      38.754 -17.675  43.137  1.00  0.00    -0.293 OA
BRANCH  10  12
HETATM   12  C15 UNL     1      39.881 -15.749  43.520  1.00  0.00     0.060 C
HETATM   13  C16 UNL     1      41.232 -15.114  43.481  1.00  0.00     0.012 C
HETATM   14  C17 UNL     1      41.311 -13.914  44.414  1.00  0.00     0.001 C
HETATM   15  C18 UNL     1      40.188 -12.959  44.140  1.00  0.00     0.000 C
HETATM   16  C19 UNL     1      38.864 -13.637  44.324  1.00  0.00     0.001 C
HETATM   17  C20 UNL     1      39.087 -15.091  44.641  1.00  0.00     0.012 C
ENDBRANCH  10  12
ENDBRANCH   9  10
BRANCH   1  18
HETATM   18  C4  UNL     1      42.081 -17.957  41.889  1.00  0.00     0.226 C
HETATM   19  N1  UNL     1      43.240 -17.433  41.264  1.00  0.00    -0.357 N
ATOM     20  H1  UNL     1      44.061 -17.237  41.837  1.00  0.00     0.162 HD
HETATM   21  O1  UNL     1      41.103 -18.180  41.130  1.00  0.00    -0.273 OA
BRANCH  19  22
HETATM   22  C3  UNL     1      43.303 -17.164  39.834  1.00  0.00     0.149 C
BRANCH  22  23
HETATM   23  C2  UNL     1      44.400 -18.006  39.239  1.00  0.00    -0.018 C
HETATM   24  C1  UNL     1      44.240 -19.305  39.243  1.00  0.00     0.008 C
ENDBRANCH  22  23
ENDBRANCH  19  22
ENDBRANCH   1  18
TORSDOF 5
ENDMDL