MODEL 2
REMARK VINA RESULT: -8.496094787      0.204      1.649
REMARK  5 active torsions:
REMARK  status: ('A' for Active; 'I' for Inactive)
REMARK    1  A    between atoms: S1_2  and  N1_4
REMARK    2  A    between atoms: S1_2  and  C13_18
REMARK    3  A    between atoms: N1_4  and  C1_6
REMARK    4  A    between atoms: C1_6  and  C2_7
REMARK    5  A    between atoms: C2_7  and  C3_8
ROOT
HETATM    1  C1  UNL     1      41.070 -17.974  42.905  1.00  0.00     0.132 C
ENDROOT
BRANCH   1   2
HETATM    2  N1  UNL     1      41.110 -16.571  43.124  1.00  0.00    -0.319 N
ATOM      3  H1  UNL     1      41.960 -16.012  43.205  1.00  0.00     0.172 HD
BRANCH   2   4
HETATM    4  S1  UNL     1      39.489 -15.954  43.232  1.00  0.00     0.230 S
HETATM    5  O1  UNL     1      38.679 -16.526  42.102  1.00  0.00    -0.206 OA
HETATM    6  O2  UNL     1      38.978 -16.572  44.562  1.00  0.00    -0.206 OA
BRANCH   4   7
HETATM    7  C13 UNL     1      39.478 -14.236  43.232  1.00  0.00     0.129 C
HETATM    8  C14 UNL     1      40.871 -13.765  43.303  1.00  0.00     0.022 C
HETATM    9  C15 UNL     1      41.103 -13.279  44.701  1.00  0.00     0.001 C
HETATM   10  C16 UNL     1      39.777 -13.220  45.400  1.00  0.00     0.001 C
HETATM   11  C17 UNL     1      38.731 -13.741  44.460  1.00  0.00     0.022 C
ENDBRANCH   4   7
ENDBRANCH   2   4
ENDBRANCH   1   2
BRANCH   1  12
HETATM   12  C2  UNL     1      41.877 -18.544  44.068  1.00  0.00     0.030 C
BRANCH  12  13
HETATM   13  C3  UNL     1      42.023 -19.991  44.092  1.00  0.00    -0.038 C
HETATM   14  C4  UNL     1      43.391 -20.540  44.327  1.00  0.00     0.014 C
HETATM   15  C5  UNL     1      43.356 -22.045  44.454  1.00  0.00    -0.013 C
HETATM   16  C6  UNL     1      42.711 -22.646  43.238  1.00  0.00     0.009 C
HETATM   17  C10 UNL     1      42.557 -22.411  45.672  1.00  0.00     0.009 C
HETATM   18  C7  UNL     1      41.321 -22.113  43.033  1.00  0.00    -0.013 C
HETATM   19  C8  UNL     1      40.496 -22.484  44.235  1.00  0.00     0.009 C
HETATM   20  C12 UNL     1      41.396 -20.626  42.869  1.00  0.00     0.014 C
HETATM   21  C9  UNL     1      41.150 -21.925  45.466  1.00  0.00    -0.013 C
HETATM   22  C11 UNL     1      41.205 -20.420  45.336  1.00  0.00     0.014 C
ENDBRANCH  12  13
ENDBRANCH   1  12
TORSDOF 5
ENDMDL