MODEL 4
REMARK VINA RESULT: -7.830577002      1.291      1.502
REMARK  7 active torsions:
REMARK  status: ('A' for Active; 'I' for Inactive)
REMARK    1  A    between atoms: C2_2  and  C3_3
REMARK       I    between atoms: C3_3  and  N1_5
REMARK    2  A    between atoms: N1_5  and  C4_6
REMARK    3  A    between atoms: N1_5  and  C9_11
REMARK    4  A    between atoms: C12_14  and  C13_15
REMARK    5  A    between atoms: C13_15  and  C14_16
REMARK       I    between atoms: N2_19  and  C17_20
REMARK    6  A    between atoms: C17_20  and  C18_22
REMARK    7  A    between atoms: C24_28  and  C25_29
ROOT
HETATM    1  C14 UNL     1      -1.216   8.821  13.265  1.00  0.00    -0.011 C
HETATM    2  C15 UNL     1      -2.089   8.442  12.064  1.00  0.00     0.024 C
HETATM    3  C16 UNL     1      -1.251   8.601  10.819  1.00  0.00     0.126 C
HETATM    4  N2  UNL     1      -0.233   7.545  10.898  1.00  0.00    -0.352 N
HETATM    5  C17 UNL     1       0.069   6.666   9.855  1.00  0.00     0.225 C
HETATM    6  O2  UNL     1       0.953   5.770  10.040  1.00  0.00    -0.273 OA
HETATM    7  C26 UNL     1       0.526   7.410  12.160  1.00  0.00     0.126 C
HETATM    8  C27 UNL     1       0.235   8.648  12.995  1.00  0.00     0.024 C
ENDROOT
BRANCH   1   9
HETATM    9  C13 UNL     1      -1.634   8.078  14.480  1.00  0.00     0.009 C
BRANCH   9  10
HETATM   10  C12 UNL     1      -2.320   6.787  14.143  1.00  0.00    -0.014 C
HETATM   11  C11 UNL     1      -1.464   5.634  14.558  1.00  0.00     0.007 C
HETATM   12  C10 UNL     1      -2.119   4.292  14.318  1.00  0.00     0.026 C
HETATM   13  C9  UNL     1      -3.625   4.429  14.121  1.00  0.00     0.087 C
HETATM   14  C29 UNL     1      -4.274   5.418  14.976  1.00  0.00     0.026 C
HETATM   15  C28 UNL     1      -3.537   6.735  15.083  1.00  0.00     0.007 C
BRANCH  13  16
HETATM   16  N1  UNL     1      -4.156   3.095  14.052  1.00  0.00    -0.343 N
HETATM   17  C3  UNL     1      -3.980   2.429  12.756  1.00  0.00     0.220 C
HETATM   18  O1  UNL     1      -3.403   3.040  11.831  1.00  0.00    -0.273 OA
BRANCH  17  19
HETATM   19  C2  UNL     1      -4.464   1.063  12.512  1.00  0.00     0.098 C
HETATM   20  C1  UNL     1      -4.932   0.940  11.066  1.00  0.00     0.014 C
ENDBRANCH  17  19
BRANCH  16  21
HETATM   21  C4  UNL     1      -4.820   2.341  15.030  1.00  0.00     0.087 C
HETATM   22  C5  UNL     1      -4.245   2.009  16.331  1.00  0.00     0.025 C
HETATM   23  C6  UNL     1      -5.467   1.605  17.208  1.00  0.00     0.002 C
HETATM   24  C7  UNL     1      -6.547   2.560  16.738  1.00  0.00     0.002 C
HETATM   25  C8  UNL     1      -6.236   2.925  15.329  1.00  0.00     0.025 C
ENDBRANCH  16  21
ENDBRANCH  13  16
ENDBRANCH   9  10
ENDBRANCH   1   9
BRANCH   5  26
HETATM   26  C18 UNL     1      -0.592   6.725   8.529  1.00  0.00     0.096 C
HETATM   27  C19 UNL     1       0.401   7.099   7.487  1.00  0.00    -0.005 C
HETATM   28  C20 UNL     1      -0.229   7.865   6.320  1.00  0.00     0.011 C
HETATM   29  C21 UNL     1       1.196   5.916   6.977  1.00  0.00     0.005 C
HETATM   30  C22 UNL     1       0.352   4.773   6.527  1.00  0.00     0.001 C
HETATM   31  C23 UNL     1      -1.093   4.899   6.890  1.00  0.00     0.016 C
HETATM   32  C24 UNL     1      -1.331   5.461   8.268  1.00  0.00     0.100 C
BRANCH  32  33
HETATM   33  C25 UNL     1      -2.807   5.645   8.413  1.00  0.00     0.177 C
HETATM   34  O3  UNL     1      -3.572   4.654   8.422  1.00  0.00    -0.648 OA
HETATM   35  O4  UNL     1      -3.370   6.906   8.543  1.00  0.00    -0.648 OA
ENDBRANCH  32  33
ENDBRANCH   5  26
TORSDOF 7
ENDMDL