MODEL 3
REMARK VINA RESULT: -8.030098136      5.003      8.576
REMARK  8 active torsions:
REMARK  status: ('A' for Active; 'I' for Inactive)
REMARK    1  A    between atoms: C2_2  and  C3_3
REMARK    2  A    between atoms: C3_3  and  C4_4
REMARK    3  A    between atoms: C4_4  and  C5_5
REMARK    4  A    between atoms: C5_5  and  C6_6
REMARK    5  A    between atoms: C6_6  and  C7_7
REMARK    6  A    between atoms: C7_7  and  N1_8
REMARK       I    between atoms: N1_8  and  C8_10
REMARK    7  A    between atoms: C8_10  and  C9_12
REMARK    8  A    between atoms: C26_31  and  C27_32
ROOT
HETATM    1  C9  UNL     1      -6.165   6.729   9.407  1.00  0.00     0.087 C
HETATM    2  C10 UNL     1      -6.858   7.551  10.504  1.00  0.00     0.015 C
HETATM    3  C11 UNL     1      -6.065   7.182  11.695  1.00  0.00     0.007 C
HETATM    4  C12 UNL     1      -4.670   6.759  11.254  1.00  0.00    -0.000 C
HETATM    5  C13 UNL     1      -4.390   5.447  11.828  1.00  0.00    -0.005 C
HETATM    6  C14 UNL     1      -4.905   5.467  13.278  1.00  0.00     0.007 C
HETATM    7  C15 UNL     1      -3.826   5.126  14.283  1.00  0.00     0.026 C
HETATM    8  C16 UNL     1      -3.213   3.790  14.091  1.00  0.00     0.095 C
HETATM    9  N2  UNL     1      -4.060   2.782  14.666  1.00  0.00    -0.351 N
HETATM   10  C17 UNL     1      -4.733   3.060  15.915  1.00  0.00     0.153 C
HETATM   11  C18 UNL     1      -4.281   1.517  14.082  1.00  0.00     0.219 C
HETATM   12  O2  UNL     1      -4.926   0.634  14.669  1.00  0.00    -0.273 OA
HETATM   13  C19 UNL     1      -3.717   1.271  12.738  1.00  0.00     0.103 C
HETATM   14  C20 UNL     1      -3.866   2.580  11.979  1.00  0.00     0.020 C
HETATM   15  C21 UNL     1      -2.980   3.595  12.615  1.00  0.00    -0.019 C
HETATM   16  C22 UNL     1      -1.545   3.087  12.469  1.00  0.00     0.018 C
HETATM   17  C23 UNL     1      -3.007   4.946  11.904  1.00  0.00     0.000 C
HETATM   18  C24 UNL     1      -2.258   4.763  10.625  1.00  0.00     0.007 C
HETATM   19  C25 UNL     1      -2.446   6.064   9.825  1.00  0.00     0.013 C
HETATM   20  C26 UNL     1      -3.803   5.907   9.134  1.00  0.00     0.064 C
HETATM   21  C29 UNL     1      -4.732   6.912   9.747  1.00  0.00    -0.018 C
HETATM   22  C30 UNL     1      -4.319   8.341   9.497  1.00  0.00     0.017 C
ENDROOT
BRANCH   1  23
HETATM   23  C8  UNL     1      -6.650   7.135   8.096  1.00  0.00     0.222 C
HETATM   24  N1  UNL     1      -6.803   8.474   7.683  1.00  0.00    -0.361 N
ATOM     25  H1  UNL     1      -6.564   9.215   8.342  1.00  0.00     0.162 HD
HETATM   26  O1  UNL     1      -6.962   6.260   7.257  1.00  0.00    -0.273 OA
BRANCH  24  27
HETATM   27  C7  UNL     1      -7.280   8.853   6.366  1.00  0.00     0.122 C
BRANCH  27  28
HETATM   28  C6  UNL     1      -8.424   9.822   6.551  1.00  0.00     0.020 C
BRANCH  28  29
HETATM   29  C5  UNL     1      -9.472   9.297   7.486  1.00  0.00     0.002 C
BRANCH  29  30
HETATM   30  C4  UNL     1     -10.778  10.037   7.353  1.00  0.00     0.000 C
BRANCH  30  31
HETATM   31  C3  UNL     1     -10.694  11.091   6.278  1.00  0.00    -0.000 C
BRANCH  31  32
HETATM   32  C2  UNL     1     -11.577  10.690   5.107  1.00  0.00    -0.005 C
HETATM   33  C1  UNL     1     -10.846  10.754   3.806  1.00  0.00     0.005 C
ENDBRANCH  31  32
ENDBRANCH  30  31
ENDBRANCH  29  30
ENDBRANCH  28  29
ENDBRANCH  27  28
ENDBRANCH  24  27
ENDBRANCH   1  23
BRANCH  20  34
HETATM   34  C27 UNL     1      -3.558   5.954   7.712  1.00  0.00     0.128 C
HETATM   35  C28 UNL     1      -2.956   7.056   6.942  1.00  0.00     0.091 C
HETATM   36  O3  UNL     1      -3.876   4.970   7.021  1.00  0.00    -0.298 OA
ENDBRANCH  20  34
TORSDOF 8
ENDMDL