MODEL 3
REMARK VINA RESULT: -7.625858837      1.362      2.372
REMARK  9 active torsions:
REMARK  status: ('A' for Active; 'I' for Inactive)
REMARK    1  A    between atoms: C4_4  and  C5_5
REMARK    2  A    between atoms: C5_5  and  N1_6
REMARK    3  A    between atoms: N2_9  and  C8_10
REMARK    4  A    between atoms: C8_10  and  C9_11
REMARK    5  A    between atoms: C9_11  and  C10_12
REMARK    6  A    between atoms: C10_12  and  C11_13
REMARK    7  A    between atoms: C11_13  and  N4_23
REMARK    8  A    between atoms: N3_14  and  C12_16
REMARK    9  A    between atoms: N4_23  and  C19_25
ROOT
HETATM    1  C11 UNL     1      -4.155   5.423  12.845  1.00  0.00     0.074 C
HETATM    2  N3  UNL     1      -4.863   4.711  13.619  1.00  0.00    -0.365 N
ATOM      3  H3  UNL     1      -5.667   4.242  13.202  1.00  0.00     0.162 HD
ENDROOT
BRANCH   1   4
HETATM    4  C10 UNL     1      -2.963   6.144  13.351  1.00  0.00     0.077 C
BRANCH   4   5
HETATM    5  C9  UNL     1      -1.753   5.310  13.560  1.00  0.00     0.038 C
BRANCH   5   6
HETATM    6  C8  UNL     1      -1.405   4.314  12.533  1.00  0.00     0.273 C
BRANCH   6   7
HETATM    7  N2  UNL     1      -0.385   4.698  11.586  1.00  0.00     0.091 N
HETATM    8  C7  UNL     1       0.495   5.708  12.059  1.00  0.00     0.302 C
HETATM    9  C6  UNL     1       1.380   6.107  10.896  1.00  0.00     0.303 C
HETATM   10  N1  UNL     1       0.554   6.975  10.081  1.00  0.00     0.095 N
HETATM   11  C32 UNL     1      -0.777   6.488   9.913  1.00  0.00     0.303 C
HETATM   12  C31 UNL     1      -0.993   5.081  10.364  1.00  0.00     0.302 C
BRANCH  10  13
HETATM   13  C5  UNL     1       0.673   8.307  10.567  1.00  0.00     0.300 C
BRANCH  13  14
HETATM   14  C4  UNL     1      -0.578   8.951  10.965  1.00  0.00     0.005 C
HETATM   15  C2  UNL     1      -0.795   9.333  12.201  1.00  0.00    -0.090 C
HETATM   16  C1  UNL     1      -2.082   9.993  12.594  1.00  0.00     0.042 C
HETATM   17  C3  UNL     1       0.268   9.100  13.217  1.00  0.00     0.042 C
ENDBRANCH  13  14
ENDBRANCH  10  13
ENDBRANCH   6   7
ENDBRANCH   5   6
ENDBRANCH   4   5
ENDBRANCH   1   4
BRANCH   1  18
HETATM   18  N4  UNL     1      -4.522   5.531  11.486  1.00  0.00    -0.371 N
ATOM     19  H4  UNL     1      -4.336   4.715  10.902  1.00  0.00     0.161 HD
BRANCH  18  20
HETATM   20  C19 UNL     1      -5.126   6.655  10.831  1.00  0.00     0.033 C
HETATM   21  C20 UNL     1      -6.191   7.261  11.678  1.00  0.00     0.035 C
HETATM   22  C21 UNL     1      -6.977   8.289  10.883  1.00  0.00    -0.011 C
HETATM   23  C22 UNL     1      -7.575   7.707   9.645  1.00  0.00     0.014 C
HETATM   24  C28 UNL     1      -6.027   9.410  10.526  1.00  0.00     0.014 C
HETATM   25  C23 UNL     1      -6.438   7.209   8.780  1.00  0.00    -0.041 C
HETATM   26  C24 UNL     1      -7.066   6.595   7.547  1.00  0.00     0.015 C
HETATM   27  C25 UNL     1      -5.487   8.313   8.436  1.00  0.00     0.018 C
HETATM   28  C30 UNL     1      -5.691   6.142   9.499  1.00  0.00     0.040 C
HETATM   29  C26 UNL     1      -4.897   8.823   9.735  1.00  0.00    -0.041 C
HETATM   30  C27 UNL     1      -3.956   9.965   9.352  1.00  0.00     0.015 C
HETATM   31  C29 UNL     1      -4.136   7.743  10.451  1.00  0.00     0.040 C
ENDBRANCH  18  20
ENDBRANCH   1  18
BRANCH   2  32
HETATM   32  C12 UNL     1      -4.645   4.494  15.041  1.00  0.00     0.153 C
HETATM   33  C13 UNL     1      -6.044   4.732  15.718  1.00  0.00     0.064 C
HETATM   34  C14 UNL     1      -6.641   3.430  16.230  1.00  0.00    -0.028 C
HETATM   35  C15 UNL     1      -5.994   2.593  17.199  1.00  0.00    -0.030 C
HETATM   36  C16 UNL     1      -5.058   1.450  16.808  1.00  0.00     0.038 C
HETATM   37  C17 UNL     1      -3.840   1.964  15.968  1.00  0.00     0.086 C
HETATM   38  C18 UNL     1      -4.202   3.242  15.496  1.00  0.00    -0.158 C
ENDBRANCH   2  32
TORSDOF 9
ENDMDL