MODEL 5
REMARK VINA RESULT: -7.415326288      2.581      7.969
REMARK  8 active torsions:
REMARK  status: ('A' for Active; 'I' for Inactive)
REMARK    1  A    between atoms: C2_2  and  C3_3
REMARK    2  A    between atoms: C3_3  and  C4_4
REMARK    3  A    between atoms: C4_4  and  N1_5
REMARK    4  A    between atoms: N1_5  and  C5_6
REMARK       I    between atoms: N1_5  and  C8_10
REMARK    5  A    between atoms: C5_6  and  C6_7
REMARK    6  A    between atoms: C8_10  and  C9_12
REMARK    7  A    between atoms: C9_12  and  O2_13
REMARK    8  A    between atoms: C20_25  and  C21_26
ROOT
HETATM    1  C6  UNL     1      -5.960   6.887   9.406  1.00  0.00     0.143 C
HETATM    2  C7  UNL     1      -6.806   6.469   8.335  1.00  0.00     0.060 C
HETATM    3  N2  UNL     1      -7.508   6.125   7.492  1.00  0.00    -0.197 NA
ENDROOT
BRANCH   1   4
HETATM    4  C5  UNL     1      -4.820   7.756   9.074  1.00  0.00     0.140 C
BRANCH   4   5
HETATM    5  N1  UNL     1      -3.543   7.187   8.847  1.00  0.00    -0.349 N
HETATM    6  C8  UNL     1      -2.467   6.944   9.706  1.00  0.00     0.255 C
HETATM    7  O1  UNL     1      -1.389   6.549   9.102  1.00  0.00    -0.270 OA
BRANCH   5   8
HETATM    8  C4  UNL     1      -3.291   6.850   7.410  1.00  0.00     0.126 C
BRANCH   8   9
HETATM    9  C3  UNL     1      -3.600   8.036   6.547  1.00  0.00     0.020 C
BRANCH   9  10
HETATM   10  C2  UNL     1      -4.522   7.626   5.439  1.00  0.00    -0.003 C
HETATM   11  C1  UNL     1      -5.631   8.606   5.198  1.00  0.00     0.005 C
ENDBRANCH   9  10
ENDBRANCH   8   9
ENDBRANCH   5   8
BRANCH   6  12
HETATM   12  C9  UNL     1      -2.362   7.055  11.173  1.00  0.00     0.146 C
HETATM   13  C10 UNL     1      -0.838   6.947  11.471  1.00  0.00     0.049 C
HETATM   14  C11 UNL     1      -0.595   7.159  12.933  1.00  0.00     0.004 C
HETATM   15  C12 UNL     1      -1.709   6.633  13.808  1.00  0.00     0.010 C
HETATM   16  C13 UNL     1      -2.343   5.449  13.138  1.00  0.00    -0.029 C
HETATM   17  C14 UNL     1      -1.273   4.458  12.877  1.00  0.00     0.016 C
HETATM   18  C15 UNL     1      -3.383   4.785  14.037  1.00  0.00    -0.001 C
HETATM   19  C30 UNL     1      -3.089   5.960  11.929  1.00  0.00     0.004 C
HETATM   20  C16 UNL     1      -2.800   4.234  15.313  1.00  0.00     0.006 C
HETATM   21  C27 UNL     1      -3.988   3.616  13.305  1.00  0.00    -0.005 C
HETATM   22  C17 UNL     1      -3.021   2.786  15.551  1.00  0.00     0.010 C
HETATM   23  C18 UNL     1      -4.437   2.297  15.319  1.00  0.00    -0.036 C
HETATM   24  C19 UNL     1      -4.325   0.826  14.983  1.00  0.00     0.016 C
HETATM   25  C20 UNL     1      -5.352   2.639  16.426  1.00  0.00    -0.003 C
HETATM   26  C26 UNL     1      -5.058   2.940  14.071  1.00  0.00    -0.002 C
HETATM   27  C24 UNL     1      -6.699   2.841  15.717  1.00  0.00     0.006 C
HETATM   28  C25 UNL     1      -6.186   3.748  14.581  1.00  0.00     0.006 C
HETATM   29  C28 UNL     1      -4.397   3.851  11.902  1.00  0.00     0.006 C
HETATM   30  C29 UNL     1      -3.518   4.796  11.107  1.00  0.00     0.014 C
HETATM   31  C31 UNL     1      -4.414   6.585  12.395  1.00  0.00     0.020 C
BRANCH  12  32
HETATM   32  O2  UNL     1      -2.664   8.303  11.682  1.00  0.00    -0.379 OA
ATOM     33  H2  UNL     1      -2.350   8.460  12.564  1.00  0.00     0.211 HD
ENDBRANCH  12  32
BRANCH  25  34
HETATM   34  C21 UNL     1      -5.455   1.741  17.591  1.00  0.00    -0.018 C
HETATM   35  C22 UNL     1      -6.169   2.573  18.690  1.00  0.00     0.010 C
HETATM   36  C23 UNL     1      -6.338   0.533  17.423  1.00  0.00     0.010 C
ENDBRANCH  25  34
ENDBRANCH   6  12
ENDBRANCH   4   5
ENDBRANCH   1   4
TORSDOF 8
ENDMDL