MODEL 2
REMARK VINA RESULT: -8.236657175      3.228      8.986
REMARK  7 active torsions:
REMARK  status: ('A' for Active; 'I' for Inactive)
REMARK    1  A    between atoms: C2_2  and  O2_4
REMARK    2  A    between atoms: O2_4  and  C3_5
REMARK    3  A    between atoms: C12_14  and  C13_15
REMARK       I    between atoms: C13_15  and  N1_17
REMARK    4  A    between atoms: N1_17  and  C14_19
REMARK    5  A    between atoms: C14_19  and  C15_20
REMARK    6  A    between atoms: C15_20  and  C16_21
REMARK    7  A    between atoms: C16_21  and  N2_22
ROOT
HETATM    1  C3  UNL     1       2.755   2.893   6.065  1.00  0.00     0.140 C
HETATM    2  C4  UNL     1       4.180   3.412   6.299  1.00  0.00     0.034 C
HETATM    3  C5  UNL     1       4.128   4.209   7.599  1.00  0.00     0.008 C
HETATM    4  C6  UNL     1       2.716   4.007   8.054  1.00  0.00     0.001 C
HETATM    5  C7  UNL     1       2.230   4.960   9.087  1.00  0.00    -0.005 C
HETATM    6  C8  UNL     1       2.190   4.169  10.403  1.00  0.00     0.006 C
HETATM    7  C9  UNL     1       1.739   5.000  11.542  1.00  0.00     0.011 C
HETATM    8  C10 UNL     1       0.349   5.526  11.294  1.00  0.00    -0.028 C
HETATM    9  C11 UNL     1      -0.602   4.369  11.634  1.00  0.00     0.016 C
HETATM   10  C12 UNL     1       0.114   6.578  12.357  1.00  0.00     0.086 C
HETATM   11  C22 UNL     1       1.047   7.758  12.236  1.00  0.00     0.015 C
HETATM   12  C23 UNL     1       1.347   8.079  10.813  1.00  0.00     0.001 C
HETATM   13  C24 UNL     1       0.292   7.591   9.854  1.00  0.00     0.006 C
HETATM   14  C25 UNL     1       0.118   6.072   9.944  1.00  0.00    -0.001 C
HETATM   15  C26 UNL     1       0.826   5.405   8.814  1.00  0.00    -0.005 C
HETATM   16  C27 UNL     1      -0.029   4.306   8.221  1.00  0.00     0.006 C
HETATM   17  C28 UNL     1       0.557   3.727   6.966  1.00  0.00     0.012 C
HETATM   18  C29 UNL     1       1.979   4.038   6.740  1.00  0.00    -0.013 C
HETATM   19  C30 UNL     1       2.261   5.254   5.910  1.00  0.00     0.018 C
ENDROOT
BRANCH  10  20
HETATM   20  C13 UNL     1      -1.288   6.967  12.517  1.00  0.00     0.222 C
HETATM   21  O3  UNL     1      -1.696   8.045  12.037  1.00  0.00    -0.273 OA
HETATM   22  N1  UNL     1      -2.178   6.141  13.205  1.00  0.00    -0.361 N
ATOM     23  H1  UNL     1      -1.793   5.269  13.571  1.00  0.00     0.162 HD
BRANCH  22  24
HETATM   24  C14 UNL     1      -3.576   6.376  13.458  1.00  0.00     0.124 C
BRANCH  24  25
HETATM   25  C15 UNL     1      -3.958   5.774  14.771  1.00  0.00     0.048 C
BRANCH  25  26
HETATM   26  C16 UNL     1      -3.592   4.346  14.948  1.00  0.00     0.238 C
BRANCH  26  27
HETATM   27  N2  UNL     1      -4.603   3.408  15.251  1.00  0.00    -0.071 N
HETATM   28  C17 UNL     1      -4.930   2.752  13.943  1.00  0.00     0.272 C
HETATM   29  C18 UNL     1      -5.856   3.915  15.710  1.00  0.00     0.237 C
HETATM   30  C19 UNL     1      -6.521   2.650  16.273  1.00  0.00     0.029 C
HETATM   31  C20 UNL     1      -5.361   2.045  17.035  1.00  0.00     0.029 C
HETATM   32  C21 UNL     1      -4.193   2.338  16.152  1.00  0.00     0.237 C
ENDBRANCH  26  27
ENDBRANCH  25  26
ENDBRANCH  24  25
ENDBRANCH  22  24
ENDBRANCH  10  20
BRANCH   1  33
HETATM   33  O2  UNL     1       2.583   1.683   6.781  1.00  0.00    -0.316 OA
BRANCH  33  34
HETATM   34  C2  UNL     1       3.567   0.734   6.909  1.00  0.00     0.255 C
HETATM   35  C1  UNL     1       4.376   0.581   8.171  1.00  0.00     0.126 C
HETATM   36  O1  UNL     1       3.789  -0.026   5.930  1.00  0.00    -0.266 OA
ENDBRANCH  33  34
ENDBRANCH   1  33
TORSDOF 7
ENDMDL