MODEL 5
REMARK VINA RESULT: -8.447252035      4.730      8.879
REMARK  7 active torsions:
REMARK  status: ('A' for Active; 'I' for Inactive)
REMARK    1  A    between atoms: C2_2  and  C4_4
REMARK    2  A    between atoms: C21_21  and  C22_22
REMARK    3  A    between atoms: C22_22  and  C23_23
REMARK       I    between atoms: C23_23  and  N1_25
REMARK    4  A    between atoms: N1_25  and  C24_27
REMARK    5  A    between atoms: C24_27  and  C25_28
REMARK    6  A    between atoms: C25_28  and  C26_29
REMARK    7  A    between atoms: C26_29  and  N2_30
ROOT
HETATM    1  C4  UNL     1      -7.236   8.980   8.550  1.00  0.00    -0.066 C
HETATM    2  C5  UNL     1      -7.888   7.787   9.148  1.00  0.00     0.036 C
HETATM    3  C6  UNL     1      -6.841   6.716   9.393  1.00  0.00     0.015 C
HETATM    4  C7  UNL     1      -5.784   7.153   8.392  1.00  0.00    -0.029 C
HETATM    5  C8  UNL     1      -6.436   6.682   7.082  1.00  0.00     0.016 C
HETATM    6  C9  UNL     1      -4.547   6.336   8.381  1.00  0.00    -0.001 C
HETATM    7  C10 UNL     1      -3.860   6.233   7.027  1.00  0.00     0.006 C
HETATM    8  C11 UNL     1      -3.088   7.450   6.650  1.00  0.00     0.006 C
HETATM    9  C12 UNL     1      -2.578   8.222   7.848  1.00  0.00    -0.006 C
HETATM   10  C13 UNL     1      -3.382   9.397   8.187  1.00  0.00     0.006 C
HETATM   11  C14 UNL     1      -4.835   9.439   7.883  1.00  0.00     0.015 C
HETATM   12  C15 UNL     1      -5.775   8.585   8.622  1.00  0.00    -0.012 C
HETATM   13  C16 UNL     1      -5.533   9.011  10.086  1.00  0.00     0.021 C
HETATM   14  C17 UNL     1      -2.274   7.210   8.929  1.00  0.00    -0.036 C
HETATM   15  C18 UNL     1      -1.151   6.378   8.377  1.00  0.00     0.016 C
HETATM   16  C19 UNL     1      -1.698   7.794  10.200  1.00  0.00     0.010 C
HETATM   17  C20 UNL     1      -1.231   6.567  11.004  1.00  0.00     0.006 C
HETATM   18  C21 UNL     1      -2.337   5.620  11.288  1.00  0.00    -0.005 C
HETATM   19  C31 UNL     1      -3.092   5.155  10.073  1.00  0.00     0.011 C
HETATM   20  C32 UNL     1      -3.499   6.477   9.387  1.00  0.00    -0.001 C
ENDROOT
BRANCH  18  21
HETATM   21  C22 UNL     1      -1.954   4.591  12.270  1.00  0.00     0.107 C
BRANCH  21  22
HETATM   22  C23 UNL     1      -2.570   4.637  13.604  1.00  0.00     0.217 C
HETATM   23  O1  UNL     1      -2.038   4.153  14.608  1.00  0.00    -0.274 OA
HETATM   24  N1  UNL     1      -3.821   5.265  13.728  1.00  0.00    -0.361 N
ATOM     25  H1  UNL     1      -4.264   5.667  12.903  1.00  0.00     0.162 HD
BRANCH  24  26
HETATM   26  C24 UNL     1      -4.481   5.346  14.992  1.00  0.00     0.124 C
BRANCH  26  27
HETATM   27  C25 UNL     1      -5.861   4.756  15.041  1.00  0.00     0.050 C
BRANCH  27  28
HETATM   28  C26 UNL     1      -5.813   3.254  15.221  1.00  0.00     0.274 C
BRANCH  28  29
HETATM   29  N2  UNL     1      -5.201   2.862  16.473  1.00  0.00     0.092 N
HETATM   30  C27 UNL     1      -4.108   1.922  16.212  1.00  0.00     0.298 C
HETATM   31  C28 UNL     1      -4.581   0.656  15.579  1.00  0.00     0.198 C
HETATM   32  O2  UNL     1      -5.629   0.081  16.298  1.00  0.00    -0.388 OA
HETATM   33  C29 UNL     1      -5.802   0.739  17.532  1.00  0.00     0.198 C
HETATM   34  C30 UNL     1      -6.191   2.204  17.316  1.00  0.00     0.298 C
ENDBRANCH  28  29
ENDBRANCH  27  28
ENDBRANCH  26  27
ENDBRANCH  24  26
ENDBRANCH  21  22
ENDBRANCH  18  21
BRANCH   1  35
HETATM   35  C2  UNL     1      -7.807   9.704   7.478  1.00  0.00    -0.068 C
HETATM   36  C1  UNL     1      -8.745  10.589   7.666  1.00  0.00     0.018 C
HETATM   37  C3  UNL     1      -7.406   9.585   6.033  1.00  0.00     0.047 C
ENDBRANCH   1  35
TORSDOF 7
ENDMDL