MODEL 5
REMARK VINA RESULT: -6.795496654      1.469      2.604
REMARK  9 active torsions:
REMARK  status: ('A' for Active; 'I' for Inactive)
REMARK    1  A    between atoms: C3_3  and  C4_4
REMARK    2  A    between atoms: C4_4  and  C5_5
REMARK    3  A    between atoms: C9_10  and  C10_11
REMARK    4  A    between atoms: C16_17  and  C18_19
REMARK       I    between atoms: C18_19  and  N1_21
REMARK    5  A    between atoms: N1_21  and  C19_23
REMARK    6  A    between atoms: C19_23  and  C20_24
REMARK    7  A    between atoms: C20_24  and  N2_25
REMARK    8  A    between atoms: N2_25  and  C21_26
REMARK    9  A    between atoms: N2_25  and  C23_28
ROOT
HETATM    1  C1  UNL     1      -6.162  12.434  10.467  1.00  0.00     0.112 C
HETATM    2  C2  UNL     1      -6.311  11.038  10.060  1.00  0.00    -0.110 C
HETATM    3  C3  UNL     1      -6.454   9.885   9.730  1.00  0.00    -0.088 C
ENDROOT
BRANCH   3   4
HETATM    4  C4  UNL     1      -6.669   8.487   9.334  1.00  0.00     0.091 C
HETATM    5  C7  UNL     1      -6.921   7.779  10.674  1.00  0.00     0.032 C
HETATM    6  C8  UNL     1      -5.493   8.013  11.208  1.00  0.00     0.013 C
HETATM    7  C9  UNL     1      -4.608   7.544  10.115  1.00  0.00    -0.023 A
HETATM    8  C29 UNL     1      -3.702   8.686   9.627  1.00  0.00     0.012 A
HETATM    9  C31 UNL     1      -5.416   7.754   8.926  1.00  0.00    -0.010 A
HETATM   10  C30 UNL     1      -4.471   8.832   8.360  1.00  0.00     0.013 A
HETATM   11  C32 UNL     1      -5.794   6.695   7.985  1.00  0.00     0.018 C
BRANCH   4  12
HETATM   12  C5  UNL     1      -7.825   8.475   8.473  1.00  0.00     0.144 C
HETATM   13  C6  UNL     1      -7.899   9.356   7.245  1.00  0.00     0.093 C
HETATM   14  O1  UNL     1      -8.785   7.790   8.649  1.00  0.00    -0.296 OA
ENDBRANCH   4  12
BRANCH   7  15
HETATM   15  C10 UNL     1      -3.696   6.384  10.440  1.00  0.00    -0.030 A
HETATM   16  C11 UNL     1      -4.590   5.229  10.824  1.00  0.00     0.016 C
HETATM   17  C12 UNL     1      -2.906   5.974   9.226  1.00  0.00     0.011 A
HETATM   18  C13 UNL     1      -1.449   6.006   9.473  1.00  0.00     0.006 A
HETATM   19  C14 UNL     1      -1.290   6.411  10.856  1.00  0.00    -0.001 A
HETATM   20  C15 UNL     1      -2.686   6.694  11.461  1.00  0.00     0.016 A
HETATM   21  C26 UNL     1      -0.634   5.368  11.669  1.00  0.00    -0.043 C
HETATM   22  C16 UNL     1      -2.498   6.270  12.793  1.00  0.00     0.043 C
HETATM   23  C17 UNL     1      -1.583   7.329  13.494  1.00  0.00     0.026 C
HETATM   24  C25 UNL     1      -1.530   5.050  12.812  1.00  0.00     0.028 C
HETATM   25  C27 UNL     1       0.732   5.792  12.215  1.00  0.00     0.015 C
HETATM   26  C28 UNL     1      -0.398   4.040  10.968  1.00  0.00     0.015 C
BRANCH  22  27
HETATM   27  C18 UNL     1      -3.457   5.960  13.812  1.00  0.00     0.226 C
HETATM   28  O2  UNL     1      -3.422   6.663  14.893  1.00  0.00    -0.273 OA
HETATM   29  N1  UNL     1      -4.472   4.979  13.827  1.00  0.00    -0.359 N
ATOM     30  H1  UNL     1      -4.556   4.388  13.001  1.00  0.00     0.162 HD
BRANCH  29  31
HETATM   31  C19 UNL     1      -5.400   4.737  14.900  1.00  0.00     0.152 C
BRANCH  31  32
HETATM   32  C20 UNL     1      -5.790   3.304  15.084  1.00  0.00     0.292 C
BRANCH  32  33
HETATM   33  N2  UNL     1      -5.140   2.655  16.180  1.00  0.00     0.089 N
BRANCH  33  34
HETATM   34  C21 UNL     1      -4.473   1.434  15.862  1.00  0.00     0.268 C
HETATM   35  C22 UNL     1      -4.243   1.193  14.406  1.00  0.00     0.037 C
ENDBRANCH  33  34
BRANCH  33  36
HETATM   36  C23 UNL     1      -6.074   2.464  17.243  1.00  0.00     0.268 C
HETATM   37  C24 UNL     1      -7.152   1.457  16.908  1.00  0.00     0.037 C
ENDBRANCH  33  36
ENDBRANCH  32  33
ENDBRANCH  31  32
ENDBRANCH  29  31
ENDBRANCH  22  27
ENDBRANCH   7  15
ENDBRANCH   3   4
TORSDOF 9
ENDMDL