MODEL 1
REMARK VINA RESULT: -7.682015785      0.000      0.000
REMARK  8 active torsions:
REMARK  status: ('A' for Active; 'I' for Inactive)
REMARK    1  A    between atoms: O1_2  and  C2_3
REMARK    2  A    between atoms: C2_3  and  C3_5
REMARK    3  A    between atoms: C8_10  and  C9_11
REMARK    4  A    between atoms: C9_11  and  C10_13
REMARK    5  A    between atoms: C10_13  and  C12_15
REMARK    6  A    between atoms: N1_26  and  C23_27
REMARK    7  A    between atoms: C23_27  and  C24_28
REMARK    8  A    between atoms: C24_28  and  C25_29
ROOT
HETATM    1  C3  UNL     1      -1.301   5.070  11.057  1.00  0.00     0.056 C
HETATM    2  C4  UNL     1      -0.760   3.926  11.870  1.00  0.00     0.027 C
HETATM    3  C5  UNL     1      -0.357   6.221  11.415  1.00  0.00     0.021 C
HETATM    4  C6  UNL     1      -0.750   7.552  10.923  1.00  0.00     0.006 C
HETATM    5  C7  UNL     1      -2.198   7.881  10.991  1.00  0.00     0.039 C
HETATM    6  C8  UNL     1      -2.954   6.639  10.524  1.00  0.00    -0.024 C
HETATM    7  C20 UNL     1      -2.752   5.459  11.382  1.00  0.00     0.007 C
HETATM    8  C21 UNL     1      -3.622   4.310  11.098  1.00  0.00     0.043 C
HETATM    9  C22 UNL     1      -4.615   3.809  12.045  1.00  0.00     0.239 C
HETATM   10  N1  UNL     1      -4.476   4.035  13.431  1.00  0.00    -0.062 N
HETATM   11  C26 UNL     1      -5.791   4.327  14.071  1.00  0.00     0.238 C
HETATM   12  C27 UNL     1      -5.310   4.927  15.388  1.00  0.00     0.030 C
HETATM   13  C28 UNL     1      -4.019   5.662  15.037  1.00  0.00     0.035 C
HETATM   14  C29 UNL     1      -3.977   5.384  13.572  1.00  0.00     0.191 C
HETATM   15  C30 UNL     1      -2.735   5.716  12.863  1.00  0.00     0.049 C
ENDROOT
BRANCH   1  16
HETATM   16  C2  UNL     1      -1.098   4.664   9.649  1.00  0.00     0.268 C
HETATM   17  O2  UNL     1      -1.835   3.959   8.935  1.00  0.00    -0.264 OA
BRANCH  16  18
HETATM   18  O1  UNL     1       0.074   5.113   9.001  1.00  0.00    -0.326 OA
HETATM   19  C1  UNL     1       0.837   4.306   8.164  1.00  0.00     0.213 C
ENDBRANCH  16  18
ENDBRANCH   1  16
BRANCH   6  20
HETATM   20  C9  UNL     1      -4.255   7.053  10.029  1.00  0.00     0.157 C
HETATM   21  O3  UNL     1      -4.855   7.925  10.565  1.00  0.00    -0.293 OA
BRANCH  20  22
HETATM   22  C10 UNL     1      -4.935   6.449   8.849  1.00  0.00     0.068 C
HETATM   23  C11 UNL     1      -6.422   6.286   9.096  1.00  0.00     0.019 C
BRANCH  22  24
HETATM   24  C12 UNL     1      -4.675   7.235   7.581  1.00  0.00    -0.016 C
HETATM   25  C13 UNL     1      -5.971   7.418   6.774  1.00  0.00     0.020 C
HETATM   26  C14 UNL     1      -3.807   6.385   6.731  1.00  0.00    -0.014 C
HETATM   27  C15 UNL     1      -2.505   6.491   6.587  1.00  0.00    -0.087 C
HETATM   28  C16 UNL     1      -1.747   5.554   5.685  1.00  0.00     0.043 C
HETATM   29  C17 UNL     1      -1.794   7.553   7.325  1.00  0.00     0.033 C
HETATM   30  C18 UNL     1      -2.675   8.773   7.287  1.00  0.00     0.005 C
HETATM   31  C19 UNL     1      -4.051   8.549   7.807  1.00  0.00     0.014 C
ENDBRANCH  22  24
ENDBRANCH  20  22
ENDBRANCH   6  20
BRANCH  10  32
HETATM   32  C23 UNL     1      -3.887   3.047  14.242  1.00  0.00     0.248 C
BRANCH  32  33
HETATM   33  C24 UNL     1      -4.299   1.646  14.167  1.00  0.00     0.141 C
BRANCH  33  34
HETATM   34  C25 UNL     1      -4.098   0.781  15.328  1.00  0.00     0.174 C
HETATM   35  O4  UNL     1      -4.741  -0.325  15.397  1.00  0.00    -0.648 OA
HETATM   36  O5  UNL     1      -3.263   1.038  16.386  1.00  0.00    -0.648 OA
ENDBRANCH  33  34
ENDBRANCH  32  33
ENDBRANCH  10  32
TORSDOF 8
ENDMDL