MODEL 4
REMARK VINA RESULT: -7.999681847      0.806      1.308
REMARK  7 active torsions:
REMARK  status: ('A' for Active; 'I' for Inactive)
REMARK    1  A    between atoms: C3_3  and  C4_4
REMARK    2  A    between atoms: C4_4  and  C5_5
REMARK    3  A    between atoms: C5_5  and  C6_6
REMARK    4  A    between atoms: C6_6  and  C7_7
REMARK    5  A    between atoms: C6_6  and  N2_33
REMARK    6  A    between atoms: C24_24  and  O1_25
REMARK    7  A    between atoms: C24_24  and  C25_27
REMARK       I    between atoms: C25_27  and  N1_29
ROOT
HETATM    1  C1  UNL     1      -0.422   8.888   9.089  1.00  0.00     0.012 C
HETATM    2  C2  UNL     1      -0.632   9.888   9.712  1.00  0.00    -0.117 C
HETATM    3  C3  UNL     1      -0.886  11.136  10.492  1.00  0.00     0.097 C
ENDROOT
BRANCH   3   4
HETATM    4  C4  UNL     1       0.395  11.515  11.166  1.00  0.00     0.041 C
BRANCH   4   5
HETATM    5  C5  UNL     1       0.428  11.594  12.610  1.00  0.00    -0.001 C
BRANCH   5   6
HETATM    6  C6  UNL     1       0.816  10.522  13.538  1.00  0.00     0.007 C
BRANCH   6   7
HETATM    7  C7  UNL     1      -0.136   9.399  13.786  1.00  0.00     0.035 C
HETATM    8  C8  UNL     1      -1.567   9.723  13.996  1.00  0.00     0.011 C
HETATM    9  C9  UNL     1      -2.283   8.430  14.473  1.00  0.00     0.010 C
HETATM   10  C10 UNL     1      -2.294   7.510  13.298  1.00  0.00    -0.036 C
HETATM   11  C11 UNL     1      -2.853   8.240  12.096  1.00  0.00     0.016 C
HETATM   12  C12 UNL     1      -0.892   7.128  12.991  1.00  0.00    -0.005 C
HETATM   13  C16 UNL     1      -3.122   6.300  13.562  1.00  0.00    -0.002 C
HETATM   14  C13 UNL     1      -0.873   6.296  11.729  1.00  0.00     0.006 C
HETATM   15  C28 UNL     1       0.069   8.252  12.826  1.00  0.00     0.016 C
HETATM   16  C14 UNL     1      -1.828   5.156  11.754  1.00  0.00     0.006 C
HETATM   17  C15 UNL     1      -2.450   4.993  13.128  1.00  0.00    -0.005 C
HETATM   18  C21 UNL     1      -3.508   3.976  13.176  1.00  0.00     0.002 C
HETATM   19  C19 UNL     1      -3.904   3.707  14.610  1.00  0.00     0.000 C
HETATM   20  C22 UNL     1      -3.178   2.599  12.702  1.00  0.00     0.009 C
HETATM   21  C18 UNL     1      -4.467   4.986  15.172  1.00  0.00     0.013 C
HETATM   22  C20 UNL     1      -2.817   3.187  15.477  1.00  0.00     0.019 C
HETATM   23  C24 UNL     1      -4.999   2.688  14.332  1.00  0.00     0.146 C
HETATM   24  C17 UNL     1      -3.501   6.132  15.005  1.00  0.00     0.007 C
HETATM   25  C23 UNL     1      -4.324   1.780  13.289  1.00  0.00     0.049 C
BRANCH  23  26
HETATM   26  O1  UNL     1      -6.069   3.362  13.736  1.00  0.00    -0.379 OA
ATOM     27  H1  UNL     1      -6.425   2.800  13.058  1.00  0.00     0.211 HD
ENDBRANCH  23  26
BRANCH  23  28
HETATM   28  C25 UNL     1      -5.406   1.914  15.494  1.00  0.00     0.254 C
HETATM   29  O2  UNL     1      -5.010   0.696  15.532  1.00  0.00    -0.270 OA
HETATM   30  N1  UNL     1      -6.186   2.378  16.565  1.00  0.00    -0.358 N
HETATM   31  C26 UNL     1      -6.503   1.453  17.658  1.00  0.00     0.152 C
HETATM   32  C27 UNL     1      -6.686   3.730  16.630  1.00  0.00     0.152 C
ENDBRANCH  23  28
ENDBRANCH   6   7
BRANCH   6  33
HETATM   33  N2  UNL     1       1.730  10.799  14.570  1.00  0.00    -0.384 N
HETATM   34  C29 UNL     1       1.554  10.745  15.909  1.00  0.00     0.123 C
HETATM   35  C30 UNL     1       2.957  10.725  16.543  1.00  0.00     0.021 C
HETATM   36  C31 UNL     1       3.789  10.085  15.451  1.00  0.00     0.021 C
HETATM   37  C32 UNL     1       3.131  10.685  14.219  1.00  0.00     0.123 C
ENDBRANCH   6  33
ENDBRANCH   5   6
ENDBRANCH   4   5
ENDBRANCH   3   4
TORSDOF 7
ENDMDL