MODEL 3
REMARK VINA RESULT: -6.938788164      3.735      5.691
REMARK  8 active torsions:
REMARK  status: ('A' for Active; 'I' for Inactive)
REMARK    1  A    between atoms: C3_3  and  C4_4
REMARK    2  A    between atoms: C4_4  and  C6_6
REMARK    3  A    between atoms: C10_10  and  C11_11
REMARK    4  A    between atoms: C11_11  and  O1_12
REMARK    5  A    between atoms: C20_22  and  C22_24
REMARK       I    between atoms: C22_24  and  N1_26
REMARK    6  A    between atoms: N1_26  and  C24_28
REMARK    7  A    between atoms: C24_28  and  C25_29
REMARK    8  A    between atoms: C25_29  and  N2_30
ROOT
HETATM    1  C6  UNL     1      -3.933   5.718  14.238  1.00  0.00    -0.013 C
HETATM    2  C7  UNL     1      -4.175   6.341  15.533  1.00  0.00     0.021 C
HETATM    3  C8  UNL     1      -2.663   4.783  14.342  1.00  0.00     0.015 C
HETATM    4  C9  UNL     1      -1.591   5.842  14.228  1.00  0.00     0.018 C
HETATM    5  C10 UNL     1      -2.026   6.870  13.233  1.00  0.00     0.013 C
HETATM    6  C12 UNL     1      -3.470   6.476  13.063  1.00  0.00    -0.063 C
HETATM    7  C13 UNL     1      -4.165   6.801  11.963  1.00  0.00    -0.022 C
HETATM    8  C14 UNL     1      -3.367   7.580  10.934  1.00  0.00     0.033 C
HETATM    9  C15 UNL     1      -2.106   6.739  10.805  1.00  0.00     0.007 C
HETATM   10  C16 UNL     1      -1.515   6.665   9.453  1.00  0.00    -0.035 C
HETATM   11  C17 UNL     1      -1.711   7.985   8.740  1.00  0.00     0.016 C
HETATM   12  C18 UNL     1      -2.209   5.523   8.694  1.00  0.00     0.011 C
HETATM   13  C19 UNL     1      -1.154   4.448   8.537  1.00  0.00     0.020 C
HETATM   14  C20 UNL     1       0.032   5.255   8.207  1.00  0.00     0.042 C
HETATM   15  C21 UNL     1      -0.256   5.963   6.888  1.00  0.00     0.026 C
HETATM   16  C28 UNL     1      -0.081   6.281   9.368  1.00  0.00     0.011 C
HETATM   17  C29 UNL     1       0.523   5.726  10.582  1.00  0.00     0.007 C
HETATM   18  C30 UNL     1      -0.197   5.819  11.883  1.00  0.00     0.011 C
HETATM   19  C31 UNL     1      -1.215   6.947  11.975  1.00  0.00    -0.026 C
HETATM   20  C32 UNL     1      -0.395   8.224  11.874  1.00  0.00     0.016 C
ENDROOT
BRANCH  14  21
HETATM   21  C22 UNL     1       1.342   4.686   8.106  1.00  0.00     0.228 C
HETATM   22  O2  UNL     1       1.407   3.396   8.075  1.00  0.00    -0.273 OA
HETATM   23  N1  UNL     1       2.566   5.311   8.045  1.00  0.00    -0.354 N
HETATM   24  C23 UNL     1       3.822   4.511   8.012  1.00  0.00     0.152 C
BRANCH  23  25
HETATM   25  C24 UNL     1       2.793   6.717   7.963  1.00  0.00     0.155 C
BRANCH  25  26
HETATM   26  C25 UNL     1       3.167   7.109   6.577  1.00  0.00     0.291 C
BRANCH  26  27
HETATM   27  N2  UNL     1       2.583   8.374   6.165  1.00  0.00     0.081 N
HETATM   28  C26 UNL     1       1.987   9.090   7.278  1.00  0.00     0.309 C
HETATM   29  C27 UNL     1       3.696   9.203   5.694  1.00  0.00     0.309 C
ENDBRANCH  26  27
ENDBRANCH  25  26
ENDBRANCH  23  25
ENDBRANCH  14  21
BRANCH   5  30
HETATM   30  C11 UNL     1      -2.017   8.198  13.973  1.00  0.00     0.178 C
BRANCH  30  31
HETATM   31  O1  UNL     1      -1.243   8.058  15.171  1.00  0.00    -0.400 OA
ATOM     32  H1  UNL     1      -1.100   8.918  15.548  1.00  0.00     0.209 HD
ENDBRANCH  30  31
ENDBRANCH   5  30
BRANCH   1  33
HETATM   33  C4  UNL     1      -5.110   4.781  13.969  1.00  0.00     0.016 C
HETATM   34  C5  UNL     1      -4.631   3.510  13.336  1.00  0.00     0.015 C
BRANCH  33  35
HETATM   35  C3  UNL     1      -5.880   4.539  15.212  1.00  0.00    -0.026 C
HETATM   36  C2  UNL     1      -5.996   3.301  15.726  1.00  0.00    -0.035 C
HETATM   37  C1  UNL     1      -6.754   3.052  16.949  1.00  0.00     0.036 C
ENDBRANCH  33  35
ENDBRANCH   1  33
TORSDOF 8
ENDMDL