MODEL 4
REMARK VINA RESULT: -5.641713161      4.546      7.857
REMARK  11 active torsions:
REMARK  status: ('A' for Active; 'I' for Inactive)
REMARK    1  A    between atoms: C6_7  and  C7_8
REMARK    2  A    between atoms: C12_13  and  O2_14
REMARK    3  A    between atoms: O2_14  and  C13_15
REMARK    4  A    between atoms: C13_15  and  C14_16
REMARK    5  A    between atoms: C14_16  and  O3_17
REMARK    6  A    between atoms: C14_16  and  C15_19
REMARK    7  A    between atoms: C15_19  and  C16_20
REMARK    8  A    between atoms: C16_20  and  O4_21
REMARK    9  A    between atoms: C16_20  and  N1_23
REMARK   10  A    between atoms: C17_26  and  N2_27
REMARK   11  A    between atoms: N2_27  and  C18_29
ROOT
HETATM    1  N1  UNL     1       9.858  -7.798   2.183  1.00  0.00    -0.262 NA
HETATM    2  O5  UNL     1      10.762  -6.964   2.188  1.00  0.00    -0.217 OA
ATOM      3  H5  UNL     1      11.456  -6.316   2.150  1.00  0.00     0.261 HD
ENDROOT
BRANCH   1   4
HETATM    4  C16 UNL     1       8.906  -8.686   2.236  1.00  0.00     0.225 C
BRANCH   4   5
HETATM    5  C15 UNL     1       8.806  -9.559   1.152  1.00  0.00     0.137 C
BRANCH   5   6
HETATM    6  C14 UNL     1       7.620  -8.843   0.172  1.00  0.00     0.151 C
BRANCH   6   7
HETATM    7  C13 UNL     1       7.255 -10.095  -0.539  1.00  0.00     0.207 C
BRANCH   7   8
HETATM    8  O2  UNL     1       6.030 -10.830  -0.284  1.00  0.00    -0.348 OA
BRANCH   8   9
HETATM    9  C12 UNL     1       5.940 -11.964   0.486  1.00  0.00     0.075 A
HETATM   10  C7  UNL     1       5.479 -13.064  -0.385  1.00  0.00    -0.016 A
HETATM   11  C8  UNL     1       5.339 -14.330   0.182  1.00  0.00     0.010 A
HETATM   12  C9  UNL     1       5.617 -14.491   1.541  1.00  0.00     0.001 A
HETATM   13  C10 UNL     1       5.995 -13.543   2.333  1.00  0.00     0.003 A
HETATM   14  C11 UNL     1       6.170 -12.243   1.799  1.00  0.00     0.037 A
BRANCH  10  15
HETATM   15  C6  UNL     1       4.830 -12.662  -1.680  1.00  0.00     0.073 C
HETATM   16  C5  UNL     1       3.365 -12.309  -1.210  1.00  0.00     0.137 C
HETATM   17  O1  UNL     1       3.158 -12.789   0.072  1.00  0.00    -0.384 OA
HETATM   18  C25 UNL     1       2.447 -12.979  -2.144  1.00  0.00     0.027 C
HETATM   19  C4  UNL     1       1.780 -13.130   0.110  1.00  0.00     0.177 C
HETATM   20  C2  UNL     1       1.554 -13.759  -1.255  1.00  0.00    -0.020 C
HETATM   21  C1  UNL     1       0.064 -13.533  -1.500  1.00  0.00     0.017 C
HETATM   22  C3  UNL     1       1.808 -15.203  -1.143  1.00  0.00     0.017 C
HETATM   23  C24 UNL     1       3.221 -13.660  -3.188  1.00  0.00     0.033 C
HETATM   24  C17 UNL     1       4.761 -13.717  -2.712  1.00  0.00     0.088 C
BRANCH  24  25
HETATM   25  N2  UNL     1       5.580 -13.362  -3.777  1.00  0.00    -0.412 N
ATOM     26  H2  UNL     1       6.392 -12.765  -3.619  1.00  0.00     0.154 HD
BRANCH  25  27
HETATM   27  C18 UNL     1       5.290 -13.828  -5.074  1.00  0.00     0.081 C
HETATM   28  C19 UNL     1       6.512 -14.533  -5.625  1.00  0.00     0.025 C
HETATM   29  C20 UNL     1       6.168 -15.203  -6.980  1.00  0.00     0.006 C
HETATM   30  C21 UNL     1       4.996 -14.502  -7.640  1.00  0.00     0.060 C
HETATM   31  C22 UNL     1       4.944 -13.037  -7.423  1.00  0.00     0.180 C
HETATM   32  F1  UNL     1       5.890 -12.419  -8.208  1.00  0.00    -0.226 F
HETATM   33 CL1  UNL     1       3.290 -12.475  -7.977  1.00  0.00    -0.083 Cl
HETATM   34  C23 UNL     1       5.015 -12.647  -5.955  1.00  0.00     0.085 C
ENDBRANCH  25  27
ENDBRANCH  24  25
ENDBRANCH  10  15
ENDBRANCH   8   9
ENDBRANCH   7   8
ENDBRANCH   6   7
BRANCH   6  35
HETATM   35  O3  UNL     1       8.342  -7.903  -0.438  1.00  0.00    -0.393 OA
ATOM     36  H3  UNL     1       7.937  -7.311  -1.062  1.00  0.00     0.210 HD
ENDBRANCH   6  35
ENDBRANCH   5   6
ENDBRANCH   4   5
BRANCH   4  37
HETATM   37  O4  UNL     1       8.200  -8.448   3.456  1.00  0.00    -0.337 OA
ATOM     38  H4  UNL     1       8.409  -8.391   4.381  1.00  0.00     0.220 HD
ENDBRANCH   4  37
ENDBRANCH   1   4
TORSDOF 11
ENDMDL