MODEL 3
REMARK VINA RESULT: -7.878790414      3.235      5.531
REMARK  12 active torsions:
REMARK  status: ('A' for Active; 'I' for Inactive)
REMARK    1  A    between atoms: C3_5  and  C4_6
REMARK    2  A    between atoms: C4_6  and  O1_8
REMARK    3  A    between atoms: C7_13  and  C8_14
REMARK    4  A    between atoms: C8_14  and  O2_15
REMARK    5  A    between atoms: C8_14  and  C9_17
REMARK    6  A    between atoms: C10_18  and  C11_19
REMARK    7  A    between atoms: C12_20  and  O3_21
REMARK    8  A    between atoms: C14_24  and  O4_26
REMARK    9  A    between atoms: C16_28  and  C17_29
REMARK   10  A    between atoms: C17_29  and  C18_30
REMARK   11  A    between atoms: C18_30  and  C19_31
REMARK   12  A    between atoms: C20_32  and  C21_34
ROOT
HETATM    1  C11 UNL     1       8.115 -10.119   2.796  1.00  0.00     0.044 C
HETATM    2  C12 UNL     1       9.410 -10.568   2.188  1.00  0.00     0.129 C
HETATM    3  C13 UNL     1       9.475  -9.756   0.929  1.00  0.00     0.070 C
HETATM    4  C14 UNL     1       8.023  -9.562   0.486  1.00  0.00     0.061 C
HETATM    5  C15 UNL     1       7.789  -8.113   0.304  1.00  0.00     0.046 C
HETATM    6  C16 UNL     1       7.233 -10.225   1.563  1.00  0.00     0.030 C
ENDROOT
BRANCH   1   7
HETATM    7  C10 UNL     1       8.093  -8.800   3.407  1.00  0.00    -0.020 C
HETATM    8  C9  UNL     1       9.086  -7.987   3.687  1.00  0.00     0.006 C
BRANCH   8   9
HETATM    9  C8  UNL     1       8.914  -6.651   4.322  1.00  0.00     0.177 C
BRANCH   9  10
HETATM   10  C7  UNL     1       8.430  -5.650   3.334  1.00  0.00     0.012 A
HETATM   11  C2  UNL     1       9.267  -4.890   2.553  1.00  0.00     0.017 A
HETATM   12  C1  UNL     1      10.726  -5.070   2.693  1.00  0.00     0.069 C
HETATM   13  N1  UNL     1       8.740  -3.997   1.674  1.00  0.00    -0.347 N
HETATM   14  C3  UNL     1       7.424  -3.820   1.535  1.00  0.00     0.110 A
ATOM     15  H1  UNL     1       9.374  -3.441   1.100  1.00  0.00     0.167 HD
HETATM   16  N2  UNL     1       6.606  -4.556   2.293  1.00  0.00    -0.353 N
HETATM   17  C6  UNL     1       7.072  -5.462   3.185  1.00  0.00     0.101 A
ATOM     18  H2  UNL     1       5.598  -4.431   2.197  1.00  0.00     0.166 HD
BRANCH  14  19
HETATM   19  C4  UNL     1       6.949  -2.824   0.553  1.00  0.00     0.181 C
HETATM   20  C5  UNL     1       7.975  -1.738   0.453  1.00  0.00     0.047 C
BRANCH  19  21
HETATM   21  O1  UNL     1       6.694  -3.441  -0.662  1.00  0.00    -0.388 OA
ATOM     22  H1  UNL     1       5.799  -3.272  -0.931  1.00  0.00     0.210 HD
ENDBRANCH  19  21
ENDBRANCH  14  19
ENDBRANCH   9  10
BRANCH   9  23
HETATM   23  O2  UNL     1       7.902  -6.732   5.300  1.00  0.00    -0.387 OA
ATOM     24  H2  UNL     1       7.096  -6.876   4.818  1.00  0.00     0.210 HD
ENDBRANCH   9  23
ENDBRANCH   8   9
ENDBRANCH   1   7
BRANCH   2  25
HETATM   25  O3  UNL     1      10.506 -10.541   2.988  1.00  0.00    -0.395 OA
ATOM     26  H3  UNL     1      11.214  -9.962   2.728  1.00  0.00     0.210 HD
ENDBRANCH   2  25
BRANCH   6  27
HETATM   27  C17 UNL     1       5.847  -9.751   1.720  1.00  0.00     0.012 C
BRANCH  27  28
HETATM   28  C18 UNL     1       4.837 -10.745   1.186  1.00  0.00     0.030 C
BRANCH  28  29
HETATM   29  C19 UNL     1       5.290 -12.144   1.315  1.00  0.00     0.016 C
HETATM   30  C20 UNL     1       5.359 -13.114   0.472  1.00  0.00     0.124 C
HETATM   31  F1  UNL     1       5.855 -14.322   1.037  1.00  0.00    -0.205 F
BRANCH  30  32
HETATM   32  C21 UNL     1       5.118 -13.131  -0.937  1.00  0.00     0.024 A
HETATM   33  C22 UNL     1       6.051 -13.022  -1.912  1.00  0.00     0.016 A
HETATM   34  C23 UNL     1       5.701 -12.987  -3.278  1.00  0.00     0.001 A
HETATM   35  C24 UNL     1       4.390 -13.066  -3.643  1.00  0.00     0.002 A
HETATM   36  C25 UNL     1       3.418 -13.180  -2.683  1.00  0.00     0.025 A
HETATM   37  C26 UNL     1       3.778 -13.211  -1.360  1.00  0.00     0.047 A
HETATM   38 CL1  UNL     1       2.496 -13.353  -0.164  1.00  0.00    -0.083 Cl
ENDBRANCH  30  32
ENDBRANCH  28  29
ENDBRANCH  27  28
ENDBRANCH   6  27
BRANCH   4  39
HETATM   39  O4  UNL     1       7.778 -10.274  -0.712  1.00  0.00    -0.390 OA
ATOM     40  H4  UNL     1       6.908 -10.080  -1.038  1.00  0.00     0.210 HD
ENDBRANCH   4  39
TORSDOF 12
ENDMDL