MODEL 5
REMARK VINA RESULT: -5.515274875      1.788      3.227
REMARK  10 active torsions:
REMARK  status: ('A' for Active; 'I' for Inactive)
REMARK    1  A    between atoms: O1_2  and  C2_3
REMARK    2  A    between atoms: C2_3  and  C3_4
REMARK    3  A    between atoms: C3_4  and  C4_5
REMARK    4  A    between atoms: C4_5  and  C5_6
REMARK    5  A    between atoms: C6_7  and  C8_9
REMARK    6  A    between atoms: C8_9  and  O2_10
REMARK    7  A    between atoms: O2_10  and  C9_11
REMARK    8  A    between atoms: C14_17  and  C15_18
REMARK    9  A    between atoms: C18_25  and  N3_26
REMARK   10  A    between atoms: C19_31  and  N5_32
ROOT
HETATM    1  C15 UNL     1       3.190 -13.567   0.194  1.00  0.00     0.079 C
HETATM    2  N1  UNL     1       2.112 -13.177   0.841  1.00  0.00    -0.349 N
ATOM      3  H1  UNL     1       1.401 -12.770   0.232  1.00  0.00     0.166 HD
HETATM    4  C16 UNL     1       1.727 -13.203   2.221  1.00  0.00     0.101 A
HETATM    5  C17 UNL     1       2.178 -13.944   3.302  1.00  0.00     0.058 A
HETATM    6  N2  UNL     1       1.538 -13.653   4.475  1.00  0.00    -0.193 N
ATOM      7  H2  UNL     1       1.819 -14.163   5.312  1.00  0.00     0.184 HD
HETATM    8  C18 UNL     1       0.569 -12.744   4.594  1.00  0.00     0.677 A
HETATM    9  N4  UNL     1       0.140 -12.024   3.521  1.00  0.00    -0.175 N
ATOM     10  H4  UNL     1      -0.601 -11.327   3.605  1.00  0.00     0.186 HD
HETATM   11  C19 UNL     1       0.730 -12.272   2.363  1.00  0.00     0.143 A
HETATM   12  C20 UNL     1       3.132 -14.974   3.716  1.00  0.00     0.075 C
HETATM   13  C21 UNL     1       4.338 -15.203   2.924  1.00  0.00     0.102 C
HETATM   14  N6  UNL     1       4.755 -14.157   2.011  1.00  0.00    -0.276 NA
HETATM   15  C22 UNL     1       6.111 -13.752   2.180  1.00  0.00     0.118 C
HETATM   16  C23 UNL     1       4.312 -14.404   0.687  1.00  0.00     0.109 C
HETATM   17 CL2  UNL     1       5.575 -14.788  -0.445  1.00  0.00    -0.068 Cl
ENDROOT
BRANCH   1  18
HETATM   18  C14 UNL     1       3.108 -13.313  -1.217  1.00  0.00     0.028 A
HETATM   19  C9  UNL     1       3.976 -12.482  -1.947  1.00  0.00     0.081 A
HETATM   20  C10 UNL     1       4.033 -12.488  -3.314  1.00  0.00     0.039 A
HETATM   21  C11 UNL     1       3.212 -13.326  -4.061  1.00  0.00     0.026 A
HETATM   22  C12 UNL     1       2.352 -14.148  -3.393  1.00  0.00     0.035 A
HETATM   23 CL1  UNL     1       1.330 -15.203  -4.369  1.00  0.00    -0.084 Cl
HETATM   24  C13 UNL     1       2.298 -14.149  -2.023  1.00  0.00     0.040 A
BRANCH  19  25
HETATM   25  O2  UNL     1       4.758 -11.658  -1.220  1.00  0.00    -0.346 OA
BRANCH  25  26
HETATM   26  C8  UNL     1       6.104 -11.432  -1.146  1.00  0.00     0.209 C
BRANCH  26  27
HETATM   27  C6  UNL     1       6.594 -10.514  -0.099  1.00  0.00    -0.064 C
HETATM   28  C5  UNL     1       7.732  -9.859  -0.182  1.00  0.00    -0.022 C
HETATM   29  C7  UNL     1       5.745 -10.322   1.110  1.00  0.00     0.045 C
BRANCH  28  30
HETATM   30  C4  UNL     1       8.254  -8.935   0.831  1.00  0.00     0.029 C
BRANCH  30  31
HETATM   31  C3  UNL     1       8.328  -7.494   0.395  1.00  0.00     0.030 C
BRANCH  31  32
HETATM   32  C2  UNL     1       8.041  -6.647   1.610  1.00  0.00     0.167 C
BRANCH  32  33
HETATM   33  O1  UNL     1       7.588  -7.433   2.698  1.00  0.00    -0.396 OA
HETATM   34  C1  UNL     1       8.080  -6.886   3.887  1.00  0.00     0.201 C
ENDBRANCH  32  33
ENDBRANCH  31  32
ENDBRANCH  30  31
ENDBRANCH  28  30
ENDBRANCH  26  27
ENDBRANCH  25  26
ENDBRANCH  19  25
ENDBRANCH   1  18
BRANCH  11  35
HETATM   35  N5  UNL     1       0.358 -11.502   1.314  1.00  0.00    -0.383 N
ATOM     36  H52 UNL     1      -0.226 -10.692   1.525  1.00  0.00     0.157 HD
ATOM     37  H51 UNL     1       0.703 -11.706   0.376  1.00  0.00     0.157 HD
ENDBRANCH  11  35
BRANCH   8  38
HETATM   38  N3  UNL     1       0.000 -12.497   5.731  1.00  0.00    -0.234 N
ATOM     39  H32 UNL     1      -0.552 -13.248   6.145  1.00  0.00     0.174 HD
ATOM     40  H31 UNL     1       0.091 -11.591   6.193  1.00  0.00     0.174 HD
ENDBRANCH   8  38
TORSDOF 10
ENDMDL