MODEL 4
REMARK VINA RESULT: -8.105764848      3.717     10.801
REMARK  12 active torsions:
REMARK  status: ('A' for Active; 'I' for Inactive)
REMARK    1  A    between atoms: O1_2  and  C2_3
REMARK    2  A    between atoms: C4_5  and  C5_6
REMARK    3  A    between atoms: C5_6  and  C6_7
REMARK    4  A    between atoms: C6_7  and  C7_8
REMARK    5  A    between atoms: C7_8  and  O2_9
REMARK    6  A    between atoms: C7_8  and  C8_11
REMARK    7  A    between atoms: C8_11  and  C9_12
REMARK    8  A    between atoms: C9_12  and  C11_14
REMARK    9  A    between atoms: C11_14  and  C12_15
REMARK   10  A    between atoms: C12_15  and  O3_16
REMARK   11  A    between atoms: C14_19  and  O4_20
REMARK   12  A    between atoms: C19_26  and  O5_27
ROOT
HETATM    1  C9  UNL     1       7.481  -3.382   1.077  1.00  0.00    -0.013 C
HETATM    2  C10 UNL     1       6.549  -3.770  -0.021  1.00  0.00     0.010 C
ENDROOT
BRANCH   1   3
HETATM    3  C8  UNL     1       8.076  -2.045   0.885  1.00  0.00     0.036 C
BRANCH   3   4
HETATM    4  C7  UNL     1       7.458  -1.032   0.051  1.00  0.00     0.118 C
BRANCH   4   5
HETATM    5  C6  UNL     1       8.305   0.018  -0.601  1.00  0.00     0.036 C
BRANCH   5   6
HETATM    6  C5  UNL     1       7.453   1.285  -0.623  1.00  0.00     0.043 C
BRANCH   6   7
HETATM    7  C4  UNL     1       8.172   2.455  -1.129  1.00  0.00    -0.034 A
HETATM    8  C3  UNL     1       8.989   3.191  -0.275  1.00  0.00     0.047 A
HETATM    9  C2  UNL     1       9.627   4.287  -0.811  1.00  0.00     0.090 A
HETATM   10  C25 UNL     1       9.471   4.650  -2.140  1.00  0.00     0.069 A
HETATM   11  C24 UNL     1       8.661   3.917  -2.980  1.00  0.00     0.051 A
HETATM   12 CL2  UNL     1      10.317   6.070  -2.778  1.00  0.00    -0.081 Cl
HETATM   13  C23 UNL     1       8.017   2.815  -2.448  1.00  0.00     0.042 A
HETATM   14 CL1  UNL     1       7.001   1.913  -3.582  1.00  0.00    -0.084 Cl
BRANCH   9  15
HETATM   15  O1  UNL     1      10.452   5.068  -0.038  1.00  0.00    -0.354 OA
HETATM   16  C1  UNL     1      11.845   5.047  -0.001  1.00  0.00     0.210 C
ENDBRANCH   9  15
ENDBRANCH   6   7
ENDBRANCH   5   6
ENDBRANCH   4   5
BRANCH   4  17
HETATM   17  O2  UNL     1       6.358  -0.376   0.608  1.00  0.00    -0.396 OA
ATOM     18  H2  UNL     1       5.855  -0.020  -0.115  1.00  0.00     0.210 HD
ENDBRANCH   4  17
ENDBRANCH   3   4
ENDBRANCH   1   3
BRANCH   1  19
HETATM   19  C11 UNL     1       8.491  -4.442   1.448  1.00  0.00     0.043 C
BRANCH  19  20
HETATM   20  C12 UNL     1       7.981  -5.469   2.396  1.00  0.00     0.069 C
HETATM   21  C13 UNL     1       8.745  -5.453   3.725  1.00  0.00     0.071 C
HETATM   22  C14 UNL     1       9.111  -6.903   3.945  1.00  0.00     0.130 C
HETATM   23  C15 UNL     1       9.326  -7.371   2.563  1.00  0.00     0.054 C
HETATM   24  C16 UNL     1       9.337  -8.840   2.382  1.00  0.00    -0.078 C
HETATM   25  C21 UNL     1       8.082  -6.872   1.860  1.00  0.00    -0.001 C
HETATM   26  C17 UNL     1       9.461  -9.821   3.472  1.00  0.00     0.043 C
HETATM   27  C18 UNL     1       9.221  -9.244   1.122  1.00  0.00     0.007 C
HETATM   28  C19 UNL     1       9.096  -8.265   0.042  1.00  0.00     0.142 C
HETATM   29  C20 UNL     1       8.332  -7.006   0.404  1.00  0.00     0.048 C
HETATM   30  C22 UNL     1       6.846  -7.611   2.306  1.00  0.00     0.019 C
BRANCH  20  31
HETATM   31  O3  UNL     1       6.659  -5.177   2.722  1.00  0.00    -0.389 OA
ATOM     32  H3  UNL     1       6.476  -5.494   3.598  1.00  0.00     0.210 HD
ENDBRANCH  20  31
BRANCH  22  33
HETATM   33  O4  UNL     1      10.279  -7.032   4.697  1.00  0.00    -0.395 OA
ATOM     34  H4  UNL     1      10.822  -7.746   4.383  1.00  0.00     0.210 HD
ENDBRANCH  22  33
BRANCH  28  35
HETATM   35  O5  UNL     1       8.492  -8.888  -1.062  1.00  0.00    -0.392 OA
ATOM     36  H5  UNL     1       9.070  -8.805  -1.811  1.00  0.00     0.210 HD
ENDBRANCH  28  35
ENDBRANCH  19  20
ENDBRANCH   1  19
TORSDOF 12
ENDMDL