MODEL 4
REMARK VINA RESULT: -8.439223846      3.140      5.277
REMARK  11 active torsions:
REMARK  status: ('A' for Active; 'I' for Inactive)
REMARK    1  A    between atoms: C2_2  and  O1_4
REMARK    2  A    between atoms: C2_2  and  C4_6
REMARK    3  A    between atoms: C4_6  and  C5_8
REMARK    4  A    between atoms: C5_8  and  N1_9
REMARK    5  A    between atoms: N1_9  and  C6_12
REMARK    6  A    between atoms: C6_12  and  O2_13
REMARK    7  A    between atoms: C6_12  and  C7_15
REMARK    8  A    between atoms: C9_18  and  C10_19
REMARK    9  A    between atoms: C13_22  and  O3_23
REMARK   10  A    between atoms: C14_25  and  O4_26
REMARK   11  A    between atoms: O4_26  and  C15_27
ROOT
HETATM    1  C7  UNL     1       7.593   0.362  -0.864  1.00  0.00     0.073 A
HETATM    2  C8  UNL     1       6.430   0.586  -0.171  1.00  0.00     0.081 A
HETATM    3  S1  UNL     1       6.526  -0.617   1.047  1.00  0.00    -0.081 SA
HETATM    4  C9  UNL     1       8.017  -1.314   0.600  1.00  0.00     0.087 A
HETATM    5  N2  UNL     1       8.364  -0.594  -0.456  1.00  0.00    -0.349 N
ATOM      6  H2  UNL     1       9.236  -0.793  -0.946  1.00  0.00     0.166 HD
ENDROOT
BRANCH   4   7
HETATM    7  C10 UNL     1       8.727  -2.436   1.237  1.00  0.00     0.039 A
HETATM    8  C11 UNL     1       9.817  -2.120   2.016  1.00  0.00     0.020 A
HETATM    9  C12 UNL     1      10.541  -3.137   2.651  1.00  0.00     0.040 A
HETATM   10  C13 UNL     1      10.118  -4.451   2.463  1.00  0.00     0.102 A
HETATM   11  C14 UNL     1       9.035  -4.791   1.692  1.00  0.00     0.142 A
HETATM   12  C25 UNL     1       8.340  -3.745   1.075  1.00  0.00     0.165 A
HETATM   13  F2  UNL     1       7.266  -3.996   0.299  1.00  0.00    -0.202 F
BRANCH  10  14
HETATM   14  O3  UNL     1      10.855  -5.426   3.104  1.00  0.00    -0.358 OA
ATOM     15  H3  UNL     1      10.634  -5.589   4.013  1.00  0.00     0.217 HD
ENDBRANCH  10  14
BRANCH  11  16
HETATM   16  O4  UNL     1       8.669  -6.096   1.545  1.00  0.00    -0.339 OA
BRANCH  16  17
HETATM   17  C15 UNL     1       9.291  -7.230   2.069  1.00  0.00     0.137 C
HETATM   18  C16 UNL     1       8.379  -7.782   3.157  1.00  0.00     0.016 C
HETATM   19  C17 UNL     1       8.862  -9.103   3.699  1.00  0.00     0.012 C
HETATM   20  C21 UNL     1       7.008  -7.962   2.522  1.00  0.00     0.012 C
HETATM   21  C18 UNL     1       8.928 -10.134   2.602  1.00  0.00    -0.013 C
HETATM   22  C19 UNL     1       7.554 -10.349   2.027  1.00  0.00     0.009 C
HETATM   23  C24 UNL     1       9.880  -9.622   1.560  1.00  0.00     0.012 C
HETATM   24  C20 UNL     1       7.083  -9.029   1.455  1.00  0.00    -0.013 C
HETATM   25  C22 UNL     1       8.021  -8.566   0.386  1.00  0.00     0.012 C
HETATM   26  C23 UNL     1       9.378  -8.293   0.999  1.00  0.00     0.016 C
ENDBRANCH  16  17
ENDBRANCH  11  16
ENDBRANCH   4   7
BRANCH   1  27
HETATM   27  C6  UNL     1       7.926   1.228  -2.066  1.00  0.00     0.370 C
BRANCH  27  28
HETATM   28  N1  UNL     1       7.230   2.505  -1.901  1.00  0.00    -0.041 N
ATOM     29  H12 UNL     1       6.998   2.677  -0.923  1.00  0.00     0.280 HD
ATOM     30  H11 UNL     1       6.286   2.466  -2.285  1.00  0.00     0.280 HD
BRANCH  28  31
HETATM   31  C5  UNL     1       7.975   3.594  -2.459  1.00  0.00     0.276 C
BRANCH  31  32
HETATM   32  C4  UNL     1       8.694   4.372  -1.406  1.00  0.00     0.229 C
HETATM   33  F1  UNL     1       8.383   3.978  -0.129  1.00  0.00    -0.244 F
BRANCH  32  34
HETATM   34  C2  UNL     1      10.177   4.367  -1.557  1.00  0.00     0.083 C
HETATM   35  C1  UNL     1      10.674   5.168  -2.715  1.00  0.00     0.048 C
HETATM   36  C3  UNL     1      10.873   4.767  -0.253  1.00  0.00     0.048 C
BRANCH  34  37
HETATM   37  O1  UNL     1      10.566   3.026  -1.779  1.00  0.00    -0.388 OA
ATOM     38  H1  UNL     1      10.038   2.696  -2.496  1.00  0.00     0.210 HD
ENDBRANCH  34  37
ENDBRANCH  32  34
ENDBRANCH  31  32
ENDBRANCH  28  31
ENDBRANCH  27  28
BRANCH  27  39
HETATM   39  O2  UNL     1       7.608   0.603  -3.253  1.00  0.00    -0.365 OA
ATOM     40  H2  UNL     1       8.349   0.147  -3.635  1.00  0.00     0.212 HD
ENDBRANCH  27  39
ENDBRANCH   1  27
TORSDOF 11
ENDMDL