MODEL 2
REMARK VINA RESULT: -7.734967236      1.771      2.432
REMARK  14 active torsions:
REMARK  status: ('A' for Active; 'I' for Inactive)
REMARK    1  A    between atoms: O1_2  and  C2_3
REMARK    2  A    between atoms: C2_3  and  N2_7
REMARK    3  A    between atoms: C5_10  and  C6_11
REMARK    4  A    between atoms: C6_11  and  N3_12
REMARK    5  A    between atoms: N3_12  and  C7_13
REMARK    6  A    between atoms: N3_12  and  C16_28
REMARK    7  A    between atoms: C7_13  and  C8_14
REMARK    8  A    between atoms: C8_14  and  O2_15
REMARK    9  A    between atoms: O2_15  and  C9_16
REMARK   10  A    between atoms: C9_16  and  N5_20
REMARK   11  A    between atoms: N5_20  and  C10_22
REMARK   12  A    between atoms: C16_28  and  S1_32
REMARK   13  A    between atoms: S1_32  and  C17_33
REMARK   14  A    between atoms: C17_33  and  C18_34
ROOT
HETATM    1  N3  UNL     1       7.557  -6.163   2.728  1.00  0.00    -0.340 N
ENDROOT
BRANCH   1   2
HETATM    2  C6  UNL     1       7.796  -7.005   1.623  1.00  0.00     0.071 C
BRANCH   2   3
HETATM    3  C5  UNL     1       7.916  -8.461   1.777  1.00  0.00     0.027 C
HETATM    4  C4  UNL     1       6.479  -9.001   1.878  1.00  0.00     0.030 C
HETATM    5  C3  UNL     1       6.336 -10.391   1.369  1.00  0.00     0.127 C
HETATM    6  N2  UNL     1       6.700 -10.465  -0.025  1.00  0.00    -0.348 N
HETATM    7  C20 UNL     1       7.765  -9.553  -0.459  1.00  0.00     0.127 C
HETATM    8  C19 UNL     1       8.619  -9.279   0.774  1.00  0.00     0.030 C
BRANCH   6   9
HETATM    9  C2  UNL     1       6.124 -11.340  -0.975  1.00  0.00     0.214 C
HETATM   10  N1  UNL     1       6.815 -12.272  -1.562  1.00  0.00    -0.365 N
ATOM     11  H12 UNL     1       6.399 -12.903  -2.247  1.00  0.00     0.159 HD
ATOM     12  H11 UNL     1       7.802 -12.368  -1.325  1.00  0.00     0.159 HD
BRANCH   9  13
HETATM   13  O1  UNL     1       4.766 -11.207  -1.301  1.00  0.00    -0.327 OA
HETATM   14  C1  UNL     1       4.181 -12.167  -2.177  1.00  0.00     0.213 C
ENDBRANCH   9  13
ENDBRANCH   6   9
ENDBRANCH   2   3
ENDBRANCH   1   2
BRANCH   1  15
HETATM   15  C7  UNL     1       6.692  -5.021   2.725  1.00  0.00     0.157 C
BRANCH  15  16
HETATM   16  C8  UNL     1       6.478  -4.487   1.304  1.00  0.00     0.199 C
BRANCH  16  17
HETATM   17  O2  UNL     1       6.565  -3.079   1.418  1.00  0.00    -0.321 OA
BRANCH  17  18
HETATM   18  C9  UNL     1       7.556  -2.318   0.848  1.00  0.00     0.212 C
HETATM   19  N4  UNL     1       8.774  -2.568   1.101  1.00  0.00    -0.365 N
ATOM     20  H42 UNL     1       9.045  -3.328   1.725  1.00  0.00     0.159 HD
ATOM     21  H41 UNL     1       9.510  -2.002   0.678  1.00  0.00     0.159 HD
BRANCH  18  22
HETATM   22  N5  UNL     1       7.183  -1.270  -0.013  1.00  0.00    -0.352 N
ATOM     23  H5  UNL     1       6.455  -1.464  -0.701  1.00  0.00     0.163 HD
BRANCH  22  24
HETATM   24  C10 UNL     1       7.747   0.053   0.001  1.00  0.00     0.085 C
HETATM   25  C11 UNL     1       6.617   1.087   0.024  1.00  0.00     0.025 C
HETATM   26  C12 UNL     1       7.229   2.423  -0.275  1.00  0.00     0.002 C
HETATM   27  C13 UNL     1       7.648   2.441  -1.749  1.00  0.00     0.000 C
HETATM   28  C14 UNL     1       7.871   1.019  -2.225  1.00  0.00     0.002 C
HETATM   29  C15 UNL     1       8.675   0.316  -1.146  1.00  0.00     0.025 C
ENDBRANCH  22  24
ENDBRANCH  18  22
ENDBRANCH  17  18
ENDBRANCH  16  17
ENDBRANCH  15  16
ENDBRANCH   1  15
BRANCH   1  30
HETATM   30  C16 UNL     1       8.242  -6.468   3.975  1.00  0.00     0.139 C
HETATM   31  N6  UNL     1       7.606  -6.965   4.978  1.00  0.00    -0.380 N
ATOM     32  H62 UNL     1       6.606  -7.141   4.879  1.00  0.00     0.158 HD
ATOM     33  H61 UNL     1       8.087  -7.179   5.852  1.00  0.00     0.158 HD
BRANCH  30  34
HETATM   34  S1  UNL     1       9.989  -6.162   4.147  1.00  0.00    -0.092 SA
BRANCH  34  35
HETATM   35  C17 UNL     1      10.563  -4.987   2.917  1.00  0.00     0.118 C
BRANCH  35  36
HETATM   36  C18 UNL     1      11.267  -5.691   1.754  1.00  0.00     0.188 C
HETATM   37 CL1  UNL     1      10.175  -5.665   0.355  1.00  0.00    -0.107 Cl
HETATM   38 CL2  UNL     1      11.605  -7.385   2.201  1.00  0.00    -0.107 Cl
ENDBRANCH  35  36
ENDBRANCH  34  35
ENDBRANCH  30  34
ENDBRANCH   1  30
TORSDOF 14
ENDMDL