MODEL 1
REMARK VINA RESULT: -5.525298126      0.000      0.000
REMARK  11 active torsions:
REMARK  status: ('A' for Active; 'I' for Inactive)
REMARK    1  A    between atoms: C7_9  and  C8_10
REMARK    2  A    between atoms: C8_10  and  C9_11
REMARK    3  A    between atoms: C9_11  and  C10_12
REMARK    4  A    between atoms: C10_12  and  C12_14
REMARK    5  A    between atoms: C12_14  and  C13_15
REMARK    6  A    between atoms: C13_15  and  O3_16
REMARK    7  A    between atoms: C13_15  and  C14_18
REMARK    8  A    between atoms: C14_18  and  C15_19
REMARK    9  A    between atoms: C18_24  and  O6_25
REMARK   10  A    between atoms: C19_27  and  C20_28
REMARK   11  A    between atoms: C20_28  and  O7_29
ROOT
HETATM    1  C1  UNL     1       0.220 -12.567   4.229  1.00  0.00     0.047 C
HETATM    2  C2  UNL     1       1.470 -13.061   3.606  1.00  0.00    -0.068 C
HETATM    3  C3  UNL     1       2.570 -13.348   4.299  1.00  0.00    -0.020 C
HETATM    4  C4  UNL     1       3.848 -13.845   3.739  1.00  0.00     0.037 C
HETATM    5  C5  UNL     1       4.629 -12.948   2.860  1.00  0.00     0.115 C
HETATM    6  C6  UNL     1       5.331 -13.721   1.750  1.00  0.00     0.259 C
HETATM    7  O1  UNL     1       6.247 -14.452   2.289  1.00  0.00    -0.265 OA
HETATM    8  O2  UNL     1       5.111 -13.708   0.475  1.00  0.00    -0.316 OA
HETATM    9  C7  UNL     1       5.316 -13.351  -0.813  1.00  0.00     0.138 C
HETATM   10  C16 UNL     1       4.018 -13.392  -1.675  1.00  0.00     0.040 C
HETATM   11  C17 UNL     1       4.166 -14.212  -2.895  1.00  0.00     0.015 C
HETATM   12  C18 UNL     1       2.990 -13.914  -0.684  1.00  0.00     0.132 C
HETATM   13  C19 UNL     1       1.571 -13.884  -0.946  1.00  0.00     0.058 C
HETATM   14  C21 UNL     1       0.690 -13.015  -0.100  1.00  0.00     0.113 C
HETATM   15 CL1  UNL     1       1.268 -11.350  -0.115  1.00  0.00    -0.123 Cl
HETATM   16  C22 UNL     1       0.386 -13.519   1.309  1.00  0.00     0.124 C
HETATM   17 CL2  UNL     1      -0.097 -15.202   1.239  1.00  0.00    -0.119 Cl
HETATM   18  C23 UNL     1       1.550 -13.233   2.173  1.00  0.00     0.001 C
ENDROOT
BRANCH   9  19
HETATM   19  C8  UNL     1       6.079 -12.077  -1.039  1.00  0.00     0.033 C
BRANCH  19  20
HETATM   20  C9  UNL     1       5.357 -10.882  -0.523  1.00  0.00     0.007 C
BRANCH  20  21
HETATM   21  C10 UNL     1       6.195  -9.999   0.360  1.00  0.00    -0.016 C
HETATM   22  C11 UNL     1       5.746  -9.975   1.780  1.00  0.00     0.010 C
BRANCH  21  23
HETATM   23  C12 UNL     1       7.624 -10.499   0.323  1.00  0.00     0.036 C
BRANCH  23  24
HETATM   24  C13 UNL     1       8.603  -9.429  -0.078  1.00  0.00     0.128 C
BRANCH  24  25
HETATM   25  O3  UNL     1       7.914  -8.512  -0.870  1.00  0.00    -0.395 OA
ATOM     26  H3  UNL     1       7.588  -7.830  -0.295  1.00  0.00     0.210 HD
ENDBRANCH  24  25
BRANCH  24  27
HETATM   27  C14 UNL     1       9.129  -8.690   1.132  1.00  0.00     0.144 C
BRANCH  27  28
HETATM   28  C15 UNL     1       9.028  -7.220   0.957  1.00  0.00     0.175 C
HETATM   29  O4  UNL     1       9.924  -6.553   0.377  1.00  0.00    -0.648 OA
HETATM   30  O5  UNL     1       7.934  -6.533   1.433  1.00  0.00    -0.648 OA
ENDBRANCH  27  28
ENDBRANCH  24  27
ENDBRANCH  23  24
ENDBRANCH  21  23
ENDBRANCH  20  21
ENDBRANCH  19  20
ENDBRANCH   9  19
BRANCH  12  31
HETATM   31  O6  UNL     1       3.448 -15.173  -0.354  1.00  0.00    -0.395 OA
ATOM     32  H6  UNL     1       3.756 -15.082   0.540  1.00  0.00     0.210 HD
ENDBRANCH  12  31
BRANCH  13  33
HETATM   33  C20 UNL     1       1.190 -13.581  -2.404  1.00  0.00     0.172 C
BRANCH  33  34
HETATM   34  O7  UNL     1      -0.179 -13.283  -2.486  1.00  0.00    -0.400 OA
ATOM     35  H7  UNL     1      -0.305 -12.484  -2.983  1.00  0.00     0.209 HD
ENDBRANCH  33  34
ENDBRANCH  13  33
TORSDOF 11
ENDMDL