MODEL 3
REMARK VINA RESULT: -6.584611363      2.151      5.520
REMARK  12 active torsions:
REMARK  status: ('A' for Active; 'I' for Inactive)
REMARK    1  A    between atoms: C9_11  and  O1_12
REMARK    2  A    between atoms: N1_14  and  C10_15
REMARK    3  A    between atoms: C10_15  and  C11_16
REMARK    4  A    between atoms: C10_15  and  C16_27
REMARK    5  A    between atoms: C11_16  and  C12_17
REMARK    6  A    between atoms: C12_17  and  C13_18
REMARK    7  A    between atoms: C13_18  and  C14_19
REMARK    8  A    between atoms: C14_19  and  C15_20
REMARK    9  A    between atoms: C15_20  and  O2_21
REMARK   10  A    between atoms: N2_23  and  O3_25
REMARK       I    between atoms: C16_27  and  N3_29
REMARK   11  A    between atoms: C19_32  and  C20_33
REMARK   12  A    between atoms: C20_33  and  O5_34
ROOT
HETATM    1  C10 UNL     1       5.240 -12.284  -0.108  1.00  0.00     0.184 C
ENDROOT
BRANCH   1   2
HETATM    2  N1  UNL     1       4.793 -12.995   1.066  1.00  0.00    -0.313 N
HETATM    3  C6  UNL     1       3.551 -12.914   1.622  1.00  0.00     0.050 A
HETATM    4  C5  UNL     1       2.414 -12.216   1.295  1.00  0.00     0.056 A
HETATM    5  C7  UNL     1       3.474 -13.714   2.748  1.00  0.00     0.003 A
HETATM    6  C4  UNL     1       1.240 -12.312   2.060  1.00  0.00     0.058 A
HETATM    7  C3  UNL     1       1.210 -13.121   3.170  1.00  0.00     0.062 A
HETATM    8 CL2  UNL     1      -0.145 -11.379   1.548  1.00  0.00    -0.082 Cl
HETATM    9  C2  UNL     1       2.329 -13.827   3.519  1.00  0.00    -0.026 A
HETATM   10 CL1  UNL     1      -0.265 -13.243   4.132  1.00  0.00    -0.082 Cl
HETATM   11  C1  UNL     1       2.319 -14.711   4.719  1.00  0.00     0.051 C
HETATM   12  C8  UNL     1       4.695 -14.306   2.896  1.00  0.00     0.070 A
HETATM   13  C9  UNL     1       5.486 -13.861   1.871  1.00  0.00     0.144 A
BRANCH  13  14
HETATM   14  O1  UNL     1       6.826 -14.223   1.646  1.00  0.00    -0.346 OA
ATOM     15  H1  UNL     1       7.142 -15.097   1.451  1.00  0.00     0.219 HD
ENDBRANCH  13  14
ENDBRANCH   1   2
BRANCH   1  16
HETATM   16  C11 UNL     1       6.357 -11.317   0.202  1.00  0.00     0.035 C
BRANCH  16  17
HETATM   17  C12 UNL     1       6.002 -10.258   1.195  1.00  0.00     0.003 C
BRANCH  17  18
HETATM   18  C13 UNL     1       7.065  -9.922   2.189  1.00  0.00     0.008 C
BRANCH  18  19
HETATM   19  C14 UNL     1       8.358  -9.732   1.376  1.00  0.00     0.086 C
BRANCH  19  20
HETATM   20  C15 UNL     1       8.540  -8.349   0.947  1.00  0.00     0.135 C
HETATM   21  N2  UNL     1       8.760  -8.080  -0.288  1.00  0.00    -0.251 N
ATOM     22  H2  UNL     1       8.886  -7.110  -0.577  1.00  0.00     0.196 HD
BRANCH  20  23
HETATM   23  O2  UNL     1       8.480  -7.307   1.851  1.00  0.00    -0.348 OA
ATOM     24  H2  UNL     1       9.259  -6.822   2.096  1.00  0.00     0.219 HD
ENDBRANCH  20  23
BRANCH  21  25
HETATM   25  O3  UNL     1       8.829  -9.082  -1.226  1.00  0.00    -0.288 OA
ATOM     26  H3  UNL     1       8.262  -9.076  -1.987  1.00  0.00     0.244 HD
ENDBRANCH  21  25
ENDBRANCH  19  20
ENDBRANCH  18  19
ENDBRANCH  17  18
ENDBRANCH  16  17
ENDBRANCH   1  16
BRANCH   1  27
HETATM   27  C16 UNL     1       5.576 -13.121  -1.273  1.00  0.00     0.243 C
HETATM   28  O4  UNL     1       6.618 -13.883  -1.160  1.00  0.00    -0.271 OA
HETATM   29  N3  UNL     1       4.928 -13.219  -2.502  1.00  0.00    -0.350 N
HETATM   30  C17 UNL     1       5.475 -14.111  -3.542  1.00  0.00     0.126 C
HETATM   31  C22 UNL     1       3.732 -12.535  -2.895  1.00  0.00     0.126 C
HETATM   32  C18 UNL     1       4.487 -15.192  -3.793  1.00  0.00     0.027 C
HETATM   33  C19 UNL     1       3.096 -14.683  -4.074  1.00  0.00     0.012 C
HETATM   34  C21 UNL     1       2.667 -13.578  -3.180  1.00  0.00     0.027 C
BRANCH  33  35
HETATM   35  C20 UNL     1       2.953 -14.270  -5.535  1.00  0.00     0.168 C
BRANCH  35  36
HETATM   36  O5  UNL     1       1.864 -13.419  -5.713  1.00  0.00    -0.400 OA
ATOM     37  H5  UNL     1       1.637 -13.341  -6.633  1.00  0.00     0.209 HD
ENDBRANCH  35  36
ENDBRANCH  33  35
ENDBRANCH   1  27
TORSDOF 12
ENDMDL