MODEL 2
REMARK VINA RESULT: -5.721519498      1.509      1.896
REMARK  11 active torsions:
REMARK  status: ('A' for Active; 'I' for Inactive)
REMARK    1  A    between atoms: C2_2  and  C4_4
REMARK    2  A    between atoms: C4_4  and  C5_5
REMARK    3  A    between atoms: C5_5  and  C23_34
REMARK    4  A    between atoms: N1_6  and  C6_8
REMARK    5  A    between atoms: C6_8  and  C7_9
REMARK    6  A    between atoms: C6_8  and  C9_12
REMARK    7  A    between atoms: C10_13  and  N2_14
REMARK    8  A    between atoms: N4_22  and  C16_23
REMARK    9  A    between atoms: C22_30  and  N5_31
REMARK   10  A    between atoms: C23_34  and  O1_35
REMARK   11  A    between atoms: C23_34  and  O2_37
ROOT
HETATM    1  C9  UNL     1       5.265 -11.240   0.021  1.00  0.00     0.059 A
HETATM    2  C10 UNL     1       6.106 -11.653  -0.962  1.00  0.00     0.131 A
HETATM    3  N3  UNL     1       7.235 -10.924  -0.770  1.00  0.00    -0.276 N
ATOM      4  H3  UNL     1       8.067 -11.002  -1.354  1.00  0.00     0.189 HD
HETATM    5  N4  UNL     1       7.132 -10.105   0.257  1.00  0.00    -0.237 N
HETATM    6  C22 UNL     1       5.906 -10.279   0.776  1.00  0.00     0.133 A
ENDROOT
BRANCH   1   7
HETATM    7  C6  UNL     1       3.882 -11.675   0.342  1.00  0.00     0.146 C
BRANCH   7   8
HETATM    8  N1  UNL     1       3.854 -12.108   1.680  1.00  0.00    -0.380 N
HETATM    9  C5  UNL     1       4.520 -13.028   2.289  1.00  0.00     0.038 C
ATOM     10  H1  UNL     1       3.191 -11.607   2.271  1.00  0.00     0.160 HD
BRANCH   9  11
HETATM   11  C4  UNL     1       4.166 -13.147   3.730  1.00  0.00     0.061 C
BRANCH  11  12
HETATM   12  C2  UNL     1       2.743 -13.385   4.089  1.00  0.00    -0.017 C
HETATM   13  C1  UNL     1       2.520 -14.937   4.019  1.00  0.00     0.010 C
HETATM   14  C3  UNL     1       2.322 -13.046   5.485  1.00  0.00     0.010 C
ENDBRANCH  11  12
ENDBRANCH   9  11
BRANCH   9  15
HETATM   15  C23 UNL     1       5.529 -13.865   1.652  1.00  0.00     0.300 C
BRANCH  15  16
HETATM   16  O1  UNL     1       5.228 -15.202   1.539  1.00  0.00    -0.366 OA
ATOM     17  H1  UNL     1       5.540 -15.638   0.755  1.00  0.00     0.213 HD
ENDBRANCH  15  16
BRANCH  15  18
HETATM   18  O2  UNL     1       6.817 -13.782   2.178  1.00  0.00    -0.366 OA
ATOM     19  H2  UNL     1       7.495 -13.485   1.583  1.00  0.00     0.213 HD
ENDBRANCH  15  18
ENDBRANCH   9  15
ENDBRANCH   7   8
BRANCH   7  20
HETATM   20  C7  UNL     1       3.547 -12.887  -0.510  1.00  0.00     0.015 C
HETATM   21  C8  UNL     1       2.312 -13.227  -0.752  1.00  0.00     0.083 C
HETATM   22 CL1  UNL     1       1.836 -14.598  -1.716  1.00  0.00    -0.097 Cl
ENDBRANCH   7  20
ENDBRANCH   1   7
BRANCH   2  23
HETATM   23  N2  UNL     1       5.949 -12.592  -1.991  1.00  0.00    -0.366 N
HETATM   24  C11 UNL     1       5.049 -12.522  -3.097  1.00  0.00     0.124 C
HETATM   25  C12 UNL     1       5.308 -13.708  -4.040  1.00  0.00     0.020 C
HETATM   26  C13 UNL     1       5.065 -14.978  -3.293  1.00  0.00     0.003 C
HETATM   27  C14 UNL     1       5.765 -14.976  -1.956  1.00  0.00     0.020 C
HETATM   28  C15 UNL     1       6.759 -13.806  -2.007  1.00  0.00     0.124 C
ENDBRANCH   2  23
BRANCH   6  29
HETATM   29  N5  UNL     1       5.431  -9.637   1.815  1.00  0.00    -0.383 N
ATOM     30  H52 UNL     1       5.099 -10.077   2.673  1.00  0.00     0.157 HD
ATOM     31  H51 UNL     1       5.322  -8.628   1.923  1.00  0.00     0.157 HD
ENDBRANCH   6  29
BRANCH   5  32
HETATM   32  C16 UNL     1       8.123  -9.188   0.756  1.00  0.00     0.080 A
HETATM   33  C17 UNL     1       8.352  -7.982   0.130  1.00  0.00     0.033 A
HETATM   34  C18 UNL     1       9.285  -7.062   0.556  1.00  0.00     0.002 A
HETATM   35  C19 UNL     1      10.046  -7.350   1.680  1.00  0.00     0.002 A
HETATM   36  C20 UNL     1       9.826  -8.549   2.311  1.00  0.00     0.026 A
HETATM   37  C21 UNL     1       8.887  -9.468   1.876  1.00  0.00     0.062 A
HETATM   38 CL2  UNL     1       8.671 -10.966   2.736  1.00  0.00    -0.082 Cl
ENDBRANCH   5  32
TORSDOF 11
ENDMDL