MODEL 3
REMARK VINA RESULT: -5.953987510      1.254      1.507
REMARK  12 active torsions:
REMARK  status: ('A' for Active; 'I' for Inactive)
REMARK    1  A    between atoms: O1_1  and  C1_3
REMARK    2  A    between atoms: C1_3  and  C2_4
REMARK    3  A    between atoms: C2_4  and  C3_5
REMARK    4  A    between atoms: C3_5  and  C4_6
REMARK    5  A    between atoms: C7_13  and  N3_14
REMARK    6  A    between atoms: N3_14  and  C8_16
REMARK    7  A    between atoms: N4_26  and  C16_27
REMARK    8  A    between atoms: C16_27  and  C17_28
REMARK    9  A    between atoms: C16_27  and  C19_34
REMARK   10  A    between atoms: C17_28  and  O2_29
REMARK   11  A    between atoms: C17_28  and  C18_31
REMARK   12  A    between atoms: C18_31  and  O3_32
ROOT
HETATM    1  C4  UNL     1       3.604 -12.708   0.457  1.00  0.00     0.274 C
HETATM    2  C5  UNL     1       4.860 -12.122  -0.023  1.00  0.00     0.055 A
HETATM    3  N1  UNL     1       5.647 -12.241  -1.105  1.00  0.00    -0.353 N
ATOM      4  H1  UNL     1       5.402 -12.889  -1.853  1.00  0.00     0.166 HD
HETATM    5  C6  UNL     1       6.778 -11.485  -1.190  1.00  0.00     0.182 A
HETATM    6  N2  UNL     1       7.122 -10.630  -0.221  1.00  0.00    -0.338 N
ATOM      7  H2  UNL     1       7.977 -10.081  -0.319  1.00  0.00     0.168 HD
HETATM    8  C7  UNL     1       6.375 -10.479   0.867  1.00  0.00     0.116 A
HETATM    9  C14 UNL     1       5.215 -11.248   0.961  1.00  0.00     0.039 A
HETATM   10  C15 UNL     1       4.186 -11.284   2.032  1.00  0.00     0.318 C
HETATM   11  N4  UNL     1       3.588 -12.665   1.832  1.00  0.00     0.111 N
ENDROOT
BRANCH  11  12
HETATM   12  C16 UNL     1       4.430 -13.453   2.689  1.00  0.00     0.259 C
BRANCH  12  13
HETATM   13  C17 UNL     1       4.541 -14.888   2.248  1.00  0.00     0.175 C
BRANCH  13  14
HETATM   14  O2  UNL     1       3.579 -15.178   1.249  1.00  0.00    -0.391 OA
ATOM     15  H2  UNL     1       3.464 -16.116   1.159  1.00  0.00     0.210 HD
ENDBRANCH  13  14
BRANCH  13  16
HETATM   16  C18 UNL     1       5.811 -15.203   1.522  1.00  0.00     0.198 C
BRANCH  16  17
HETATM   17  O3  UNL     1       6.857 -14.323   1.850  1.00  0.00    -0.398 OA
ATOM     18  H3  UNL     1       7.662 -14.776   2.073  1.00  0.00     0.209 HD
ENDBRANCH  16  17
ENDBRANCH  13  16
ENDBRANCH  12  13
BRANCH  12  19
HETATM   19  C19 UNL     1       3.562 -13.547   3.956  1.00  0.00     0.022 C
HETATM   20  C20 UNL     1       2.115 -13.359   3.821  1.00  0.00     0.007 C
HETATM   21  C21 UNL     1       1.347 -14.440   4.641  1.00  0.00     0.000 C
HETATM   22  C22 UNL     1       1.734 -14.293   6.075  1.00  0.00     0.000 C
HETATM   23  C23 UNL     1       3.216 -14.149   6.296  1.00  0.00     0.000 C
HETATM   24  C24 UNL     1       3.888 -14.583   4.969  1.00  0.00     0.007 C
ENDBRANCH  12  19
ENDBRANCH  11  12
BRANCH   1  25
HETATM   25  C3  UNL     1       2.478 -11.832  -0.065  1.00  0.00     0.044 C
BRANCH  25  26
HETATM   26  C2  UNL     1       1.108 -12.264   0.318  1.00  0.00     0.028 C
BRANCH  26  27
HETATM   27  C1  UNL     1       0.642 -13.605  -0.099  1.00  0.00     0.164 C
BRANCH  27  28
HETATM   28  O1  UNL     1       0.664 -14.627   0.800  1.00  0.00    -0.401 OA
ATOM     29  H1  UNL     1      -0.111 -14.805   1.320  1.00  0.00     0.209 HD
ENDBRANCH  27  28
ENDBRANCH  26  27
ENDBRANCH  25  26
ENDBRANCH   1  25
BRANCH   8  30
HETATM   30  N3  UNL     1       6.667  -9.676   1.831  1.00  0.00    -0.342 N
ATOM     31  H3  UNL     1       6.163  -9.738   2.716  1.00  0.00     0.167 HD
BRANCH  30  32
HETATM   32  C8  UNL     1       7.689  -8.706   1.663  1.00  0.00     0.035 A
HETATM   33  C9  UNL     1       8.142  -8.267   0.440  1.00  0.00     0.031 A
HETATM   34  C10 UNL     1       9.135  -7.331   0.326  1.00  0.00     0.028 A
HETATM   35  C11 UNL     1       9.689  -6.819   1.481  1.00  0.00     0.055 A
HETATM   36 CL1  UNL     1      10.966  -5.614   1.438  1.00  0.00    -0.083 Cl
HETATM   37  C12 UNL     1       9.251  -7.243   2.733  1.00  0.00     0.058 A
HETATM   38 CL2  UNL     1       9.963  -6.580   4.210  1.00  0.00    -0.082 Cl
HETATM   39  C13 UNL     1       8.258  -8.180   2.798  1.00  0.00     0.055 A
ENDBRANCH  30  32
ENDBRANCH   8  30
TORSDOF 12
ENDMDL