MODEL 5
REMARK VINA RESULT: -9.263388493      2.942      5.495
REMARK  8 active torsions:
REMARK  status: ('A' for Active; 'I' for Inactive)
REMARK    1  A    between atoms: C3_5  and  S1_6
REMARK    2  A    between atoms: S1_6  and  C4_7
REMARK    3  A    between atoms: C4_7  and  C5_8
REMARK    4  A    between atoms: C6_9  and  O1_10
REMARK    5  A    between atoms: O1_10  and  C7_11
REMARK    6  A    between atoms: C7_11  and  C8_12
REMARK    7  A    between atoms: C22_33  and  C23_34
REMARK    8  A    between atoms: C23_34  and  C24_35
ROOT
HETATM    1  C5  UNL     1     -26.249   7.661 -16.038  1.00  0.00     0.036 C
HETATM    2  C6  UNL     1     -25.923   8.860 -16.964  1.00  0.00     0.153 C
HETATM    3  C14 UNL     1     -27.098   9.641 -17.393  1.00  0.00     0.264 C
HETATM    4  N2  UNL     1     -28.196   8.826 -17.879  1.00  0.00    -0.072 N
ATOM      5  H21 UNL     1     -28.533   9.140 -18.789  1.00  0.00     0.277 HD
ATOM      6  H22 UNL     1     -29.051   8.978 -17.344  1.00  0.00     0.277 HD
HETATM    7  C15 UNL     1     -27.806   7.428 -17.897  1.00  0.00     0.242 C
HETATM    8  C16 UNL     1     -27.586   7.092 -16.413  1.00  0.00    -0.007 C
HETATM    9  C17 UNL     1     -28.755   7.631 -15.643  1.00  0.00     0.014 C
HETATM   10  C18 UNL     1     -29.883   6.782 -16.267  1.00  0.00     0.038 C
HETATM   11  C19 UNL     1     -29.258   5.464 -16.582  1.00  0.00     0.171 C
HETATM   12  F1  UNL     1     -29.823   4.528 -15.706  1.00  0.00    -0.249 F
HETATM   13  C20 UNL     1     -27.755   5.624 -16.288  1.00  0.00     0.049 C
ENDROOT
BRANCH   1  14
HETATM   14  C4  UNL     1     -26.160   8.200 -14.658  1.00  0.00     0.090 C
BRANCH  14  15
HETATM   15  S1  UNL     1     -27.009   7.365 -13.355  1.00  0.00    -0.093 SA
BRANCH  15  16
HETATM   16  C3  UNL     1     -26.544   5.673 -13.092  1.00  0.00     0.147 A
HETATM   17  N1  UNL     1     -27.281   4.820 -12.364  1.00  0.00    -0.340 N
HETATM   18  C2  UNL     1     -26.893   3.519 -12.172  1.00  0.00     0.019 A
ATOM     19  H1  UNL     1     -28.150   5.147 -11.944  1.00  0.00     0.167 HD
HETATM   20  C1  UNL     1     -27.747   2.628 -11.325  1.00  0.00     0.069 C
HETATM   21  C22 UNL     1     -25.742   3.023 -12.710  1.00  0.00     0.036 A
HETATM   22  C21 UNL     1     -24.990   3.939 -13.468  1.00  0.00     0.255 A
HETATM   23  N3  UNL     1     -25.421   5.197 -13.618  1.00  0.00    -0.303 N
HETATM   24  O2  UNL     1     -23.909   3.556 -13.996  1.00  0.00    -0.268 OA
ATOM     25  H3  UNL     1     -24.849   5.832 -14.174  1.00  0.00     0.171 HD
BRANCH  21  26
HETATM   26  C23 UNL     1     -25.260   1.647 -12.565  1.00  0.00     0.087 C
BRANCH  26  27
HETATM   27  C24 UNL     1     -25.670   0.690 -13.597  1.00  0.00    -0.023 A
HETATM   28  C25 UNL     1     -24.756   0.141 -14.459  1.00  0.00     0.097 A
HETATM   29  N4  UNL     1     -25.097  -0.729 -15.394  1.00  0.00    -0.362 N
HETATM   30  C26 UNL     1     -26.382  -1.100 -15.517  1.00  0.00     0.180 A
ATOM     31  H4  UNL     1     -24.388  -1.117 -16.018  1.00  0.00     0.166 HD
HETATM   32  N5  UNL     1     -27.300  -0.576 -14.685  1.00  0.00    -0.362 N
HETATM   33  C27 UNL     1     -26.987   0.308 -13.725  1.00  0.00     0.097 A
ATOM     34  H5  UNL     1     -28.274  -0.862 -14.787  1.00  0.00     0.166 HD
ENDBRANCH  26  27
ENDBRANCH  21  26
ENDBRANCH  15  16
ENDBRANCH  14  15
ENDBRANCH   1  14
BRANCH   2  35
HETATM   35  O1  UNL     1     -24.996   9.680 -16.338  1.00  0.00    -0.379 OA
BRANCH  35  36
HETATM   36  C7  UNL     1     -24.820  10.901 -16.962  1.00  0.00     0.206 C
BRANCH  36  37
HETATM   37  C8  UNL     1     -25.019  11.977 -15.966  1.00  0.00    -0.035 A
HETATM   38  C9  UNL     1     -24.730  11.751 -14.644  1.00  0.00     0.009 A
HETATM   39  C10 UNL     1     -24.911  12.755 -13.688  1.00  0.00     0.001 A
HETATM   40  C11 UNL     1     -25.383  13.986 -14.069  1.00  0.00     0.000 A
HETATM   41  C12 UNL     1     -25.678  14.226 -15.394  1.00  0.00     0.001 A
HETATM   42  C13 UNL     1     -25.491  13.217 -16.324  1.00  0.00     0.009 A
ENDBRANCH  36  37
ENDBRANCH  35  36
ENDBRANCH   2  35
TORSDOF 8
ENDMDL