MODEL 4
REMARK VINA RESULT: -8.382153628      1.566      3.104
REMARK  9 active torsions:
REMARK  status: ('A' for Active; 'I' for Inactive)
REMARK    1  A    between atoms: O1_2  and  C2_3
REMARK    2  A    between atoms: C4_5  and  C5_6
REMARK    3  A    between atoms: C12_13  and  O2_14
REMARK    4  A    between atoms: C14_16  and  N1_17
REMARK    5  A    between atoms: C16_22  and  N3_23
REMARK    6  A    between atoms: N3_23  and  C17_25
REMARK    7  A    between atoms: C17_25  and  C18_26
REMARK    8  A    between atoms: C18_26  and  C19_27
REMARK    9  A    between atoms: C19_27  and  N4_28
ROOT
HETATM    1  N1  UNL     1     -27.965   1.474 -11.707  1.00  0.00    -0.336 N
ATOM      2  H1  UNL     1     -28.975   1.343 -11.764  1.00  0.00     0.168 HD
HETATM    3  C15 UNL     1     -27.533   2.467 -12.351  1.00  0.00     0.144 A
HETATM    4  N2  UNL     1     -28.477   3.201 -13.015  1.00  0.00    -0.175 N
ATOM      5  H2  UNL     1     -29.453   2.910 -12.954  1.00  0.00     0.186 HD
HETATM    6  C16 UNL     1     -28.177   4.284 -13.739  1.00  0.00     0.679 A
HETATM    7  N5  UNL     1     -26.883   4.705 -13.845  1.00  0.00    -0.200 N
ATOM      8  H5  UNL     1     -26.647   5.530 -14.397  1.00  0.00     0.183 HD
HETATM    9  C26 UNL     1     -25.936   4.017 -13.214  1.00  0.00     0.133 A
HETATM   10  C27 UNL     1     -26.237   2.891 -12.459  1.00  0.00     0.094 A
HETATM   11 CL1  UNL     1     -24.952   2.021 -11.649  1.00  0.00    -0.079 Cl
ENDROOT
BRANCH   1  12
HETATM   12  C14 UNL     1     -27.306   0.520 -10.928  1.00  0.00     0.101 A
HETATM   13  C2  UNL     1     -26.720  -0.607 -11.517  1.00  0.00     0.098 A
HETATM   14  C3  UNL     1     -26.075  -1.580 -10.810  1.00  0.00     0.046 A
HETATM   15  C4  UNL     1     -25.975  -1.481  -9.435  1.00  0.00    -0.049 A
HETATM   16  C11 UNL     1     -26.545  -0.380  -8.834  1.00  0.00     0.046 A
HETATM   17  C12 UNL     1     -27.196   0.603  -9.546  1.00  0.00     0.098 A
BRANCH  13  18
HETATM   18  O1  UNL     1     -26.822  -0.701 -12.890  1.00  0.00    -0.354 OA
HETATM   19  C1  UNL     1     -25.692  -0.839 -13.731  1.00  0.00     0.210 C
ENDBRANCH  13  18
BRANCH  15  20
HETATM   20  C5  UNL     1     -25.289  -2.500  -8.600  1.00  0.00     0.019 C
HETATM   21  C6  UNL     1     -24.124  -1.859  -7.926  1.00  0.00     0.009 C
HETATM   22  C7  UNL     1     -23.675  -2.516  -6.667  1.00  0.00     0.001 C
HETATM   23  C8  UNL     1     -24.808  -2.920  -5.749  1.00  0.00     0.000 C
HETATM   24  C9  UNL     1     -25.692  -3.876  -6.561  1.00  0.00     0.001 C
HETATM   25  C10 UNL     1     -26.327  -3.035  -7.640  1.00  0.00     0.009 C
ENDBRANCH  15  20
BRANCH  17  26
HETATM   26  O2  UNL     1     -27.761   1.701  -8.916  1.00  0.00    -0.354 OA
HETATM   27  C13 UNL     1     -28.308   1.641  -7.615  1.00  0.00     0.210 C
ENDBRANCH  17  26
ENDBRANCH   1  12
BRANCH   6  28
HETATM   28  N3  UNL     1     -29.035   4.980 -14.360  1.00  0.00    -0.226 N
ATOM     29  H3  UNL     1     -29.668   5.505 -13.757  1.00  0.00     0.177 HD
BRANCH  28  30
HETATM   30  C17 UNL     1     -29.264   5.155 -15.745  1.00  0.00     0.139 C
BRANCH  30  31
HETATM   31  C18 UNL     1     -29.186   6.616 -16.176  1.00  0.00     0.040 C
BRANCH  31  32
HETATM   32  C19 UNL     1     -27.737   6.859 -16.562  1.00  0.00     0.129 C
BRANCH  32  33
HETATM   33  N4  UNL     1     -27.176   7.873 -15.743  1.00  0.00    -0.369 N
HETATM   34  C20 UNL     1     -28.089   8.449 -14.849  1.00  0.00     0.094 C
HETATM   35  C21 UNL     1     -28.325   9.902 -15.166  1.00  0.00     0.156 C
HETATM   36  C22 UNL     1     -29.294  10.101 -16.313  1.00  0.00     0.045 C
HETATM   37  O3  UNL     1     -27.164  10.578 -15.449  1.00  0.00    -0.371 OA
HETATM   38  C23 UNL     1     -26.484  10.044 -16.541  1.00  0.00     0.156 C
HETATM   39  C24 UNL     1     -25.202  10.871 -16.700  1.00  0.00     0.045 C
HETATM   40  C25 UNL     1     -26.110   8.608 -16.266  1.00  0.00     0.094 C
ENDBRANCH  32  33
ENDBRANCH  31  32
ENDBRANCH  30  31
ENDBRANCH  28  30
ENDBRANCH   6  28
TORSDOF 9
ENDMDL