MODEL 2
REMARK VINA RESULT: -7.269035161      2.267      7.097
REMARK  10 active torsions:
REMARK  status: ('A' for Active; 'I' for Inactive)
REMARK    1  A    between atoms: C2_2  and  O1_3
REMARK    2  A    between atoms: O1_3  and  C3_4
REMARK    3  A    between atoms: C3_4  and  C4_6
REMARK    4  A    between atoms: C10_13  and  O3_14
REMARK    5  A    between atoms: N1_16  and  C11_17
REMARK    6  A    between atoms: C11_17  and  C12_18
REMARK    7  A    between atoms: C16_23  and  C17_24
REMARK       I    between atoms: C17_24  and  N2_26
REMARK    8  A    between atoms: N2_26  and  C18_28
REMARK    9  A    between atoms: N3_35  and  C25_36
REMARK   10  A    between atoms: C25_36  and  C26_37
ROOT
HETATM    1  C4  UNL     1     -25.945   2.174 -13.462  1.00  0.00     0.096 C
HETATM    2  C5  UNL     1     -27.392   1.824 -13.216  1.00  0.00     0.054 C
HETATM    3  C6  UNL     1     -27.676   0.377 -13.435  1.00  0.00     0.262 C
HETATM    4  C7  UNL     1     -27.771  -0.305 -12.081  1.00  0.00     0.239 C
HETATM    5  F1  UNL     1     -28.981   0.160 -11.534  1.00  0.00    -0.242 F
HETATM    6  C8  UNL     1     -26.704   0.074 -11.159  1.00  0.00     0.021 A
HETATM    7  C9  UNL     1     -25.528   0.763 -11.437  1.00  0.00     0.010 A
HETATM    8  C10 UNL     1     -24.821   0.935 -10.289  1.00  0.00     0.150 A
HETATM    9  N1  UNL     1     -25.536   0.359  -9.269  1.00  0.00    -0.316 N
HETATM   10  C16 UNL     1     -26.690  -0.172  -9.788  1.00  0.00     0.115 A
HETATM   11  C22 UNL     1     -24.998   1.290 -12.735  1.00  0.00     0.039 C
HETATM   12  C23 UNL     1     -24.561   0.118 -13.569  1.00  0.00     0.041 C
HETATM   13  C24 UNL     1     -25.646  -0.865 -13.866  1.00  0.00     0.273 C
HETATM   14  N3  UNL     1     -26.861  -0.288 -14.386  1.00  0.00     0.096 N
ENDROOT
BRANCH  10  15
HETATM   15  C17 UNL     1     -27.694  -0.905  -9.048  1.00  0.00     0.269 C
HETATM   16  O5  UNL     1     -28.692  -0.223  -8.616  1.00  0.00    -0.266 OA
HETATM   17  N2  UNL     1     -27.722  -2.258  -8.732  1.00  0.00    -0.351 N
ATOM     18  H2  UNL     1     -26.947  -2.840  -9.048  1.00  0.00     0.163 HD
BRANCH  17  19
HETATM   19  C18 UNL     1     -28.788  -2.892  -7.981  1.00  0.00     0.084 C
HETATM   20  C19 UNL     1     -29.073  -4.326  -8.346  1.00  0.00     0.025 C
HETATM   21  C20 UNL     1     -29.429  -4.522  -6.862  1.00  0.00     0.004 C
HETATM   22  C21 UNL     1     -28.429  -3.384  -6.602  1.00  0.00     0.025 C
ENDBRANCH  17  19
ENDBRANCH  10  15
BRANCH   9  23
HETATM   23  C11 UNL     1     -25.113   0.323  -7.914  1.00  0.00     0.196 C
BRANCH  23  24
HETATM   24  C12 UNL     1     -24.379  -0.918  -7.532  1.00  0.00     0.070 A
HETATM   25  C13 UNL     1     -24.515  -1.518  -6.304  1.00  0.00     0.036 A
HETATM   26  C14 UNL     1     -23.704  -2.632  -6.280  1.00  0.00     0.027 A
HETATM   27  C15 UNL     1     -23.109  -2.641  -7.529  1.00  0.00     0.142 A
HETATM   28  O4  UNL     1     -23.537  -1.620  -8.217  1.00  0.00    -0.325 OA
ENDBRANCH  23  24
ENDBRANCH   9  23
BRANCH   8  29
HETATM   29  O3  UNL     1     -23.611   1.568 -10.154  1.00  0.00    -0.345 OA
ATOM     30  H3  UNL     1     -22.989   1.464  -9.444  1.00  0.00     0.219 HD
ENDBRANCH   8  29
BRANCH  14  31
HETATM   31  C25 UNL     1     -27.619  -1.417 -14.947  1.00  0.00     0.277 C
BRANCH  31  32
HETATM   32  C26 UNL     1     -26.757  -2.303 -15.816  1.00  0.00     0.014 A
HETATM   33  C27 UNL     1     -27.182  -2.761 -17.144  1.00  0.00     0.007 A
HETATM   34  C28 UNL     1     -26.126  -1.678 -17.064  1.00  0.00     0.007 A
ENDBRANCH  31  32
ENDBRANCH  14  31
BRANCH   1  35
HETATM   35  C3  UNL     1     -25.733   3.584 -13.072  1.00  0.00     0.263 C
HETATM   36  O2  UNL     1     -24.618   4.172 -13.147  1.00  0.00    -0.265 OA
BRANCH  35  37
HETATM   37  O1  UNL     1     -26.780   4.378 -12.582  1.00  0.00    -0.322 OA
BRANCH  37  38
HETATM   38  C2  UNL     1     -27.206   5.568 -13.178  1.00  0.00     0.174 C
HETATM   39  C1  UNL     1     -28.144   5.369 -14.322  1.00  0.00     0.034 C
ENDBRANCH  37  38
ENDBRANCH  35  37
ENDBRANCH   1  35
TORSDOF 10
ENDMDL