MODEL 3
REMARK VINA RESULT: -8.071048426      4.512      6.696
REMARK  10 active torsions:
REMARK  status: ('A' for Active; 'I' for Inactive)
REMARK    1  A    between atoms: C2_2  and  O1_3
REMARK    2  A    between atoms: O1_3  and  C3_4
REMARK    3  A    between atoms: C6_7  and  N1_8
REMARK       I    between atoms: N1_8  and  C7_10
REMARK    4  A    between atoms: C7_10  and  O3_12
REMARK    5  A    between atoms: O3_12  and  C8_13
REMARK    6  A    between atoms: N2_19  and  C14_20
REMARK    7  A    between atoms: C17_25  and  N4_26
REMARK    8  A    between atoms: N4_26  and  C18_28
REMARK    9  A    between atoms: C18_28  and  C19_29
REMARK   10  A    between atoms: C19_29  and  C22_32
ROOT
HETATM    1  C8  UNL     1     -27.280   4.698 -13.198  1.00  0.00     0.131 C
HETATM    2  C9  UNL     1     -26.958   5.412 -11.907  1.00  0.00     0.049 C
HETATM    3  C10 UNL     1     -26.121   6.658 -12.099  1.00  0.00     0.029 C
HETATM    4  C11 UNL     1     -25.830   6.830 -13.564  1.00  0.00     0.093 C
HETATM    5  C12 UNL     1     -25.134   5.573 -14.039  1.00  0.00     0.029 C
HETATM    6  C13 UNL     1     -25.975   4.325 -13.867  1.00  0.00     0.049 C
HETATM    7  N2  UNL     1     -27.158   6.918 -14.207  1.00  0.00    -0.314 N
HETATM    8  C24 UNL     1     -27.899   5.712 -14.104  1.00  0.00     0.132 C
HETATM    9  N6  UNL     1     -28.993   5.552 -14.747  1.00  0.00    -0.285 N
ATOM     10  H6  UNL     1     -29.311   6.323 -15.335  1.00  0.00     0.182 HD
HETATM   11 CL1  UNL     1     -29.967   4.141 -14.695  1.00  0.00     0.012 Cl
ENDROOT
BRANCH   7  12
HETATM   12  C14 UNL     1     -27.578   8.092 -14.830  1.00  0.00     0.126 A
HETATM   13  C15 UNL     1     -28.729   8.116 -15.585  1.00  0.00     0.067 A
HETATM   14  C16 UNL     1     -29.150   9.296 -16.208  1.00  0.00     0.110 A
HETATM   15  N3  UNL     1     -28.411  10.400 -16.055  1.00  0.00    -0.202 N
HETATM   16  C17 UNL     1     -27.290  10.392 -15.323  1.00  0.00     0.679 A
ATOM     17  H3  UNL     1     -28.708  11.265 -16.505  1.00  0.00     0.183 HD
HETATM   18  N5  UNL     1     -26.902   9.244 -14.731  1.00  0.00    -0.176 N
ATOM     19  H5  UNL     1     -26.046   9.254 -14.177  1.00  0.00     0.186 HD
BRANCH  16  20
HETATM   20  N4  UNL     1     -26.583  11.486 -15.187  1.00  0.00    -0.225 N
ATOM     21  H4  UNL     1     -27.058  12.373 -15.018  1.00  0.00     0.177 HD
BRANCH  20  22
HETATM   22  C18 UNL     1     -25.137  11.457 -15.273  1.00  0.00     0.146 C
BRANCH  22  23
HETATM   23  C19 UNL     1     -24.526  12.763 -14.824  1.00  0.00    -0.032 C
HETATM   24  C20 UNL     1     -24.712  13.801 -15.903  1.00  0.00     0.016 C
HETATM   25  C21 UNL     1     -25.296  13.285 -13.603  1.00  0.00     0.016 C
BRANCH  23  26
HETATM   26  C22 UNL     1     -23.101  12.617 -14.398  1.00  0.00     0.006 C
HETATM   27  C23 UNL     1     -22.946  12.174 -12.972  1.00  0.00     0.006 C
ENDBRANCH  23  26
ENDBRANCH  22  23
ENDBRANCH  20  22
ENDBRANCH  16  20
ENDBRANCH   7  12
BRANCH   1  28
HETATM   28  O3  UNL     1     -28.110   3.640 -12.923  1.00  0.00    -0.285 OA
BRANCH  28  29
HETATM   29  C7  UNL     1     -27.857   2.329 -12.675  1.00  0.00     0.362 C
HETATM   30  N1  UNL     1     -27.847   1.298 -13.660  1.00  0.00    -0.332 N
ATOM     31  H1  UNL     1     -28.041   1.537 -14.632  1.00  0.00     0.165 HD
HETATM   32  O2  UNL     1     -27.614   2.034 -11.467  1.00  0.00    -0.238 OA
BRANCH  30  33
HETATM   33  C6  UNL     1     -27.572  -0.068 -13.316  1.00  0.00     0.086 C
HETATM   34  C5  UNL     1     -28.131  -1.043 -14.331  1.00  0.00     0.028 C
HETATM   35  C4  UNL     1     -27.199  -2.229 -14.364  1.00  0.00     0.034 C
HETATM   36  C3  UNL     1     -25.869  -1.820 -14.962  1.00  0.00     0.121 C
HETATM   37  C26 UNL     1     -25.318  -0.609 -14.268  1.00  0.00     0.034 C
HETATM   38  C25 UNL     1     -26.115  -0.347 -13.034  1.00  0.00     0.028 C
BRANCH  36  39
HETATM   39  O1  UNL     1     -24.984  -2.881 -14.968  1.00  0.00    -0.386 OA
BRANCH  39  40
HETATM   40  C2  UNL     1     -24.575  -3.158 -16.249  1.00  0.00     0.163 C
HETATM   41  C1  UNL     1     -23.131  -2.735 -16.449  1.00  0.00     0.033 C
ENDBRANCH  39  40
ENDBRANCH  36  39
ENDBRANCH  30  33
ENDBRANCH  28  29
ENDBRANCH   1  28
TORSDOF 10
ENDMDL