MODEL 1
REMARK VINA RESULT: -8.530192392      0.000      0.000
REMARK  10 active torsions:
REMARK  status: ('A' for Active; 'I' for Inactive)
REMARK    1  A    between atoms: C2_2  and  N1_3
REMARK    2  A    between atoms: C5_6  and  N2_7
REMARK    3  A    between atoms: C13_17  and  N4_18
REMARK    4  A    between atoms: N4_18  and  C14_20
REMARK    5  A    between atoms: C17_23  and  N5_24
REMARK    6  A    between atoms: N5_24  and  N6_26
REMARK    7  A    between atoms: C20_30  and  N7_31
REMARK    8  A    between atoms: N7_31  and  C21_32
REMARK    9  A    between atoms: N7_31  and  C23_34
REMARK   10  A    between atoms: C23_34  and  C24_35
ROOT
HETATM    1  N2  UNL     1     -27.537   7.290 -16.157  1.00  0.00    -0.361 N
HETATM    2  C6  UNL     1     -27.929   7.320 -17.536  1.00  0.00     0.134 C
HETATM    3  C7  UNL     1     -29.226   6.645 -17.830  1.00  0.00    -0.027 C
HETATM    4  C8  UNL     1     -29.041   5.456 -18.785  1.00  0.00     0.016 C
HETATM    5  C9  UNL     1     -30.103   7.632 -18.605  1.00  0.00     0.016 C
HETATM    6  C10 UNL     1     -30.001   6.213 -16.634  1.00  0.00     0.054 C
HETATM    7  C11 UNL     1     -29.175   5.651 -15.556  1.00  0.00     0.003 A
HETATM    8  C12 UNL     1     -29.583   4.586 -14.754  1.00  0.00     0.117 A
HETATM    9  N3  UNL     1     -28.748   4.141 -13.785  1.00  0.00    -0.201 N
ATOM     10  H3  UNL     1     -29.045   3.363 -13.197  1.00  0.00     0.183 HD
HETATM   11  C13 UNL     1     -27.542   4.691 -13.575  1.00  0.00     0.684 A
HETATM   12  N8  UNL     1     -27.156   5.717 -14.351  1.00  0.00    -0.176 N
ATOM     13  H8  UNL     1     -26.240   6.139 -14.194  1.00  0.00     0.186 HD
HETATM   14  C25 UNL     1     -27.940   6.206 -15.331  1.00  0.00     0.127 A
ENDROOT
BRANCH  11  15
HETATM   15  N4  UNL     1     -26.811   4.203 -12.636  1.00  0.00    -0.189 N
ATOM     16  H4  UNL     1     -25.904   4.642 -12.480  1.00  0.00     0.184 HD
BRANCH  15  17
HETATM   17  C14 UNL     1     -27.146   3.128 -11.812  1.00  0.00     0.075 A
HETATM   18  C15 UNL     1     -28.021   3.327 -10.760  1.00  0.00     0.034 A
HETATM   19  C16 UNL     1     -28.394   2.293  -9.897  1.00  0.00     0.033 A
HETATM   20  C17 UNL     1     -27.871   1.021 -10.100  1.00  0.00     0.052 A
HETATM   21  C19 UNL     1     -26.998   0.835 -11.154  1.00  0.00     0.062 A
HETATM   22  C20 UNL     1     -26.629   1.857 -12.008  1.00  0.00     0.060 A
BRANCH  20  23
HETATM   23  N5  UNL     1     -28.237  -0.048  -9.239  1.00  0.00    -0.303 N
HETATM   24  C18 UNL     1     -27.622  -1.349  -9.376  1.00  0.00     0.177 C
BRANCH  23  25
HETATM   25  N6  UNL     1     -29.202   0.148  -8.248  1.00  0.00    -0.343 N
ATOM     26  H62 UNL     1     -29.392   1.095  -7.921  1.00  0.00     0.177 HD
ATOM     27  H61 UNL     1     -29.705  -0.648  -7.858  1.00  0.00     0.177 HD
ENDBRANCH  23  25
ENDBRANCH  20  23
BRANCH  22  28
HETATM   28  N7  UNL     1     -25.726   1.560 -13.062  1.00  0.00    -0.378 N
BRANCH  28  29
HETATM   29  C21 UNL     1     -24.368   2.072 -12.991  1.00  0.00     0.118 C
HETATM   30  C22 UNL     1     -24.175   3.204 -13.974  1.00  0.00     0.026 C
ENDBRANCH  28  29
BRANCH  28  31
HETATM   31  C23 UNL     1     -26.056   0.760 -14.224  1.00  0.00     0.138 C
BRANCH  31  32
HETATM   32  C24 UNL     1     -25.092  -0.374 -14.372  1.00  0.00     0.134 C
HETATM   33 CL1  UNL     1     -25.797  -1.841 -13.608  1.00  0.00    -0.129 Cl
ENDBRANCH  31  32
ENDBRANCH  28  31
ENDBRANCH  22  28
ENDBRANCH  15  17
ENDBRANCH  11  15
BRANCH   1  34
HETATM   34  C5  UNL     1     -26.721   8.345 -15.553  1.00  0.00     0.089 C
HETATM   35  C4  UNL     1     -25.659   8.715 -16.555  1.00  0.00     0.055 C
HETATM   36  C3  UNL     1     -25.392  10.213 -16.583  1.00  0.00     0.274 C
HETATM   37  N1  UNL     1     -25.521  10.706 -15.242  1.00  0.00     0.088 N
HETATM   38  C27 UNL     1     -26.900  10.726 -14.797  1.00  0.00     0.274 C
HETATM   39  C26 UNL     1     -27.647   9.480 -15.205  1.00  0.00     0.055 C
BRANCH  37  40
HETATM   40  C2  UNL     1     -24.906  12.015 -15.132  1.00  0.00     0.268 C
HETATM   41  C1  UNL     1     -25.729  13.068 -15.847  1.00  0.00     0.037 C
ENDBRANCH  37  40
ENDBRANCH   1  34
TORSDOF 10
ENDMDL