MODEL 5
REMARK VINA RESULT: -7.852927687      1.392      2.169
REMARK  9 active torsions:
REMARK  status: ('A' for Active; 'I' for Inactive)
REMARK    1  A    between atoms: C7_8  and  N1_9
REMARK    2  A    between atoms: N1_9  and  C8_11
REMARK    3  A    between atoms: N5_21  and  C12_23
REMARK    4  A    between atoms: C12_23  and  C13_24
REMARK    5  A    between atoms: C13_24  and  C14_25
REMARK    6  A    between atoms: C14_25  and  C15_26
REMARK    7  A    between atoms: C15_26  and  N6_27
REMARK    8  A    between atoms: N6_27  and  C17_29
REMARK    9  A    between atoms: C17_29  and  C18_30
ROOT
HETATM    1  C8  UNL     1     -27.393  -0.213  -9.396  1.00  0.00     0.122 A
HETATM    2  N2  UNL     1     -27.875   0.172  -8.213  1.00  0.00    -0.338 N
ATOM      3  H2  UNL     1     -27.947  -0.504  -7.452  1.00  0.00     0.168 HD
HETATM    4  C9  UNL     1     -28.265   1.437  -8.013  1.00  0.00     0.183 A
HETATM    5  N3  UNL     1     -28.185   2.353  -8.990  1.00  0.00    -0.338 N
ATOM      6  H3  UNL     1     -28.483   3.314  -8.828  1.00  0.00     0.168 HD
HETATM    7  C10 UNL     1     -27.704   1.976 -10.182  1.00  0.00     0.123 A
HETATM    8  N4  UNL     1     -27.586   2.829 -11.223  1.00  0.00    -0.326 N
ATOM      9  H4  UNL     1     -27.881   3.794 -11.076  1.00  0.00     0.169 HD
HETATM   10  C11 UNL     1     -27.112   2.505 -12.433  1.00  0.00     0.138 A
HETATM   11  N5  UNL     1     -27.031   3.386 -13.369  1.00  0.00    -0.374 N
ATOM     12  H5  UNL     1     -26.659   3.059 -14.260  1.00  0.00     0.161 HD
HETATM   13  C22 UNL     1     -26.688   1.197 -12.705  1.00  0.00     0.131 A
HETATM   14  C23 UNL     1     -26.794   0.309 -11.669  1.00  0.00     0.057 A
HETATM   15  C24 UNL     1     -27.279   0.672 -10.457  1.00  0.00     0.072 A
HETATM   16  S1  UNL     1     -26.170  -1.228 -12.321  1.00  0.00    -0.099 SA
HETATM   17  C25 UNL     1     -25.342  -0.419 -13.766  1.00  0.00     0.255 C
HETATM   18  O2  UNL     1     -26.188   0.702 -13.862  1.00  0.00    -0.336 OA
ENDROOT
BRANCH  11  19
HETATM   19  C12 UNL     1     -27.397   4.756 -13.311  1.00  0.00     0.121 C
BRANCH  19  20
HETATM   20  C13 UNL     1     -26.156   5.591 -13.187  1.00  0.00     0.025 C
BRANCH  20  21
HETATM   21  C14 UNL     1     -26.378   7.029 -12.876  1.00  0.00     0.046 C
BRANCH  21  22
HETATM   22  C15 UNL     1     -27.260   7.809 -13.769  1.00  0.00     0.058 C
BRANCH  22  23
HETATM   23  N6  UNL     1     -26.770   8.292 -14.985  1.00  0.00    -0.395 N
HETATM   24  C16 UNL     1     -26.443   9.656 -15.149  1.00  0.00     0.148 C
BRANCH  23  25
HETATM   25  C17 UNL     1     -27.150   7.617 -16.183  1.00  0.00     0.153 C
BRANCH  25  26
HETATM   26  C18 UNL     1     -28.552   7.091 -16.062  1.00  0.00     0.139 C
HETATM   27  C19 UNL     1     -29.525   7.977 -16.794  1.00  0.00     0.035 C
HETATM   28  C20 UNL     1     -29.699   7.235 -18.100  1.00  0.00     0.029 C
HETATM   29  C21 UNL     1     -29.332   5.839 -17.738  1.00  0.00     0.168 C
HETATM   30  O1  UNL     1     -28.647   5.829 -16.554  1.00  0.00    -0.384 OA
ENDBRANCH  25  26
ENDBRANCH  23  25
ENDBRANCH  22  23
ENDBRANCH  21  22
ENDBRANCH  20  21
ENDBRANCH  19  20
ENDBRANCH  11  19
BRANCH   1  31
HETATM   31  N1  UNL     1     -27.004  -1.428  -9.638  1.00  0.00    -0.341 N
ATOM     32  H1  UNL     1     -26.631  -1.670 -10.557  1.00  0.00     0.167 HD
BRANCH  31  33
HETATM   33  C7  UNL     1     -27.095  -2.409  -8.638  1.00  0.00     0.041 A
HETATM   34  C2  UNL     1     -25.974  -2.726  -7.912  1.00  0.00    -0.013 A
HETATM   35  C1  UNL     1     -24.673  -2.045  -8.176  1.00  0.00     0.052 C
HETATM   36  C3  UNL     1     -26.082  -3.689  -6.936  1.00  0.00     0.042 A
HETATM   37 CL1  UNL     1     -24.666  -4.115  -5.994  1.00  0.00    -0.084 Cl
HETATM   38  C4  UNL     1     -27.295  -4.315  -6.702  1.00  0.00     0.024 A
HETATM   39  C5  UNL     1     -28.418  -3.982  -7.444  1.00  0.00     0.004 A
HETATM   40  C6  UNL     1     -28.320  -3.017  -8.425  1.00  0.00     0.030 A
ENDBRANCH  31  33
ENDBRANCH   1  31
TORSDOF 9
ENDMDL