MODEL 4
REMARK VINA RESULT: -6.040305938      2.476      4.774
REMARK  10 active torsions:
REMARK  status: ('A' for Active; 'I' for Inactive)
REMARK    1  A    between atoms: C2_2  and  C3_3
REMARK    2  A    between atoms: C3_3  and  C4_4
REMARK    3  A    between atoms: C4_4  and  C5_5
REMARK    4  A    between atoms: C5_5  and  C6_6
REMARK    5  A    between atoms: C6_6  and  C7_7
REMARK    6  A    between atoms: C7_7  and  C9_9
REMARK    7  A    between atoms: C19_23  and  O4_24
REMARK    8  A    between atoms: C19_23  and  C20_26
REMARK    9  A    between atoms: C23_29  and  C24_30
REMARK   10  A    between atoms: C28_36  and  O7_37
ROOT
HETATM    1  C9  UNL     1     -28.007  -0.603  -6.279  1.00  0.00     0.023 C
HETATM    2  C10 UNL     1     -28.089  -1.775  -5.387  1.00  0.00     0.076 C
HETATM    3  C11 UNL     1     -27.914  -1.666  -3.897  1.00  0.00     0.029 C
HETATM    4  C12 UNL     1     -29.221  -2.722  -5.432  1.00  0.00     0.270 C
HETATM    5  O1  UNL     1     -30.464  -2.834  -5.364  1.00  0.00    -0.264 OA
HETATM    6  O2  UNL     1     -28.231  -3.718  -5.625  1.00  0.00    -0.313 OA
HETATM    7  C13 UNL     1     -27.211  -2.765  -5.966  1.00  0.00     0.159 C
HETATM    8  C14 UNL     1     -27.131  -2.366  -7.437  1.00  0.00    -0.002 C
HETATM    9  C15 UNL     1     -28.352  -2.995  -8.010  1.00  0.00     0.019 C
HETATM   10  C16 UNL     1     -26.032  -3.136  -8.028  1.00  0.00     0.040 C
HETATM   11  C17 UNL     1     -24.710  -2.605  -8.330  1.00  0.00     0.156 C
HETATM   12 CL1  UNL     1     -23.328  -3.608  -7.848  1.00  0.00    -0.117 Cl
HETATM   13  C18 UNL     1     -24.608  -1.177  -7.995  1.00  0.00     0.180 C
HETATM   14  O3  UNL     1     -23.581  -0.647  -8.407  1.00  0.00    -0.293 OA
HETATM   15  C19 UNL     1     -25.631  -0.411  -7.233  1.00  0.00     0.132 C
HETATM   16  C23 UNL     1     -27.045  -0.806  -7.442  1.00  0.00     0.021 C
ENDROOT
BRANCH  16  17
HETATM   17  C24 UNL     1     -27.635  -0.416  -8.795  1.00  0.00     0.052 C
HETATM   18  C25 UNL     1     -28.755   0.561  -8.901  1.00  0.00     0.186 C
HETATM   19  O5  UNL     1     -28.439   1.910  -9.160  1.00  0.00    -0.321 OA
HETATM   20  C26 UNL     1     -27.880   2.148 -10.443  1.00  0.00     0.261 C
HETATM   21  O6  UNL     1     -27.767   3.279 -10.944  1.00  0.00    -0.265 OA
HETATM   22  C27 UNL     1     -27.494   0.850 -10.995  1.00  0.00     0.143 C
HETATM   23  C28 UNL     1     -26.803  -0.074  -9.936  1.00  0.00     0.134 C
BRANCH  23  24
HETATM   24  O7  UNL     1     -26.554  -1.103 -10.895  1.00  0.00    -0.395 OA
ATOM     25  H7  UNL     1     -25.673  -1.165 -11.247  1.00  0.00     0.210 HD
ENDBRANCH  23  24
ENDBRANCH  16  17
BRANCH   1  26
HETATM   26  C7  UNL     1     -28.515   0.655  -5.753  1.00  0.00    -0.012 C
HETATM   27  C8  UNL     1     -27.942   1.426  -4.602  1.00  0.00     0.010 C
BRANCH  26  28
HETATM   28  C6  UNL     1     -29.907   0.444  -5.068  1.00  0.00     0.005 C
BRANCH  28  29
HETATM   29  C5  UNL     1     -30.189   1.509  -4.051  1.00  0.00     0.000 C
BRANCH  29  30
HETATM   30  C4  UNL     1     -31.529   1.220  -3.432  1.00  0.00     0.000 C
BRANCH  30  31
HETATM   31  C3  UNL     1     -32.018  -0.144  -3.767  1.00  0.00    -0.000 C
BRANCH  31  32
HETATM   32  C2  UNL     1     -33.520  -0.171  -3.477  1.00  0.00    -0.005 C
HETATM   33  C1  UNL     1     -33.884   1.093  -2.751  1.00  0.00     0.005 C
ENDBRANCH  31  32
ENDBRANCH  30  31
ENDBRANCH  29  30
ENDBRANCH  28  29
ENDBRANCH  26  28
ENDBRANCH   1  26
BRANCH  15  34
HETATM   34  O4  UNL     1     -25.615   0.884  -7.904  1.00  0.00    -0.381 OA
ATOM     35  H4  UNL     1     -24.695   0.991  -8.117  1.00  0.00     0.211 HD
ENDBRANCH  15  34
BRANCH  15  36
HETATM   36  C20 UNL     1     -24.907  -0.029  -6.058  1.00  0.00     0.020 C
HETATM   37  C21 UNL     1     -23.947   1.197  -6.241  1.00  0.00     0.013 C
HETATM   38  C22 UNL     1     -23.908  -0.941  -5.350  1.00  0.00     0.013 C
ENDBRANCH  15  36
TORSDOF 10
ENDMDL