MODEL 4
REMARK VINA RESULT: -8.542409793      2.990      4.054
REMARK  9 active torsions:
REMARK  status: ('A' for Active; 'I' for Inactive)
REMARK    1  A    between atoms: C2_2  and  C3_3
REMARK    2  A    between atoms: C3_3  and  C4_4
REMARK    3  A    between atoms: C6_9  and  O1_10
REMARK    4  A    between atoms: N2_12  and  C7_13
REMARK    5  A    between atoms: C12_18  and  N3_19
REMARK       I    between atoms: N3_19  and  C13_21
REMARK    6  A    between atoms: C13_21  and  C14_23
REMARK    7  A    between atoms: C14_23  and  N4_24
REMARK    8  A    between atoms: C16_26  and  C17_27
REMARK    9  A    between atoms: C17_27  and  C18_28
ROOT
HETATM    1  C7  UNL     1     -26.402   8.027 -16.420  1.00  0.00     0.046 C
HETATM    2  C8  UNL     1     -25.472   7.734 -17.616  1.00  0.00     0.032 C
HETATM    3  C9  UNL     1     -25.741   6.279 -17.961  1.00  0.00     0.009 C
HETATM    4  C10 UNL     1     -26.666   5.826 -16.865  1.00  0.00     0.011 C
HETATM    5  C11 UNL     1     -27.519   7.111 -16.719  1.00  0.00     0.038 C
HETATM    6  C12 UNL     1     -25.918   5.853 -15.561  1.00  0.00     0.094 C
HETATM    7  C23 UNL     1     -25.736   7.327 -15.249  1.00  0.00     0.033 C
HETATM    8  C24 UNL     1     -26.357   7.717 -13.935  1.00  0.00     0.014 C
ENDROOT
BRANCH   6   9
HETATM    9  N3  UNL     1     -26.660   5.156 -14.557  1.00  0.00    -0.354 N
HETATM   10  C13 UNL     1     -25.998   4.454 -13.512  1.00  0.00     0.237 C
HETATM   11  O2  UNL     1     -24.746   4.445 -13.470  1.00  0.00    -0.272 OA
ATOM     12  H3  UNL     1     -27.680   5.162 -14.590  1.00  0.00     0.162 HD
BRANCH  10  13
HETATM   13  C14 UNL     1     -26.768   3.734 -12.473  1.00  0.00     0.252 C
BRANCH  13  14
HETATM   14  N4  UNL     1     -26.984   2.360 -12.882  1.00  0.00    -0.278 N
HETATM   15  C15 UNL     1     -26.134   1.363 -12.719  1.00  0.00     0.138 A
HETATM   16  C16 UNL     1     -26.727   0.224 -13.247  1.00  0.00     0.044 A
HETATM   17  N5  UNL     1     -27.934   0.609 -13.709  1.00  0.00    -0.289 N
HETATM   18  N6  UNL     1     -28.064   1.902 -13.476  1.00  0.00    -0.240 N
ATOM     19  H5  UNL     1     -28.625   0.008 -14.159  1.00  0.00     0.188 HD
ATOM     20  H6  UNL     1     -28.880   2.463 -13.721  1.00  0.00     0.208 HD
BRANCH  16  21
HETATM   21  C17 UNL     1     -26.098  -1.112 -13.274  1.00  0.00     0.064 C
BRANCH  21  22
HETATM   22  C18 UNL     1     -25.849  -1.647 -14.635  1.00  0.00    -0.009 C
HETATM   23  C19 UNL     1     -25.282  -3.034 -14.612  1.00  0.00     0.005 C
HETATM   24  C20 UNL     1     -24.425  -3.147 -15.863  1.00  0.00     0.000 C
HETATM   25  C21 UNL     1     -24.537  -1.826 -16.579  1.00  0.00     0.000 C
HETATM   26  C22 UNL     1     -24.827  -0.864 -15.434  1.00  0.00     0.005 C
ENDBRANCH  21  22
ENDBRANCH  16  21
ENDBRANCH  13  14
ENDBRANCH  10  13
ENDBRANCH   6   9
BRANCH   1  27
HETATM   27  N2  UNL     1     -26.657   9.398 -16.254  1.00  0.00    -0.304 N
HETATM   28  C4  UNL     1     -27.785  10.080 -16.024  1.00  0.00     0.087 A
HETATM   29  N1  UNL     1     -27.447  11.404 -15.963  1.00  0.00    -0.336 N
HETATM   30  C5  UNL     1     -26.136  11.559 -16.147  1.00  0.00     0.132 A
ATOM     31  H1  UNL     1     -28.106  12.165 -15.799  1.00  0.00     0.168 HD
HETATM   32 BR1  UNL     1     -25.206  13.229 -16.146  1.00  0.00    -0.026 Br
HETATM   33  C6  UNL     1     -25.627  10.296 -16.332  1.00  0.00     0.179 A
BRANCH  28  34
HETATM   34  C3  UNL     1     -29.116   9.494 -15.878  1.00  0.00     0.076 C
BRANCH  34  35
HETATM   35  C2  UNL     1     -29.961   9.979 -17.075  1.00  0.00     0.003 C
HETATM   36  C1  UNL     1     -29.382   9.322 -18.307  1.00  0.00     0.005 C
ENDBRANCH  34  35
ENDBRANCH  28  34
BRANCH  33  37
HETATM   37  O1  UNL     1     -24.281  10.062 -16.555  1.00  0.00    -0.344 OA
ATOM     38  H1  UNL     1     -23.868  10.216 -17.397  1.00  0.00     0.219 HD
ENDBRANCH  33  37
ENDBRANCH   1  27
TORSDOF 9
ENDMDL