MODEL 3
REMARK VINA RESULT: -9.255973974      3.290     10.114
REMARK  10 active torsions:
REMARK  status: ('A' for Active; 'I' for Inactive)
REMARK    1  A    between atoms: C2_2  and  N1_3
REMARK    2  A    between atoms: N1_3  and  C3_5
REMARK    3  A    between atoms: C5_12  and  N4_13
REMARK    4  A    between atoms: N4_13  and  C6_15
REMARK    5  A    between atoms: C9_18  and  O1_19
REMARK    6  A    between atoms: O1_19  and  C10_20
REMARK    7  A    between atoms: C10_20  and  C11_21
REMARK    8  A    between atoms: C11_21  and  C14_24
REMARK    9  A    between atoms: C17_27  and  N5_28
REMARK   10  A    between atoms: C25_36  and  O2_37
ROOT
HETATM    1  C6  UNL     1     -28.222   4.403 -13.944  1.00  0.00     0.052 A
HETATM    2  C7  UNL     1     -29.475   4.654 -14.447  1.00  0.00     0.033 A
HETATM    3  C8  UNL     1     -29.604   5.438 -15.585  1.00  0.00     0.042 A
HETATM    4  C9  UNL     1     -28.528   5.987 -16.246  1.00  0.00     0.102 A
HETATM    5  C25 UNL     1     -27.259   5.700 -15.688  1.00  0.00     0.103 A
HETATM    6  C27 UNL     1     -27.120   4.932 -14.572  1.00  0.00     0.069 A
ENDROOT
BRANCH   4   7
HETATM    7  O1  UNL     1     -28.591   6.720 -17.304  1.00  0.00    -0.348 OA
BRANCH   7   8
HETATM    8  C10 UNL     1     -28.755   7.663 -18.180  1.00  0.00     0.185 C
BRANCH   8   9
HETATM    9  C11 UNL     1     -28.945   9.059 -17.622  1.00  0.00    -0.022 C
HETATM   10  C12 UNL     1     -30.218   9.189 -16.834  1.00  0.00     0.017 C
HETATM   11  C13 UNL     1     -29.081  10.002 -18.828  1.00  0.00     0.017 C
BRANCH   9  12
HETATM   12  C14 UNL     1     -27.765   9.537 -16.831  1.00  0.00    -0.005 C
HETATM   13  C15 UNL     1     -26.442   9.021 -17.265  1.00  0.00     0.007 C
HETATM   14  C16 UNL     1     -25.324   9.922 -16.762  1.00  0.00     0.036 C
HETATM   15  C17 UNL     1     -25.582  10.337 -15.325  1.00  0.00     0.223 C
HETATM   16  C23 UNL     1     -26.545   9.355 -14.717  1.00  0.00     0.036 C
HETATM   17  C24 UNL     1     -27.920   9.380 -15.345  1.00  0.00     0.007 C
BRANCH  15  18
HETATM   18  N5  UNL     1     -26.014  11.688 -15.294  1.00  0.00     0.093 N
HETATM   19  C18 UNL     1     -25.566  12.464 -14.192  1.00  0.00     0.273 C
HETATM   20  C19 UNL     1     -24.074  12.752 -14.271  1.00  0.00     0.030 C
HETATM   21  C20 UNL     1     -23.909  13.759 -15.417  1.00  0.00     0.003 C
HETATM   22  C21 UNL     1     -25.095  13.714 -16.347  1.00  0.00     0.030 C
HETATM   23  C22 UNL     1     -25.652  12.331 -16.525  1.00  0.00     0.273 C
ENDBRANCH  15  18
ENDBRANCH   9  12
ENDBRANCH   8   9
ENDBRANCH   7   8
ENDBRANCH   4   7
BRANCH   5  24
HETATM   24  O2  UNL     1     -26.152   6.226 -16.315  1.00  0.00    -0.353 OA
HETATM   25  C26 UNL     1     -25.614   5.552 -17.433  1.00  0.00     0.210 C
ENDBRANCH   5  24
BRANCH   1  26
HETATM   26  N4  UNL     1     -28.122   3.606 -12.779  1.00  0.00    -0.191 N
ATOM     27  H4  UNL     1     -28.582   3.929 -11.929  1.00  0.00     0.184 HD
BRANCH  26  28
HETATM   28  C5  UNL     1     -27.477   2.488 -12.742  1.00  0.00     0.699 A
HETATM   29  N3  UNL     1     -27.846   1.373 -13.394  1.00  0.00    -0.164 N
HETATM   30  C4  UNL     1     -27.151   0.223 -13.335  1.00  0.00     0.208 A
ATOM     31  H3  UNL     1     -28.694   1.399 -13.961  1.00  0.00     0.186 HD
HETATM   32  N2  UNL     1     -26.040   0.191 -12.591  1.00  0.00    -0.165 N
HETATM   33 CL1  UNL     1     -27.635  -1.225 -14.183  1.00  0.00    -0.044 Cl
HETATM   34  C3  UNL     1     -25.625   1.300 -11.911  1.00  0.00     0.695 A
ATOM     35  H2  UNL     1     -25.497  -0.670 -12.533  1.00  0.00     0.186 HD
HETATM   36  N6  UNL     1     -26.357   2.425 -12.004  1.00  0.00    -0.022 N
ATOM     37  H6  UNL     1     -26.051   3.257 -11.499  1.00  0.00     0.203 HD
BRANCH  34  38
HETATM   38  N1  UNL     1     -24.546   1.242 -11.199  1.00  0.00    -0.226 N
ATOM     39  H1  UNL     1     -23.645   1.135 -11.665  1.00  0.00     0.177 HD
BRANCH  38  40
HETATM   40  C2  UNL     1     -24.592   1.324  -9.773  1.00  0.00     0.133 C
HETATM   41  C1  UNL     1     -25.325   0.117  -9.221  1.00  0.00     0.027 C
ENDBRANCH  38  40
ENDBRANCH  34  38
ENDBRANCH  26  28
ENDBRANCH   1  26
TORSDOF 10
ENDMDL