MODEL 4
REMARK VINA RESULT: -6.724385770      2.900      4.425
REMARK  6 active torsions:
REMARK  status: ('A' for Active; 'I' for Inactive)
REMARK    1  A    between atoms: O1_2  and  C2_3
REMARK    2  A    between atoms: C4_5  and  O2_6
REMARK    3  A    between atoms: O2_6  and  C5_7
REMARK    4  A    between atoms: C5_7  and  C6_8
REMARK    5  A    between atoms: C8_10  and  O3_11
REMARK    6  A    between atoms: C9_13  and  O4_14
ROOT
HETATM    1  C2  UNL     1      18.075 -33.669 -11.280  1.00  0.00     0.092 A
HETATM    2  C3  UNL     1      18.074 -34.547 -10.218  1.00  0.00     0.076 A
HETATM    3  C4  UNL     1      18.803 -34.353  -9.079  1.00  0.00     0.093 A
HETATM    4  C14 UNL     1      19.577 -33.216  -8.994  1.00  0.00     0.074 A
HETATM    5 CL2  UNL     1      20.510 -32.966  -7.538  1.00  0.00    -0.081 Cl
HETATM    6  C15 UNL     1      19.616 -32.289 -10.044  1.00  0.00    -0.014 A
HETATM    7  C16 UNL     1      20.466 -31.078  -9.906  1.00  0.00     0.052 C
HETATM    8  C17 UNL     1      18.857 -32.541 -11.171  1.00  0.00     0.085 A
HETATM    9  C18 UNL     1      18.866 -31.629 -12.259  1.00  0.00     0.103 C
HETATM   10  N1  UNL     1      18.867 -30.881 -13.122  1.00  0.00    -0.191 NA
ENDROOT
BRANCH   1  11
HETATM   11  O1  UNL     1      17.313 -33.923 -12.410  1.00  0.00    -0.354 OA
HETATM   12  C1  UNL     1      16.830 -35.231 -12.621  1.00  0.00     0.210 C
ENDBRANCH   1  11
BRANCH   3  13
HETATM   13  O2  UNL     1      18.771 -35.263  -8.036  1.00  0.00    -0.348 OA
BRANCH  13  14
HETATM   14  C5  UNL     1      18.505 -36.635  -8.259  1.00  0.00     0.188 C
BRANCH  14  15
HETATM   15  C6  UNL     1      19.591 -37.471  -7.634  1.00  0.00     0.015 C
HETATM   16  C7  UNL     1      18.997 -38.092  -6.374  1.00  0.00     0.021 C
HETATM   17  C8  UNL     1      20.724 -36.582  -7.252  1.00  0.00     0.159 C
HETATM   18  C9  UNL     1      21.770 -36.798  -8.293  1.00  0.00     0.167 C
HETATM   19  C10 UNL     1      21.551 -38.228  -8.749  1.00  0.00     0.122 C
HETATM   20 CL1  UNL     1      22.573 -39.374  -7.872  1.00  0.00    -0.121 Cl
HETATM   21  C11 UNL     1      20.085 -38.503  -8.591  1.00  0.00    -0.017 C
HETATM   22  C12 UNL     1      19.454 -38.325  -9.978  1.00  0.00     0.017 C
HETATM   23  C13 UNL     1      19.791 -39.916  -8.166  1.00  0.00     0.017 C
BRANCH  17  24
HETATM   24  O3  UNL     1      21.267 -36.880  -5.997  1.00  0.00    -0.392 OA
ATOM     25  H3  UNL     1      22.216 -36.836  -5.976  1.00  0.00     0.210 HD
ENDBRANCH  17  24
BRANCH  18  26
HETATM   26  O4  UNL     1      21.700 -35.897  -9.335  1.00  0.00    -0.391 OA
ATOM     27  H4  UNL     1      20.813 -35.733  -9.635  1.00  0.00     0.210 HD
ENDBRANCH  18  26
ENDBRANCH  14  15
ENDBRANCH  13  14
ENDBRANCH   3  13
TORSDOF 6
ENDMDL