MODEL 2
REMARK VINA RESULT: -7.569331919      0.582      1.351
REMARK  4 active torsions:
REMARK  status: ('A' for Active; 'I' for Inactive)
REMARK    1  A    between atoms: C2_2  and  N1_4
REMARK    2  A    between atoms: C5_6  and  C6_7
REMARK    3  A    between atoms: C6_7  and  C7_8
REMARK    4  A    between atoms: C13_19  and  C14_20
ROOT
HETATM    1  C6  UNL     1      21.169 -36.963  -8.864  1.00  0.00     0.143 C
HETATM    2  N2  UNL     1      22.037 -35.902  -9.252  1.00  0.00    -0.106 NA
HETATM    3  N3  UNL     1      22.994 -35.891  -8.255  1.00  0.00    -0.038 NA
HETATM    4  N4  UNL     1      22.429 -36.349  -7.086  1.00  0.00    -0.117 NA
HETATM    5  C13 UNL     1      21.023 -36.665  -7.414  1.00  0.00     0.166 C
ENDROOT
BRANCH   1   6
HETATM    6  C5  UNL     1      19.932 -37.093  -9.638  1.00  0.00     0.077 A
HETATM    7  C4  UNL     1      19.443 -36.331 -10.669  1.00  0.00     0.141 A
HETATM    8  N1  UNL     1      18.264 -36.824 -11.085  1.00  0.00    -0.283 N
HETATM    9  N6  UNL     1      18.016 -37.869 -10.337  1.00  0.00    -0.240 N
HETATM   10  N5  UNL     1      18.984 -38.068  -9.458  1.00  0.00    -0.286 N
ATOM     11  H6  UNL     1      17.184 -38.453 -10.421  1.00  0.00     0.208 HD
ATOM     12  H5  UNL     1      19.020 -38.817  -8.766  1.00  0.00     0.188 HD
BRANCH   8  13
HETATM   13  C2  UNL     1      17.471 -36.269 -12.151  1.00  0.00     0.101 C
HETATM   14  C1  UNL     1      16.018 -36.700 -11.919  1.00  0.00     0.034 C
HETATM   15  C3  UNL     1      17.495 -34.735 -12.087  1.00  0.00     0.034 C
ENDBRANCH   8  13
ENDBRANCH   1   6
BRANCH   1  16
HETATM   16  C7  UNL     1      21.931 -38.252  -8.986  1.00  0.00    -0.022 A
HETATM   17  C8  UNL     1      21.942 -39.130  -7.941  1.00  0.00     0.011 A
HETATM   18  C9  UNL     1      22.655 -40.333  -8.034  1.00  0.00     0.026 A
HETATM   19  C10 UNL     1      23.356 -40.650  -9.177  1.00  0.00     0.055 A
HETATM   20 CL1  UNL     1      24.266 -42.162  -9.326  1.00  0.00    -0.083 Cl
HETATM   21  C11 UNL     1      23.327 -39.743 -10.217  1.00  0.00     0.056 A
HETATM   22 CL2  UNL     1      24.239 -40.183 -11.670  1.00  0.00    -0.083 Cl
HETATM   23  C12 UNL     1      22.623 -38.548 -10.137  1.00  0.00     0.035 A
ENDBRANCH   1  16
BRANCH   5  24
HETATM   24  C14 UNL     1      20.154 -35.542  -7.057  1.00  0.00    -0.035 A
HETATM   25  C15 UNL     1      18.935 -35.752  -6.435  1.00  0.00     0.009 A
HETATM   26  C16 UNL     1      18.115 -34.709  -6.081  1.00  0.00     0.001 A
HETATM   27  C17 UNL     1      18.497 -33.408  -6.339  1.00  0.00     0.000 A
HETATM   28  C18 UNL     1      19.700 -33.151  -6.954  1.00  0.00     0.001 A
HETATM   29  C19 UNL     1      20.509 -34.234  -7.302  1.00  0.00     0.009 A
ENDBRANCH   5  24
TORSDOF 4
ENDMDL