MODEL 2
REMARK VINA RESULT: -8.207318073      1.721      2.085
REMARK  8 active torsions:
REMARK  status: ('A' for Active; 'I' for Inactive)
REMARK    1  A    between atoms: C2_2  and  N1_3
REMARK       I    between atoms: N2_5  and  C3_7
REMARK    2  A    between atoms: C3_7  and  C4_9
REMARK    3  A    between atoms: C4_9  and  C5_10
REMARK    4  A    between atoms: C4_9  and  C6_17
REMARK    5  A    between atoms: C5_10  and  O2_11
REMARK    6  A    between atoms: N3_13  and  O3_15
REMARK    7  A    between atoms: C7_21  and  C8_22
REMARK    8  A    between atoms: N5_29  and  C14_31
ROOT
HETATM    1  C4  UNL     1      20.889 -35.822  -8.218  1.00  0.00     0.101 C
ENDROOT
BRANCH   1   2
HETATM    2  C3  UNL     1      21.069 -36.326  -9.571  1.00  0.00     0.273 C
HETATM    3  N2  UNL     1      20.049 -36.726 -10.477  1.00  0.00    -0.265 N
HETATM    4  N1  UNL     1      19.444 -37.836 -10.368  1.00  0.00    -0.286 N
ATOM      5  H2  UNL     1      19.794 -36.100 -11.241  1.00  0.00     0.190 HD
ATOM      6  H1  UNL     1      19.694 -38.465  -9.606  1.00  0.00     0.188 HD
HETATM    7  O1  UNL     1      22.251 -36.436 -10.040  1.00  0.00    -0.266 OA
BRANCH   4   8
HETATM    8  C2  UNL     1      18.430 -38.224 -11.278  1.00  0.00     0.094 C
HETATM    9  C1  UNL     1      18.823 -38.630 -12.650  1.00  0.00     0.090 C
HETATM   10  N5  UNL     1      17.177 -38.242 -10.977  1.00  0.00    -0.322 N
ATOM     11  H5  UNL     1      16.520 -38.536 -11.699  1.00  0.00     0.169 HD
BRANCH  10  12
HETATM   12  C14 UNL     1      16.653 -37.886  -9.720  1.00  0.00     0.173 C
HETATM   13  N6  UNL     1      16.131 -38.812  -8.971  1.00  0.00    -0.376 N
ATOM     14  H62 UNL     1      16.118 -39.771  -9.318  1.00  0.00     0.158 HD
ATOM     15  H61 UNL     1      15.751 -38.554  -8.061  1.00  0.00     0.158 HD
HETATM   16 CL2  UNL     1      16.675 -36.250  -9.126  1.00  0.00    -0.045 Cl
ENDBRANCH  10  12
ENDBRANCH   4   8
ENDBRANCH   1   2
BRANCH   1  17
HETATM   17  C5  UNL     1      21.520 -36.620  -7.175  1.00  0.00     0.174 C
HETATM   18  N3  UNL     1      22.667 -37.129  -7.336  1.00  0.00    -0.247 N
ATOM     19  H3  UNL     1      23.172 -36.985  -8.211  1.00  0.00     0.196 HD
BRANCH  17  20
HETATM   20  O2  UNL     1      20.853 -36.828  -5.982  1.00  0.00    -0.344 OA
ATOM     21  H2  UNL     1      21.090 -37.570  -5.437  1.00  0.00     0.219 HD
ENDBRANCH  17  20
BRANCH  18  22
HETATM   22  O3  UNL     1      23.231 -37.875  -6.335  1.00  0.00    -0.288 OA
ATOM     23  H3  UNL     1      23.640 -38.708  -6.537  1.00  0.00     0.244 HD
ENDBRANCH  18  22
ENDBRANCH   1  17
BRANCH   1  24
HETATM   24  C6  UNL     1      21.025 -34.308  -8.072  1.00  0.00     0.247 A
HETATM   25  O4  UNL     1      20.369 -34.025  -6.816  1.00  0.00    -0.263 OA
HETATM   26  N4  UNL     1      19.511 -33.267  -7.429  1.00  0.00    -0.266 N
HETATM   27  C7  UNL     1      20.019 -33.436  -8.628  1.00  0.00     0.080 A
ATOM     28  H4  UNL     1      18.715 -32.725  -7.095  1.00  0.00     0.194 HD
BRANCH  27  29
HETATM   29  C8  UNL     1      19.451 -32.815  -9.842  1.00  0.00     0.013 A
HETATM   30  C9  UNL     1      18.463 -33.449 -10.565  1.00  0.00     0.015 A
HETATM   31  C10 UNL     1      17.935 -32.967 -11.763  1.00  0.00     0.001 A
HETATM   32  C11 UNL     1      18.472 -31.779 -12.207  1.00  0.00     0.002 A
HETATM   33  C12 UNL     1      19.450 -31.122 -11.518  1.00  0.00     0.025 A
HETATM   34  C13 UNL     1      19.933 -31.644 -10.338  1.00  0.00     0.046 A
HETATM   35 CL1  UNL     1      21.116 -30.653  -9.496  1.00  0.00    -0.083 Cl
ENDBRANCH  27  29
ENDBRANCH   1  24
TORSDOF 8
ENDMDL