MODEL 5
REMARK VINA RESULT: -6.974673528      2.341      2.919
REMARK  5 active torsions:
REMARK  status: ('A' for Active; 'I' for Inactive)
REMARK    1  A    between atoms: O1_2  and  C2_3
REMARK    2  A    between atoms: C4_5  and  N1_6
REMARK    3  A    between atoms: N1_6  and  C5_8
REMARK    4  A    between atoms: C6_11  and  N3_12
REMARK    5  A    between atoms: N5_20  and  C10_21
ROOT
HETATM    1  C5  UNL     1      20.246 -35.224  -7.437  1.00  0.00     0.685 A
HETATM    2  N2  UNL     1      21.312 -35.944  -7.747  1.00  0.00    -0.176 N
ATOM      3  H2  UNL     1      22.182 -35.457  -7.963  1.00  0.00     0.186 HD
HETATM    4  C6  UNL     1      21.303 -37.305  -7.792  1.00  0.00     0.134 A
HETATM    5  C7  UNL     1      20.117 -37.931  -7.496  1.00  0.00     0.123 A
HETATM    6  C8  UNL     1      19.686 -39.239  -7.426  1.00  0.00     0.279 A
HETATM    7  O2  UNL     1      20.388 -40.260  -7.650  1.00  0.00    -0.265 OA
HETATM    8  N4  UNL     1      18.387 -39.285  -7.079  1.00  0.00    -0.257 N
HETATM    9  C9  UNL     1      17.599 -40.489  -6.909  1.00  0.00     0.181 C
HETATM   10  N5  UNL     1      17.967 -38.043  -6.923  1.00  0.00    -0.266 N
HETATM   11  C13 UNL     1      18.992 -37.193  -7.169  1.00  0.00     0.158 A
HETATM   12  N6  UNL     1      19.105 -35.858  -7.153  1.00  0.00    -0.174 N
ATOM     13  H6  UNL     1      18.284 -35.302  -6.913  1.00  0.00     0.186 HD
ENDROOT
BRANCH   1  14
HETATM   14  N1  UNL     1      20.334 -33.928  -7.415  1.00  0.00    -0.191 N
ATOM     15  H1  UNL     1      20.601 -33.452  -6.553  1.00  0.00     0.184 HD
BRANCH  14  16
HETATM   16  C4  UNL     1      20.062 -33.169  -8.584  1.00  0.00     0.053 A
HETATM   17  C3  UNL     1      19.122 -33.606  -9.516  1.00  0.00     0.068 A
HETATM   18  C2  UNL     1      18.843 -32.888 -10.654  1.00  0.00     0.093 A
HETATM   19  C16 UNL     1      19.529 -31.695 -10.860  1.00  0.00     0.089 A
HETATM   20  C15 UNL     1      20.460 -31.273  -9.926  1.00  0.00     0.060 A
HETATM   21 CL2  UNL     1      19.192 -30.766 -12.294  1.00  0.00    -0.080 Cl
HETATM   22  C14 UNL     1      20.746 -31.988  -8.781  1.00  0.00     0.056 A
HETATM   23 CL1  UNL     1      21.336 -29.771 -10.167  1.00  0.00    -0.082 Cl
BRANCH  18  24
HETATM   24  O1  UNL     1      17.914 -33.303 -11.591  1.00  0.00    -0.354 OA
HETATM   25  C1  UNL     1      17.704 -34.689 -11.767  1.00  0.00     0.210 C
ENDBRANCH  18  24
ENDBRANCH  14  16
ENDBRANCH   1  14
BRANCH   4  26
HETATM   26  N3  UNL     1      22.346 -37.973  -8.094  1.00  0.00    -0.384 N
ATOM     27  H32 UNL     1      22.449 -38.406  -9.012  1.00  0.00     0.157 HD
ATOM     28  H31 UNL     1      23.112 -38.099  -7.433  1.00  0.00     0.157 HD
ENDBRANCH   4  26
BRANCH  10  29
HETATM   29  C10 UNL     1      16.652 -37.598  -6.555  1.00  0.00     0.102 C
HETATM   30  C11 UNL     1      15.865 -37.053  -7.719  1.00  0.00     0.034 C
HETATM   31  C12 UNL     1      16.652 -36.547  -5.468  1.00  0.00     0.034 C
ENDBRANCH  10  29
TORSDOF 5
ENDMDL