MODEL 5
REMARK VINA RESULT: -6.539732696      1.802      2.353
REMARK  6 active torsions:
REMARK  status: ('A' for Active; 'I' for Inactive)
REMARK    1  A    between atoms: C5_8  and  C6_9
REMARK    2  A    between atoms: N3_10  and  N4_12
REMARK    3  A    between atoms: N4_12  and  C7_14
REMARK    4  A    between atoms: C8_17  and  N6_18
REMARK    5  A    between atoms: C9_23  and  O1_24
REMARK    6  A    between atoms: O1_24  and  C10_25
ROOT
HETATM    1  C7  UNL     1      19.073 -36.085  -6.302  1.00  0.00     0.161 A
HETATM    2  N5  UNL     1      19.894 -37.075  -6.693  1.00  0.00    -0.174 N
ATOM      3  H5  UNL     1      19.656 -38.050  -6.508  1.00  0.00     0.186 HD
HETATM    4  C8  UNL     1      21.037 -36.758  -7.331  1.00  0.00     0.679 A
HETATM    5  N7  UNL     1      21.391 -35.488  -7.595  1.00  0.00    -0.169 N
ATOM      6  H7  UNL     1      22.268 -35.301  -8.082  1.00  0.00     0.186 HD
HETATM    7  C9  UNL     1      20.608 -34.463  -7.227  1.00  0.00     0.188 A
HETATM    8  C16 UNL     1      19.422 -34.780  -6.566  1.00  0.00     0.131 A
HETATM    9 CL2  UNL     1      18.377 -33.493  -6.071  1.00  0.00    -0.076 Cl
ENDROOT
BRANCH   1  10
HETATM   10  N4  UNL     1      17.986 -36.411  -5.694  1.00  0.00    -0.284 N
ATOM     11  H4  UNL     1      17.558 -35.738  -5.057  1.00  0.00     0.188 HD
BRANCH  10  12
HETATM   12  N3  UNL     1      17.377 -37.637  -5.871  1.00  0.00    -0.309 N
HETATM   13  C6  UNL     1      16.073 -37.666  -5.925  1.00  0.00     0.122 C
ATOM     14  H3  UNL     1      17.927 -38.492  -5.957  1.00  0.00     0.186 HD
BRANCH  13  15
HETATM   15  C5  UNL     1      15.431 -38.952  -6.111  1.00  0.00     0.021 A
HETATM   16  C2  UNL     1      15.015 -39.457  -7.327  1.00  0.00     0.035 A
HETATM   17  C1  UNL     1      15.160 -38.761  -8.648  1.00  0.00     0.070 C
HETATM   18  N1  UNL     1      14.476 -40.657  -7.073  1.00  0.00    -0.303 N
HETATM   19  N2  UNL     1      14.540 -40.915  -5.759  1.00  0.00    -0.307 N
ATOM     20  H1  UNL     1      14.077 -41.280  -7.775  1.00  0.00     0.186 HD
HETATM   21  C3  UNL     1      14.062 -42.111  -5.085  1.00  0.00     0.177 C
HETATM   22  C4  UNL     1      15.121 -39.890  -5.132  1.00  0.00     0.124 A
ENDBRANCH  13  15
ENDBRANCH  10  12
ENDBRANCH   1  10
BRANCH   4  23
HETATM   23  N6  UNL     1      21.811 -37.729  -7.697  1.00  0.00    -0.234 N
ATOM     24  H62 UNL     1      21.404 -38.586  -8.070  1.00  0.00     0.174 HD
ATOM     25  H61 UNL     1      22.818 -37.597  -7.596  1.00  0.00     0.174 HD
ENDBRANCH   4  23
BRANCH   7  26
HETATM   26  O1  UNL     1      20.994 -33.163  -7.510  1.00  0.00    -0.292 OA
BRANCH  26  27
HETATM   27  C10 UNL     1      20.599 -32.496  -8.655  1.00  0.00     0.078 A
HETATM   28  C11 UNL     1      19.675 -33.091  -9.478  1.00  0.00     0.039 A
HETATM   29  C12 UNL     1      19.258 -32.442 -10.640  1.00  0.00     0.026 A
HETATM   30  C13 UNL     1      19.741 -31.211 -11.004  1.00  0.00     0.034 A
HETATM   31 CL1  UNL     1      19.208 -30.395 -12.478  1.00  0.00    -0.084 Cl
HETATM   32  C14 UNL     1      20.673 -30.616 -10.167  1.00  0.00     0.026 A
HETATM   33  C15 UNL     1      21.085 -31.259  -9.016  1.00  0.00     0.039 A
ENDBRANCH  26  27
ENDBRANCH   7  26
TORSDOF 6
ENDMDL