MODEL 1
REMARK VINA RESULT: -6.828607629      0.000      0.000
REMARK  7 active torsions:
REMARK  status: ('A' for Active; 'I' for Inactive)
REMARK    1  A    between atoms: O1_2  and  N1_3
REMARK    2  A    between atoms: N1_3  and  C2_4
REMARK    3  A    between atoms: C2_4  and  C3_5
REMARK    4  A    between atoms: C2_4  and  C13_20
REMARK    5  A    between atoms: C3_5  and  O2_6
REMARK    6  A    between atoms: C3_5  and  N2_8
REMARK    7  A    between atoms: C15_26  and  O4_27
ROOT
HETATM    1  C3  UNL     1      19.540 -35.501  -9.546  1.00  0.00     0.142 C
ENDROOT
BRANCH   1   2
HETATM    2  C2  UNL     1      19.884 -35.468  -8.145  1.00  0.00     0.225 C
BRANCH   2   3
HETATM    3  N1  UNL     1      19.653 -34.073  -7.601  1.00  0.00    -0.083 NA
BRANCH   3   4
HETATM    4  O1  UNL     1      18.374 -33.800  -7.844  1.00  0.00    -0.290 OA
HETATM    5  C1  UNL     1      17.611 -33.728  -6.678  1.00  0.00     0.231 C
ENDBRANCH   3   4
ENDBRANCH   2   3
BRANCH   2   6
HETATM    6  C13 UNL     1      21.383 -35.565  -7.891  1.00  0.00     0.068 A
HETATM    7  S1  UNL     1      22.259 -36.833  -7.143  1.00  0.00    -0.027 SA
HETATM    8  C14 UNL     1      23.818 -36.163  -7.266  1.00  0.00     0.290 A
HETATM    9  O3  UNL     1      24.942 -36.644  -6.876  1.00  0.00    -0.260 OA
HETATM   10  N3  UNL     1      23.603 -35.003  -7.871  1.00  0.00    -0.297 N
HETATM   11  C15 UNL     1      22.375 -34.676  -8.199  1.00  0.00     0.159 A
ATOM     12  H3  UNL     1      24.379 -34.374  -8.079  1.00  0.00     0.171 HD
BRANCH  11  13
HETATM   13  O4  UNL     1      22.076 -33.434  -8.851  1.00  0.00    -0.345 OA
ATOM     14  H4  UNL     1      22.452 -33.224  -9.699  1.00  0.00     0.219 HD
ENDBRANCH  11  13
ENDBRANCH   2   6
ENDBRANCH   1   2
BRANCH   1  15
HETATM   15  O2  UNL     1      19.789 -34.395 -10.189  1.00  0.00    -0.348 OA
ATOM     16  H2  UNL     1      19.720 -34.465 -11.134  1.00  0.00     0.219 HD
ENDBRANCH   1  15
BRANCH   1  17
HETATM   17  N2  UNL     1      18.976 -36.530 -10.358  1.00  0.00    -0.346 N
HETATM   18  C4  UNL     1      17.492 -36.571 -10.349  1.00  0.00     0.032 C
HETATM   19  C5  UNL     1      16.989 -35.179 -10.789  1.00  0.00     0.038 C
HETATM   20  C6  UNL     1      17.001 -36.755  -8.929  1.00  0.00     0.038 C
HETATM   21  C7  UNL     1      16.886 -37.577 -11.249  1.00  0.00     0.091 C
HETATM   22  C8  UNL     1      17.536 -38.928 -11.209  1.00  0.00     0.183 C
HETATM   23  F1  UNL     1      17.403 -39.486 -12.463  1.00  0.00    -0.225 F
HETATM   24 CL1  UNL     1      16.665 -39.985 -10.072  1.00  0.00    -0.083 Cl
HETATM   25  C9  UNL     1      18.965 -38.876 -10.836  1.00  0.00     0.091 C
HETATM   26  C10 UNL     1      19.630 -37.517 -11.125  1.00  0.00     0.032 C
HETATM   27  C11 UNL     1      21.096 -37.741 -10.721  1.00  0.00     0.038 C
HETATM   28  C12 UNL     1      19.628 -37.306 -12.597  1.00  0.00     0.038 C
ENDBRANCH   1  17
TORSDOF 7
ENDMDL