MODEL 4
REMARK VINA RESULT: -6.939462812      1.508      1.772
REMARK  7 active torsions:
REMARK  status: ('A' for Active; 'I' for Inactive)
REMARK    1  A    between atoms: O1_2  and  C2_3
REMARK    2  A    between atoms: C3_4  and  C4_5
REMARK    3  A    between atoms: C4_5  and  O2_6
REMARK    4  A    between atoms: C7_11  and  C8_12
REMARK    5  A    between atoms: C11_15  and  S1_16
REMARK    6  A    between atoms: S1_16  and  N1_17
REMARK    7  A    between atoms: C14_24  and  O5_25
ROOT
HETATM    1  C2  UNL     1      19.887 -32.221 -10.161  1.00  0.00     0.099 A
HETATM    2  C3  UNL     1      19.010 -32.074 -11.213  1.00  0.00     0.003 A
HETATM    3  C5  UNL     1      17.992 -32.981 -11.378  1.00  0.00     0.050 A
HETATM    4  C6  UNL     1      17.840 -34.052 -10.486  1.00  0.00     0.091 A
HETATM    5  O3  UNL     1      16.977 -35.011 -10.440  1.00  0.00    -0.306 OA
HETATM    6  C7  UNL     1      17.187 -35.835  -9.415  1.00  0.00     0.122 A
HETATM    7  C14 UNL     1      18.285 -35.340  -8.766  1.00  0.00     0.115 A
HETATM    8  C15 UNL     1      18.726 -34.185  -9.440  1.00  0.00     0.058 A
HETATM    9  C16 UNL     1      19.754 -33.286  -9.257  1.00  0.00     0.083 A
HETATM   10 CL2  UNL     1      20.881 -33.446  -7.936  1.00  0.00    -0.080 Cl
ENDROOT
BRANCH   6  11
HETATM   11  C8  UNL     1      16.344 -37.003  -9.155  1.00  0.00     0.022 A
HETATM   12  C9  UNL     1      15.844 -37.157  -7.840  1.00  0.00     0.017 A
HETATM   13  C10 UNL     1      15.094 -38.232  -7.468  1.00  0.00     0.024 A
HETATM   14  C11 UNL     1      14.778 -39.233  -8.350  1.00  0.00     0.053 A
HETATM   15  C12 UNL     1      15.245 -39.114  -9.622  1.00  0.00     0.047 A
HETATM   16  C13 UNL     1      16.021 -38.004 -10.004  1.00  0.00     0.048 A
HETATM   17 CL1  UNL     1      16.631 -38.042 -11.654  1.00  0.00    -0.083 Cl
BRANCH  14  18
HETATM   18  S1  UNL     1      13.800 -40.615  -7.841  1.00  0.00     0.144 S
HETATM   19  O4  UNL     1      12.503 -40.629  -8.635  1.00  0.00    -0.230 OA
BRANCH  18  20
HETATM   20  N1  UNL     1      14.714 -42.065  -8.228  1.00  0.00    -0.346 NA
ATOM     21  H12 UNL     1      14.850 -42.107  -9.238  1.00  0.00     0.166 HD
ATOM     22  H11 UNL     1      15.622 -41.978  -7.771  1.00  0.00     0.166 HD
ENDBRANCH  18  20
ENDBRANCH  14  18
ENDBRANCH   6  11
BRANCH   7  23
HETATM   23  O5  UNL     1      18.926 -35.803  -7.666  1.00  0.00    -0.357 OA
ATOM     24  H5  UNL     1      18.936 -35.464  -6.779  1.00  0.00     0.217 HD
ENDBRANCH   7  23
BRANCH   2  25
HETATM   25  C4  UNL     1      19.224 -30.922 -12.118  1.00  0.00     0.205 C
BRANCH  25  26
HETATM   26  O2  UNL     1      18.949 -31.309 -13.448  1.00  0.00    -0.396 OA
ATOM     27  H2  UNL     1      18.747 -30.540 -13.968  1.00  0.00     0.209 HD
ENDBRANCH  25  26
ENDBRANCH   2  25
BRANCH   1  28
HETATM   28  O1  UNL     1      20.921 -31.312  -9.982  1.00  0.00    -0.354 OA
HETATM   29  C1  UNL     1      20.959 -30.512  -8.815  1.00  0.00     0.210 C
ENDBRANCH   1  28
TORSDOF 7
ENDMDL