MODEL 3
REMARK VINA RESULT: -7.377218038      1.042      1.541
REMARK  6 active torsions:
REMARK  status: ('A' for Active; 'I' for Inactive)
REMARK    1  A    between atoms: C4_4  and  N1_5
REMARK    2  A    between atoms: N1_5  and  C5_7
REMARK    3  A    between atoms: C7_11  and  N3_12
REMARK    4  A    between atoms: N8_29  and  C13_30
REMARK    5  A    between atoms: C13_30  and  C14_31
REMARK    6  A    between atoms: C14_31  and  C15_32
ROOT
HETATM    1  C1  UNL     1      17.038 -36.018  -8.301  1.00  0.00     0.071 C
HETATM    2  C2  UNL     1      18.143 -37.010  -8.190  1.00  0.00     0.041 A
HETATM    3  C3  UNL     1      19.472 -36.653  -7.939  1.00  0.00     0.062 A
HETATM    4  C4  UNL     1      20.119 -35.459  -7.739  1.00  0.00     0.121 A
HETATM    5  N5  UNL     1      21.444 -35.453  -7.515  1.00  0.00    -0.332 N
ATOM      6  H5  UNL     1      21.911 -34.558  -7.368  1.00  0.00     0.168 HD
HETATM    7  C9  UNL     1      22.180 -36.575  -7.477  1.00  0.00     0.139 A
HETATM    8  C10 UNL     1      23.612 -36.535  -7.232  1.00  0.00     0.119 C
HETATM    9  N6  UNL     1      24.753 -36.509  -7.035  1.00  0.00    -0.190 NA
HETATM   10  C11 UNL     1      21.578 -37.798  -7.671  1.00  0.00     0.100 A
HETATM   11 CL2  UNL     1      22.495 -39.268  -7.628  1.00  0.00    -0.079 Cl
HETATM   12  C12 UNL     1      20.198 -37.807  -7.904  1.00  0.00     0.089 A
HETATM   13  N7  UNL     1      19.355 -38.818  -8.123  1.00  0.00    -0.296 N
ATOM     14  H7  UNL     1      19.609 -39.806  -8.155  1.00  0.00     0.187 HD
HETATM   15  N8  UNL     1      18.137 -38.332  -8.292  1.00  0.00    -0.295 N
ENDROOT
BRANCH   4  16
HETATM   16  N1  UNL     1      19.467 -34.361  -7.765  1.00  0.00    -0.338 N
ATOM     17  H1  UNL     1      18.552 -34.347  -7.313  1.00  0.00     0.167 HD
BRANCH  16  18
HETATM   18  C5  UNL     1      19.909 -33.173  -8.367  1.00  0.00     0.089 A
HETATM   19  C6  UNL     1      20.639 -32.281  -7.597  1.00  0.00     0.139 A
HETATM   20  N2  UNL     1      21.066 -31.141  -8.170  1.00  0.00    -0.200 N
HETATM   21  C7  UNL     1      20.793 -30.870  -9.455  1.00  0.00     0.676 A
ATOM     22  H2  UNL     1      21.604 -30.473  -7.619  1.00  0.00     0.183 HD
HETATM   23  N4  UNL     1      20.081 -31.751 -10.191  1.00  0.00    -0.179 N
HETATM   24  C8  UNL     1      19.619 -32.912  -9.690  1.00  0.00     0.147 A
ATOM     25  H4  UNL     1      19.884 -31.527 -11.166  1.00  0.00     0.185 HD
HETATM   26 CL1  UNL     1      18.693 -34.035 -10.682  1.00  0.00    -0.061 Cl
BRANCH  21  27
HETATM   27  N3  UNL     1      21.219 -29.771  -9.957  1.00  0.00    -0.234 N
ATOM     28  H32 UNL     1      20.933 -29.466 -10.887  1.00  0.00     0.174 HD
ATOM     29  H31 UNL     1      21.857 -29.196  -9.408  1.00  0.00     0.174 HD
ENDBRANCH  21  27
ENDBRANCH  16  18
ENDBRANCH   4  16
BRANCH  15  30
HETATM   30  C13 UNL     1      16.958 -39.135  -8.552  1.00  0.00     0.149 C
BRANCH  30  31
HETATM   31  C14 UNL     1      16.586 -39.984  -7.356  1.00  0.00     0.025 C
BRANCH  31  32
HETATM   32  C15 UNL     1      15.400 -39.375  -6.640  1.00  0.00    -0.021 C
HETATM   33  C16 UNL     1      15.811 -38.429  -5.552  1.00  0.00     0.009 C
HETATM   34  C17 UNL     1      14.504 -38.645  -7.614  1.00  0.00     0.009 C
ENDBRANCH  31  32
ENDBRANCH  30  31
ENDBRANCH  15  30
TORSDOF 6
ENDMDL