MODEL 3
REMARK VINA RESULT: -6.759787043      2.070      2.265
REMARK  7 active torsions:
REMARK  status: ('A' for Active; 'I' for Inactive)
REMARK    1  A    between atoms: O1_1  and  C1_3
REMARK    2  A    between atoms: C3_6  and  N1_7
REMARK    3  A    between atoms: N1_7  and  C4_9
REMARK    4  A    between atoms: C4_9  and  O2_10
REMARK    5  A    between atoms: C4_9  and  C5_12
REMARK    6  A    between atoms: N2_14  and  C7_15
REMARK    7  A    between atoms: C7_15  and  C8_16
ROOT
HETATM    1  C5  UNL     1      20.096 -32.915  -9.279  1.00  0.00     0.026 A
HETATM    2  C6  UNL     1      19.237 -33.857  -9.809  1.00  0.00     0.105 A
HETATM    3  N2  UNL     1      18.661 -33.354 -10.939  1.00  0.00    -0.340 N
HETATM    4  C12 UNL     1      19.117 -32.118 -11.159  1.00  0.00     0.124 A
HETATM    5 CL1  UNL     1      18.711 -31.015 -12.466  1.00  0.00    -0.063 Cl
HETATM    6  C13 UNL     1      20.004 -31.831 -10.143  1.00  0.00     0.061 A
HETATM    7 BR1  UNL     1      20.974 -30.210  -9.924  1.00  0.00    -0.047 Br
ENDROOT
BRANCH   1   8
HETATM    8  C4  UNL     1      20.946 -33.013  -8.051  1.00  0.00     0.257 C
BRANCH   8   9
HETATM    9  N1  UNL     1      20.072 -33.092  -6.928  1.00  0.00    -0.340 N
ATOM     10  H1  UNL     1      19.986 -32.271  -6.328  1.00  0.00     0.164 HD
BRANCH   9  11
HETATM   11  C3  UNL     1      19.375 -34.148  -6.621  1.00  0.00     0.148 A
HETATM   12  S1  UNL     1      17.686 -34.216  -6.418  1.00  0.00    -0.062 SA
HETATM   13  C2  UNL     1      17.541 -35.878  -6.040  1.00  0.00     0.109 A
HETATM   14  C1  UNL     1      18.844 -36.287  -6.095  1.00  0.00     0.148 A
HETATM   15  N3  UNL     1      19.755 -35.405  -6.389  1.00  0.00    -0.317 N
ATOM     16  H3  UNL     1      20.737 -35.670  -6.441  1.00  0.00     0.170 HD
BRANCH  14  17
HETATM   17  O1  UNL     1      19.156 -37.650  -5.833  1.00  0.00    -0.346 OA
ATOM     18  H1  UNL     1      20.066 -37.910  -5.748  1.00  0.00     0.219 HD
ENDBRANCH  14  17
ENDBRANCH   9  11
ENDBRANCH   8   9
BRANCH   8  19
HETATM   19  O2  UNL     1      21.709 -34.174  -8.100  1.00  0.00    -0.372 OA
ATOM     20  H2  UNL     1      22.258 -34.143  -8.874  1.00  0.00     0.212 HD
ENDBRANCH   8  19
ENDBRANCH   1   8
BRANCH   3  21
HETATM   21  C7  UNL     1      17.694 -34.034 -11.796  1.00  0.00     0.194 C
BRANCH  21  22
HETATM   22  C8  UNL     1      17.181 -35.276 -11.157  1.00  0.00     0.070 A
HETATM   23  C9  UNL     1      16.841 -36.468 -11.758  1.00  0.00     0.036 A
HETATM   24  C10 UNL     1      16.419 -37.321 -10.782  1.00  0.00     0.027 A
HETATM   25  C11 UNL     1      16.517 -36.617  -9.596  1.00  0.00     0.142 A
HETATM   26  O3  UNL     1      16.963 -35.437  -9.874  1.00  0.00    -0.325 OA
ENDBRANCH  21  22
ENDBRANCH   3  21
TORSDOF 7
ENDMDL