MODEL 1
REMARK VINA RESULT: -6.382096464      0.000      0.000
REMARK  6 active torsions:
REMARK  status: ('A' for Active; 'I' for Inactive)
REMARK    1  A    between atoms: C2_2  and  C4_4
REMARK    2  A    between atoms: N1_10  and  O1_11
REMARK    3  A    between atoms: C8_13  and  N2_14
REMARK       I    between atoms: N2_14  and  C9_16
REMARK    4  A    between atoms: C9_16  and  C10_18
REMARK    5  A    between atoms: C10_18  and  C11_19
REMARK    6  A    between atoms: C11_19  and  C12_20
ROOT
HETATM    1  C4  UNL     1      18.387 -38.383  -8.517  1.00  0.00     0.006 A
HETATM    2  C5  UNL     1      18.552 -39.782  -8.323  1.00  0.00     0.085 A
HETATM    3 CL1  UNL     1      17.232 -40.984  -8.322  1.00  0.00    -0.076 Cl
HETATM    4  S1  UNL     1      20.179 -40.032  -8.077  1.00  0.00    -0.061 SA
HETATM    5  C6  UNL     1      20.705 -38.420  -8.201  1.00  0.00     0.152 A
HETATM    6  C7  UNL     1      19.577 -37.691  -8.436  1.00  0.00     0.120 A
HETATM    7  N1  UNL     1      19.808 -36.254  -8.505  1.00  0.00    -0.049 N
HETATM    8  C8  UNL     1      20.998 -35.541  -8.388  1.00  0.00     0.721 A
HETATM    9  N3  UNL     1      22.192 -36.097  -8.179  1.00  0.00    -0.110 N
ATOM     10  H3  UNL     1      23.018 -35.504  -8.102  1.00  0.00     0.197 HD
HETATM   11  S2  UNL     1      22.348 -37.760  -8.040  1.00  0.00     0.285 S
HETATM   12  O3  UNL     1      22.912 -38.206  -6.712  1.00  0.00    -0.199 OA
HETATM   13  O4  UNL     1      23.232 -38.313  -9.138  1.00  0.00    -0.199 OA
ENDROOT
BRANCH   8  14
HETATM   14  N2  UNL     1      21.128 -34.128  -8.477  1.00  0.00    -0.157 N
HETATM   15  C9  UNL     1      20.603 -33.047  -7.811  1.00  0.00     0.235 C
HETATM   16  O2  UNL     1      19.787 -33.066  -6.884  1.00  0.00    -0.273 OA
ATOM     17  H2  UNL     1      21.770 -33.848  -9.219  1.00  0.00     0.187 HD
BRANCH  15  18
HETATM   18  C10 UNL     1      21.028 -31.630  -8.208  1.00  0.00     0.105 C
BRANCH  18  19
HETATM   19  C11 UNL     1      20.671 -31.457  -9.658  1.00  0.00     0.024 C
BRANCH  19  20
HETATM   20  C12 UNL     1      20.827 -30.019 -10.098  1.00  0.00     0.115 C
HETATM   21 CL2  UNL     1      19.940 -29.805 -11.605  1.00  0.00    -0.130 Cl
ENDBRANCH  19  20
ENDBRANCH  18  19
ENDBRANCH  15  18
ENDBRANCH   8  14
BRANCH   7  22
HETATM   22  O1  UNL     1      18.683 -35.481  -8.472  1.00  0.00    -0.269 OA
ATOM     23  H1  UNL     1      18.315 -35.337  -7.608  1.00  0.00     0.245 HD
ENDBRANCH   7  22
BRANCH   1  24
HETATM   24  C2  UNL     1      16.978 -37.986  -8.787  1.00  0.00     0.015 C
HETATM   25  C1  UNL     1      16.553 -37.172  -9.925  1.00  0.00     0.015 C
HETATM   26  C3  UNL     1      16.363 -37.455  -7.467  1.00  0.00     0.015 C
ENDBRANCH   1  24
TORSDOF 6
ENDMDL