MODEL 1
REMARK VINA RESULT: -7.404299285      0.000      0.000
REMARK  9 active torsions:
REMARK  status: ('A' for Active; 'I' for Inactive)
REMARK    1  A    between atoms: C2_2  and  C5_5
REMARK    2  A    between atoms: N3_11  and  C7_13
REMARK    3  A    between atoms: C7_13  and  N4_15
REMARK    4  A    between atoms: N4_15  and  C8_17
REMARK    5  A    between atoms: C8_17  and  C9_18
REMARK    6  A    between atoms: C12_21  and  C13_22
REMARK    7  A    between atoms: C13_22  and  N5_23
REMARK    8  A    between atoms: N5_23  and  O1_24
REMARK    9  A    between atoms: O1_24  and  C14_25
ROOT
HETATM    1  C7  UNL     1      19.760 -24.517 -10.338  1.00  0.00     0.173 C
HETATM    2  S1  UNL     1      20.048 -25.969 -11.006  1.00  0.00    -0.041 SA
ENDROOT
BRANCH   1   3
HETATM    3  N3  UNL     1      20.420 -23.336 -10.792  1.00  0.00    -0.312 N
HETATM    4  C6  UNL     1      21.385 -22.797 -10.095  1.00  0.00     0.167 A
HETATM    5  N2  UNL     1      21.964 -23.092  -8.962  1.00  0.00    -0.279 N
HETATM    6  S2  UNL     1      22.256 -21.355 -10.536  1.00  0.00    -0.037 SA
HETATM    7  N1  UNL     1      22.908 -22.356  -8.503  1.00  0.00    -0.295 N
ATOM      8  H2  UNL     1      21.664 -23.914  -8.439  1.00  0.00     0.189 HD
HETATM    9  C5  UNL     1      23.293 -21.287  -9.191  1.00  0.00     0.077 A
ATOM     10  H1  UNL     1      23.360 -22.590  -7.619  1.00  0.00     0.187 HD
ATOM     11  H3  UNL     1      20.134 -22.907 -11.672  1.00  0.00     0.170 HD
BRANCH   9  12
HETATM   12  C2  UNL     1      24.345 -20.265  -8.903  1.00  0.00    -0.001 C
HETATM   13  C1  UNL     1      25.431 -20.879  -8.087  1.00  0.00     0.021 C
HETATM   14  C3  UNL     1      24.867 -19.781 -10.249  1.00  0.00     0.021 C
HETATM   15  C4  UNL     1      23.752 -19.097  -8.174  1.00  0.00     0.021 C
ENDBRANCH   9  12
ENDBRANCH   1   3
BRANCH   1  16
HETATM   16  N4  UNL     1      18.809 -24.354  -9.301  1.00  0.00    -0.361 N
ATOM     17  H4  UNL     1      18.249 -23.503  -9.268  1.00  0.00     0.162 HD
BRANCH  16  18
HETATM   18  C8  UNL     1      18.615 -25.359  -8.298  1.00  0.00     0.187 C
BRANCH  18  19
HETATM   19  C9  UNL     1      19.714 -25.176  -7.277  1.00  0.00     0.071 A
HETATM   20  C10 UNL     1      19.657 -24.413  -6.152  1.00  0.00     0.037 A
HETATM   21  C11 UNL     1      20.880 -24.555  -5.528  1.00  0.00     0.042 A
HETATM   22  C12 UNL     1      21.636 -25.396  -6.293  1.00  0.00     0.107 A
HETATM   23  O2  UNL     1      20.905 -25.735  -7.312  1.00  0.00    -0.311 OA
BRANCH  22  24
HETATM   24  C13 UNL     1      23.028 -25.849  -6.017  1.00  0.00     0.255 C
BRANCH  24  25
HETATM   25  N5  UNL     1      23.966 -25.133  -6.155  1.00  0.00    -0.287 NA
BRANCH  25  26
HETATM   26  O1  UNL     1      25.051 -24.498  -6.157  1.00  0.00    -0.155 OA
BRANCH  26  27
HETATM   27  C14 UNL     1      26.086 -24.323  -5.232  1.00  0.00     0.447 C
HETATM   28  F1  UNL     1      26.882 -25.477  -5.190  1.00  0.00    -0.199 F
HETATM   29 CL1  UNL     1      27.164 -22.992  -5.763  1.00  0.00    -0.058 Cl
ENDBRANCH  26  27
ENDBRANCH  25  26
ENDBRANCH  24  25
ENDBRANCH  22  24
ENDBRANCH  18  19
ENDBRANCH  16  18
ENDBRANCH   1  16
TORSDOF 9
ENDMDL