MODEL 5
REMARK VINA RESULT: -7.503314454      4.733      5.989
REMARK  7 active torsions:
REMARK  status: ('A' for Active; 'I' for Inactive)
REMARK    1  A    between atoms: C2_2  and  S1_3
REMARK    2  A    between atoms: S1_3  and  C3_4
REMARK    3  A    between atoms: C3_4  and  N1_5
REMARK    4  A    between atoms: N1_5  and  S2_7
REMARK    5  A    between atoms: S2_7  and  C4_10
REMARK    6  A    between atoms: C7_13  and  N2_14
REMARK       I    between atoms: N2_14  and  C8_16
REMARK    7  A    between atoms: C8_16  and  C9_18
ROOT
HETATM    1  C4  UNL     1      22.280 -22.641  -8.332  1.00  0.00     0.082 A
HETATM    2  C5  UNL     1      21.678 -22.795  -9.552  1.00  0.00     0.027 A
HETATM    3  C6  UNL     1      20.562 -23.624  -9.662  1.00  0.00     0.033 A
HETATM    4  C7  UNL     1      20.009 -24.311  -8.617  1.00  0.00     0.057 A
HETATM    5  C13 UNL     1      20.650 -24.132  -7.379  1.00  0.00     0.062 A
HETATM    6 CL1  UNL     1      20.030 -24.962  -5.977  1.00  0.00    -0.082 Cl
HETATM    7  C14 UNL     1      21.743 -23.323  -7.262  1.00  0.00     0.051 A
ENDROOT
BRANCH   4   8
HETATM    8  N2  UNL     1      18.877 -25.160  -8.698  1.00  0.00    -0.320 N
HETATM    9  C8  UNL     1      17.532 -24.856  -8.511  1.00  0.00     0.280 C
HETATM   10  O3  UNL     1      17.131 -23.710  -8.229  1.00  0.00    -0.265 OA
ATOM     11  H2  UNL     1      19.077 -26.134  -8.926  1.00  0.00     0.169 HD
BRANCH   9  12
HETATM   12  C9  UNL     1      16.541 -25.950  -8.658  1.00  0.00     0.145 A
HETATM   13  C10 UNL     1      16.794 -27.153  -9.264  1.00  0.00     0.047 A
HETATM   14  C11 UNL     1      15.614 -27.873  -9.186  1.00  0.00     0.056 A
HETATM   15  C12 UNL     1      14.721 -27.041  -8.530  1.00  0.00     0.158 A
HETATM   16  N3  UNL     1      13.369 -27.386  -8.233  1.00  0.00    -0.075 NA
HETATM   17  O4  UNL     1      15.321 -25.893  -8.230  1.00  0.00    -0.290 OA
ENDBRANCH   9  12
ENDBRANCH   4   8
BRANCH   1  18
HETATM   18  S2  UNL     1      23.674 -21.609  -8.185  1.00  0.00     0.269 S
HETATM   19  O1  UNL     1      24.794 -22.331  -7.470  1.00  0.00    -0.200 OA
HETATM   20  O2  UNL     1      24.110 -21.159  -9.534  1.00  0.00    -0.200 OA
BRANCH  18  21
HETATM   21  N1  UNL     1      23.208 -20.268  -7.174  1.00  0.00    -0.239 N
ATOM     22  H1  UNL     1      23.051 -20.392  -6.174  1.00  0.00     0.189 HD
BRANCH  21  23
HETATM   23  C3  UNL     1      23.068 -19.125  -7.728  1.00  0.00     0.014 C
BRANCH  23  24
HETATM   24  S1  UNL     1      22.841 -17.746  -8.569  1.00  0.00    -0.069 SA
BRANCH  24  25
HETATM   25  C2  UNL     1      23.091 -16.185  -7.643  1.00  0.00     0.084 C
HETATM   26  C1  UNL     1      22.200 -16.080  -6.446  1.00  0.00     0.017 C
ENDBRANCH  24  25
ENDBRANCH  23  24
ENDBRANCH  21  23
ENDBRANCH  18  21
ENDBRANCH   1  18
TORSDOF 7
ENDMDL