MODEL 2
REMARK VINA RESULT: -8.232557302      3.077      5.639
REMARK  6 active torsions:
REMARK  status: ('A' for Active; 'I' for Inactive)
REMARK    1  A    between atoms: N1_1  and  C1_4
REMARK    2  A    between atoms: C3_9  and  N4_10
REMARK    3  A    between atoms: N4_10  and  N5_12
REMARK       I    between atoms: N5_12  and  C4_14
REMARK    4  A    between atoms: C4_14  and  C5_16
REMARK    5  A    between atoms: C8_21  and  S1_22
REMARK    6  A    between atoms: S1_22  and  C9_25
ROOT
HETATM    1  C1  UNL     1      24.881 -25.245  -5.358  1.00  0.00     0.122 A
HETATM    2  N2  UNL     1      25.863 -24.345  -5.538  1.00  0.00    -0.328 N
ATOM      3  H2  UNL     1      26.743 -24.445  -5.032  1.00  0.00     0.168 HD
HETATM    4  C2  UNL     1      25.687 -23.320  -6.378  1.00  0.00     0.146 A
HETATM    5  N3  UNL     1      26.741 -22.363  -6.564  1.00  0.00    -0.080 NA
HETATM    6  C3  UNL     1      24.516 -23.134  -7.090  1.00  0.00     0.090 A
HETATM    7  C7  UNL     1      23.501 -24.040  -6.922  1.00  0.00     0.062 A
HETATM    8  C8  UNL     1      23.702 -25.104  -6.041  1.00  0.00     0.110 A
ENDROOT
BRANCH   6   9
HETATM    9  N4  UNL     1      24.377 -22.038  -7.965  1.00  0.00    -0.295 N
ATOM     10  H4  UNL     1      24.306 -22.221  -8.965  1.00  0.00     0.187 HD
BRANCH   9  11
HETATM   11  N5  UNL     1      24.334 -20.816  -7.559  1.00  0.00    -0.265 N
HETATM   12  C4  UNL     1      24.659 -19.824  -8.534  1.00  0.00     0.282 C
HETATM   13  O1  UNL     1      25.805 -19.829  -9.012  1.00  0.00    -0.265 OA
ATOM     14  H5  UNL     1      24.084 -20.571  -6.601  1.00  0.00     0.190 HD
BRANCH  12  15
HETATM   15  C5  UNL     1      23.692 -18.835  -8.962  1.00  0.00     0.114 C
HETATM   16 CL1  UNL     1      23.743 -17.194  -8.305  1.00  0.00    -0.077 Cl
HETATM   17  C6  UNL     1      22.770 -19.143  -9.837  1.00  0.00     0.114 C
HETATM   18 CL2  UNL     1      22.675 -20.737 -10.510  1.00  0.00    -0.095 Cl
ENDBRANCH  12  15
ENDBRANCH   9  11
ENDBRANCH   6   9
BRANCH   8  19
HETATM   19  S1  UNL     1      22.394 -26.241  -5.857  1.00  0.00     0.210 S
HETATM   20  O2  UNL     1      22.822 -27.633  -6.271  1.00  0.00    -0.217 OA
HETATM   21  O3  UNL     1      22.016 -26.316  -4.408  1.00  0.00    -0.217 OA
BRANCH  19  22
HETATM   22  C9  UNL     1      21.053 -25.718  -6.842  1.00  0.00     0.064 A
HETATM   23  C10 UNL     1      20.028 -25.068  -6.163  1.00  0.00     0.024 A
HETATM   24  C11 UNL     1      18.946 -24.655  -6.889  1.00  0.00     0.002 A
HETATM   25  C12 UNL     1      18.880 -24.879  -8.245  1.00  0.00     0.000 A
HETATM   26  C13 UNL     1      19.909 -25.525  -8.894  1.00  0.00     0.002 A
HETATM   27  C14 UNL     1      21.019 -25.955  -8.178  1.00  0.00     0.024 A
ENDBRANCH  19  22
ENDBRANCH   8  19
BRANCH   1  28
HETATM   28  N1  UNL     1      25.019 -26.241  -4.552  1.00  0.00    -0.384 N
ATOM     29  H12 UNL     1      25.673 -26.986  -4.794  1.00  0.00     0.157 HD
ATOM     30  H11 UNL     1      24.488 -26.300  -3.682  1.00  0.00     0.157 HD
ENDBRANCH   1  28
TORSDOF 6
ENDMDL