MODEL 1
REMARK VINA RESULT: -8.496678611      0.000      0.000
REMARK  7 active torsions:
REMARK  status: ('A' for Active; 'I' for Inactive)
REMARK    1  A    between atoms: O1_1  and  C1_3
REMARK    2  A    between atoms: C3_5  and  C4_6
REMARK    3  A    between atoms: C4_6  and  O2_7
REMARK    4  A    between atoms: C4_6  and  N1_9
REMARK    5  A    between atoms: N1_9  and  N2_11
REMARK    6  A    between atoms: C5_13  and  C6_15
REMARK    7  A    between atoms: N3_22  and  C11_23
ROOT
HETATM    1  C4  UNL     1      19.430 -24.710  -8.799  1.00  0.00     0.268 C
ENDROOT
BRANCH   1   2
HETATM    2  C3  UNL     1      20.587 -23.805  -9.022  1.00  0.00     0.011 A
HETATM    3  C2  UNL     1      20.787 -22.928 -10.054  1.00  0.00     0.069 A
HETATM    4  C1  UNL     1      21.985 -22.291  -9.878  1.00  0.00     0.147 A
HETATM    5  N3  UNL     1      22.523 -22.768  -8.743  1.00  0.00    -0.302 N
HETATM    6  C10 UNL     1      21.711 -23.683  -8.196  1.00  0.00     0.111 A
BRANCH   4   7
HETATM    7  O1  UNL     1      22.559 -21.316 -10.715  1.00  0.00    -0.346 OA
ATOM      8  H1  UNL     1      22.285 -20.411 -10.814  1.00  0.00     0.219 HD
ENDBRANCH   4   7
BRANCH   5   9
HETATM    9  C11 UNL     1      23.778 -22.339  -8.225  1.00  0.00     0.041 A
HETATM   10  C12 UNL     1      24.429 -23.096  -7.274  1.00  0.00     0.030 A
HETATM   11  C13 UNL     1      25.647 -22.698  -6.760  1.00  0.00     0.002 A
HETATM   12  C14 UNL     1      26.268 -21.534  -7.166  1.00  0.00     0.000 A
HETATM   13  C15 UNL     1      25.619 -20.775  -8.117  1.00  0.00     0.002 A
HETATM   14  C16 UNL     1      24.389 -21.173  -8.639  1.00  0.00     0.030 A
ENDBRANCH   5   9
ENDBRANCH   1   2
BRANCH   1  15
HETATM   15  O2  UNL     1      19.492 -25.840  -9.593  1.00  0.00    -0.371 OA
ATOM     16  H2  UNL     1      18.675 -26.001 -10.050  1.00  0.00     0.212 HD
ENDBRANCH   1  15
BRANCH   1  17
HETATM   17  N1  UNL     1      19.294 -25.046  -7.406  1.00  0.00    -0.301 N
ATOM     18  H1  UNL     1      19.304 -24.265  -6.750  1.00  0.00     0.183 HD
BRANCH  17  19
HETATM   19  N2  UNL     1      19.153 -26.289  -6.861  1.00  0.00    -0.277 N
HETATM   20  C5  UNL     1      19.977 -27.053  -6.298  1.00  0.00     0.216 C
HETATM   21  F1  UNL     1      19.499 -28.257  -5.857  1.00  0.00    -0.184 F
ATOM     22  H2  UNL     1      18.207 -26.667  -6.923  1.00  0.00     0.189 HD
BRANCH  20  23
HETATM   23  C6  UNL     1      21.404 -26.771  -6.071  1.00  0.00     0.064 A
HETATM   24  C7  UNL     1      22.022 -26.151  -5.015  1.00  0.00     0.044 A
HETATM   25  C8  UNL     1      23.378 -26.124  -5.260  1.00  0.00     0.144 A
HETATM   26  O3  UNL     1      23.561 -26.705  -6.415  1.00  0.00    -0.314 OA
HETATM   27  C9  UNL     1      22.433 -27.107  -6.941  1.00  0.00     0.136 A
HETATM   28 BR1  UNL     1      22.229 -28.000  -8.611  1.00  0.00    -0.022 Br
ENDBRANCH  20  23
ENDBRANCH  17  19
ENDBRANCH   1  17
TORSDOF 7
ENDMDL