MODEL 5
REMARK VINA RESULT: -7.447509029      2.472      2.774
REMARK  5 active torsions:
REMARK  status: ('A' for Active; 'I' for Inactive)
REMARK    1  A    between atoms: C2_2  and  N1_4
REMARK    2  A    between atoms: C2_2  and  O1_8
REMARK    3  A    between atoms: O1_8  and  C4_9
REMARK    4  A    between atoms: C7_12  and  N2_13
REMARK    5  A    between atoms: C10_18  and  C12_20
ROOT
HETATM    1  N2  UNL     1      21.900 -24.983  -7.211  1.00  0.00    -0.276 N
HETATM    2  C8  UNL     1      22.633 -25.882  -6.339  1.00  0.00     0.368 C
HETATM    3  O2  UNL     1      23.881 -26.041  -6.350  1.00  0.00    -0.238 OA
HETATM    4  O3  UNL     1      21.699 -26.523  -5.498  1.00  0.00    -0.301 OA
HETATM    5  C9  UNL     1      20.480 -25.780  -5.676  1.00  0.00     0.218 C
HETATM    6  C10 UNL     1      20.588 -25.601  -7.213  1.00  0.00     0.105 C
HETATM    7  C11 UNL     1      19.519 -24.738  -7.763  1.00  0.00     0.048 C
ENDROOT
BRANCH   1   8
HETATM    8  C7  UNL     1      22.429 -23.814  -7.801  1.00  0.00     0.041 A
HETATM    9  C6  UNL     1      23.566 -23.164  -7.360  1.00  0.00     0.032 A
HETATM   10  C5  UNL     1      24.048 -22.016  -7.941  1.00  0.00     0.039 A
HETATM   11  C4  UNL     1      23.403 -21.423  -9.035  1.00  0.00     0.072 A
HETATM   12  C17 UNL     1      22.271 -22.058  -9.482  1.00  0.00     0.039 A
HETATM   13  C16 UNL     1      21.793 -23.211  -8.898  1.00  0.00     0.032 A
BRANCH  11  14
HETATM   14  O1  UNL     1      23.900 -20.275  -9.599  1.00  0.00    -0.313 OA
BRANCH  14  15
HETATM   15  C2  UNL     1      23.400 -19.008  -9.693  1.00  0.00     0.221 C
HETATM   16  C1  UNL     1      23.016 -18.600  -8.250  1.00  0.00     0.078 C
HETATM   17  C3  UNL     1      24.296 -17.947 -10.261  1.00  0.00     0.078 C
BRANCH  15  18
HETATM   18  N1  UNL     1      22.109 -19.050 -10.403  1.00  0.00    -0.047 N
ATOM     19  H13 UNL     1      21.510 -19.833 -10.140  1.00  0.00     0.278 HD
ATOM     20  H12 UNL     1      21.455 -18.316 -10.129  1.00  0.00     0.278 HD
ATOM     21  H11 UNL     1      22.372 -19.033 -11.388  1.00  0.00     0.278 HD
ENDBRANCH  15  18
ENDBRANCH  14  15
ENDBRANCH  11  14
ENDBRANCH   1   8
BRANCH   6  22
HETATM   22  C12 UNL     1      20.576 -26.981  -7.772  1.00  0.00     0.065 A
HETATM   23  N3  UNL     1      20.014 -28.086  -7.184  1.00  0.00    -0.343 N
HETATM   24  C13 UNL     1      20.191 -29.170  -7.947  1.00  0.00     0.140 A
ATOM     25  H3  UNL     1      19.527 -28.081  -6.287  1.00  0.00     0.167 HD
HETATM   26  N4  UNL     1      19.753 -30.504  -7.682  1.00  0.00    -0.081 NA
HETATM   27  C14 UNL     1      20.879 -28.809  -9.066  1.00  0.00     0.099 A
HETATM   28 CL1  UNL     1      21.357 -29.852 -10.370  1.00  0.00    -0.079 Cl
HETATM   29  C15 UNL     1      21.115 -27.445  -8.954  1.00  0.00     0.084 A
HETATM   30 CL2  UNL     1      21.959 -26.547 -10.176  1.00  0.00    -0.080 Cl
ENDBRANCH   6  22
TORSDOF 5
ENDMDL