MODEL 3
REMARK VINA RESULT: -8.233332306      3.483      5.130
REMARK  4 active torsions:
REMARK  status: ('A' for Active; 'I' for Inactive)
REMARK    1  A    between atoms: O1_2  and  C2_3
REMARK    2  A    between atoms: C4_12  and  S1_13
REMARK    3  A    between atoms: S1_13  and  C5_16
REMARK    4  A    between atoms: C9_21  and  C10_22
ROOT
HETATM    1  S1  UNL     1      21.907 -27.525  -7.736  1.00  0.00     0.215 S
HETATM    2  O2  UNL     1      23.389 -27.661  -7.883  1.00  0.00    -0.217 OA
HETATM    3  O3  UNL     1      21.551 -27.556  -6.258  1.00  0.00    -0.217 OA
ENDROOT
BRANCH   1   4
HETATM    4  C4  UNL     1      21.187 -28.953  -8.494  1.00  0.00     0.176 A
HETATM    5  N3  UNL     1      21.993 -29.891  -8.974  1.00  0.00    -0.179 N
HETATM    6  C3  UNL     1      21.481 -31.011  -9.567  1.00  0.00     0.678 A
ATOM      7  H3  UNL     1      23.004 -29.775  -8.901  1.00  0.00     0.185 HD
HETATM    8  N1  UNL     1      20.166 -31.154  -9.660  1.00  0.00    -0.169 N
HETATM    9  N2  UNL     1      22.270 -31.896 -10.018  1.00  0.00    -0.234 N
HETATM   10  C2  UNL     1      19.303 -30.222  -9.184  1.00  0.00     0.184 A
ATOM     11  H1  UNL     1      19.791 -31.992 -10.103  1.00  0.00     0.186 HD
HETATM   12  C17 UNL     1      19.836 -29.085  -8.581  1.00  0.00     0.136 A
HETATM   13  N4  UNL     1      18.982 -28.084  -8.069  1.00  0.00    -0.095 NA
ATOM     14  H22 UNL     1      21.888 -32.731 -10.461  1.00  0.00     0.174 HD
ATOM     15  H21 UNL     1      23.281 -31.786  -9.947  1.00  0.00     0.174 HD
BRANCH  10  16
HETATM   16  O1  UNL     1      17.939 -30.385  -9.287  1.00  0.00    -0.339 OA
HETATM   17  C1  UNL     1      17.290 -30.646 -10.516  1.00  0.00     0.211 C
ENDBRANCH  10  16
ENDBRANCH   1   4
BRANCH   1  18
HETATM   18  C5  UNL     1      21.247 -26.110  -8.439  1.00  0.00     0.122 C
HETATM   19  C6  UNL     1      21.432 -24.867  -8.191  1.00  0.00    -0.027 C
HETATM   20  C7  UNL     1      20.648 -23.818  -9.046  1.00  0.00     0.201 C
HETATM   21  C14 UNL     1      22.165 -23.953  -7.329  1.00  0.00    -0.016 C
HETATM   22  F1  UNL     1      20.206 -24.367 -10.200  1.00  0.00    -0.245 F
HETATM   23  C8  UNL     1      21.686 -22.737  -9.258  1.00  0.00     0.048 C
HETATM   24  C9  UNL     1      22.859 -23.127  -8.377  1.00  0.00     0.008 C
HETATM   25  C15 UNL     1      21.110 -23.138  -6.584  1.00  0.00     0.020 C
HETATM   26  C16 UNL     1      23.051 -24.583  -6.347  1.00  0.00     0.020 C
BRANCH  24  27
HETATM   27  C10 UNL     1      23.692 -22.003  -7.994  1.00  0.00    -0.047 C
HETATM   28  C11 UNL     1      23.912 -21.183  -9.293  1.00  0.00     0.015 C
HETATM   29  C12 UNL     1      23.078 -20.981  -7.047  1.00  0.00     0.015 C
HETATM   30  C13 UNL     1      25.059 -22.283  -7.483  1.00  0.00     0.015 C
ENDBRANCH  24  27
ENDBRANCH   1  18
TORSDOF 4
ENDMDL