MODEL 4
REMARK VINA RESULT: -7.521664185      3.132      4.688
REMARK  7 active torsions:
REMARK  status: ('A' for Active; 'I' for Inactive)
REMARK    1  A    between atoms: C2_2  and  C5_5
REMARK    2  A    between atoms: C5_5  and  C6_6
REMARK    3  A    between atoms: C5_5  and  C7_11
REMARK    4  A    between atoms: C6_6  and  N1_7
REMARK    5  A    between atoms: C7_11  and  N2_12
REMARK    6  A    between atoms: N2_12  and  C8_14
REMARK    7  A    between atoms: C13_24  and  C14_25
ROOT
HETATM    1  C8  UNL     1      21.376 -22.913 -10.765  1.00  0.00     0.701 A
HETATM    2  N3  UNL     1      20.971 -23.129 -12.013  1.00  0.00    -0.177 N
ATOM      3  H3  UNL     1      20.909 -22.338 -12.654  1.00  0.00     0.185 HD
HETATM    4  C9  UNL     1      20.637 -24.359 -12.461  1.00  0.00     0.145 A
HETATM    5 CL1  UNL     1      20.108 -24.616 -14.105  1.00  0.00    -0.062 Cl
HETATM    6  C10 UNL     1      20.721 -25.434 -11.594  1.00  0.00     0.116 A
HETATM    7  N4  UNL     1      20.381 -26.748 -12.017  1.00  0.00    -0.097 NA
HETATM    8  C11 UNL     1      21.140 -25.214 -10.303  1.00  0.00     0.126 A
HETATM    9  C12 UNL     1      21.323 -26.056  -9.218  1.00  0.00     0.096 A
HETATM   10 CL2  UNL     1      21.047 -27.776  -9.205  1.00  0.00    -0.079 Cl
HETATM   11  C13 UNL     1      21.759 -25.296  -8.163  1.00  0.00     0.107 A
HETATM   12  N5  UNL     1      21.819 -24.045  -8.651  1.00  0.00    -0.275 N
ATOM     13  H5  UNL     1      22.113 -23.236  -8.103  1.00  0.00     0.188 HD
HETATM   14  N6  UNL     1      21.455 -23.978  -9.918  1.00  0.00    -0.082 N
ENDROOT
BRANCH   1  15
HETATM   15  N2  UNL     1      21.699 -21.777 -10.281  1.00  0.00    -0.224 N
ATOM     16  H2  UNL     1      21.443 -20.957 -10.832  1.00  0.00     0.177 HD
BRANCH  15  17
HETATM   17  C7  UNL     1      22.373 -21.533  -9.059  1.00  0.00     0.145 C
BRANCH  17  18
HETATM   18  C5  UNL     1      23.803 -21.157  -9.328  1.00  0.00     0.037 C
BRANCH  18  19
HETATM   19  C2  UNL     1      24.583 -21.254  -8.037  1.00  0.00    -0.045 C
HETATM   20  C1  UNL     1      24.547 -22.620  -7.423  1.00  0.00     0.015 C
HETATM   21  C3  UNL     1      23.889 -20.306  -7.050  1.00  0.00     0.015 C
HETATM   22  C4  UNL     1      26.001 -20.800  -8.160  1.00  0.00     0.015 C
ENDBRANCH  18  19
BRANCH  18  23
HETATM   23  C6  UNL     1      23.913 -19.774  -9.932  1.00  0.00     0.236 C
BRANCH  23  24
HETATM   24  N1  UNL     1      24.876 -19.672 -10.986  1.00  0.00    -0.079 N
ATOM     25  H13 UNL     1      25.009 -20.576 -11.437  1.00  0.00     0.274 HD
ATOM     26  H12 UNL     1      24.494 -19.142 -11.770  1.00  0.00     0.274 HD
ATOM     27  H11 UNL     1      25.772 -19.281 -10.694  1.00  0.00     0.274 HD
ENDBRANCH  23  24
ENDBRANCH  18  23
ENDBRANCH  17  18
ENDBRANCH  15  17
ENDBRANCH   1  15
BRANCH  11  28
HETATM   28  C14 UNL     1      22.096 -25.699  -6.798  1.00  0.00     0.104 A
HETATM   29  C15 UNL     1      21.277 -25.903  -5.741  1.00  0.00     0.041 A
HETATM   30  C16 UNL     1      22.087 -26.274  -4.673  1.00  0.00     0.027 A
HETATM   31  C17 UNL     1      23.367 -26.276  -5.138  1.00  0.00     0.142 A
HETATM   32  O1  UNL     1      23.326 -25.935  -6.383  1.00  0.00    -0.320 OA
ENDBRANCH  11  28
TORSDOF 7
ENDMDL