MODEL 2
REMARK VINA RESULT: -8.141625336      3.361      8.115
REMARK  4 active torsions:
REMARK  status: ('A' for Active; 'I' for Inactive)
REMARK    1  A    between atoms: C2_2  and  C3_3
REMARK    2  A    between atoms: C6_8  and  C7_9
REMARK    3  A    between atoms: C7_9  and  N3_13
REMARK       I    between atoms: N3_13  and  C10_15
REMARK       I    between atoms: C10_15  and  N4_17
REMARK    4  A    between atoms: N4_17  and  C11_19
ROOT
HETATM    1  C7  UNL     1      21.305 -25.378  -6.564  1.00  0.00     0.171 C
HETATM    2  C8  UNL     1      19.906 -24.924  -6.264  1.00  0.00     0.063 C
HETATM    3  C9  UNL     1      21.834 -25.959  -5.319  1.00  0.00     0.098 C
HETATM    4  N2  UNL     1      22.257 -26.422  -4.360  1.00  0.00    -0.194 NA
ENDROOT
BRANCH   1   5
HETATM    5  C6  UNL     1      22.191 -24.328  -7.095  1.00  0.00     0.125 A
HETATM    6  C5  UNL     1      21.786 -23.438  -8.076  1.00  0.00     0.098 A
HETATM    7  C4  UNL     1      22.648 -22.454  -8.560  1.00  0.00     0.050 A
HETATM    8  N1  UNL     1      20.497 -23.498  -8.615  1.00  0.00    -0.098 NA
HETATM    9  S1  UNL     1      22.521 -21.216  -9.724  1.00  0.00    -0.090 SA
HETATM   10  C15 UNL     1      23.921 -22.319  -8.094  1.00  0.00     0.081 A
HETATM   11  C3  UNL     1      24.089 -20.556  -9.592  1.00  0.00     0.006 A
HETATM   12  C16 UNL     1      24.677 -21.326  -8.633  1.00  0.00     0.064 A
HETATM   13 CL1  UNL     1      26.374 -20.975  -8.167  1.00  0.00    -0.082 Cl
HETATM   14  C14 UNL     1      24.262 -23.260  -7.096  1.00  0.00     0.301 A
HETATM   15  O2  UNL     1      23.426 -24.143  -6.691  1.00  0.00    -0.273 OA
HETATM   16  O3  UNL     1      25.407 -23.245  -6.582  1.00  0.00    -0.259 OA
BRANCH  11  17
HETATM   17  C2  UNL     1      24.699 -19.395 -10.350  1.00  0.00     0.043 C
HETATM   18  C1  UNL     1      23.886 -18.174 -10.008  1.00  0.00     0.010 C
ENDBRANCH  11  17
ENDBRANCH   1   5
BRANCH   1  19
HETATM   19  N3  UNL     1      21.242 -26.442  -7.547  1.00  0.00    -0.316 N
HETATM   20  C10 UNL     1      20.445 -27.601  -7.368  1.00  0.00     0.318 C
HETATM   21  O1  UNL     1      19.737 -27.780  -6.342  1.00  0.00    -0.247 OA
HETATM   22  N4  UNL     1      20.422 -28.609  -8.358  1.00  0.00    -0.339 N
ATOM     23  H4  UNL     1      20.991 -28.476  -9.194  1.00  0.00     0.164 HD
ATOM     24  H3  UNL     1      21.793 -26.353  -8.400  1.00  0.00     0.166 HD
BRANCH  22  25
HETATM   25  C11 UNL     1      19.639 -29.818  -8.251  1.00  0.00     0.078 C
HETATM   26  C12 UNL     1      18.572 -29.875  -9.318  1.00  0.00     0.032 C
HETATM   27  C13 UNL     1      20.599 -30.987  -8.469  1.00  0.00     0.032 C
ENDBRANCH  22  25
ENDBRANCH   1  19
TORSDOF 4
ENDMDL