MODEL 5
REMARK VINA RESULT: -8.321462684      2.650      6.897
REMARK  7 active torsions:
REMARK  status: ('A' for Active; 'I' for Inactive)
REMARK    1  A    between atoms: C2_2  and  C3_3
REMARK    2  A    between atoms: C3_3  and  C4_4
REMARK    3  A    between atoms: C9_10  and  O1_11
REMARK    4  A    between atoms: N1_15  and  C11_16
REMARK    5  A    between atoms: C14_19  and  O3_20
REMARK    6  A    between atoms: C15_22  and  O4_23
REMARK    7  A    between atoms: N2_28  and  C18_29
ROOT
HETATM    1  C4  UNL     1      18.951 -26.419  -8.823  1.00  0.00     0.001 A
HETATM    2  C5  UNL     1      19.657 -27.326  -8.060  1.00  0.00     0.045 A
HETATM    3 CL1  UNL     1      19.009 -28.953  -7.809  1.00  0.00    -0.084 Cl
HETATM    4  C6  UNL     1      20.870 -27.016  -7.474  1.00  0.00     0.055 A
HETATM    5  C7  UNL     1      21.419 -25.763  -7.639  1.00  0.00     0.059 A
HETATM    6  C8  UNL     1      20.731 -24.835  -8.400  1.00  0.00     0.093 A
HETATM    7  C9  UNL     1      19.498 -25.171  -8.988  1.00  0.00     0.091 A
HETATM    8  C10 UNL     1      21.279 -23.582  -8.570  1.00  0.00     0.271 A
HETATM    9  O2  UNL     1      20.634 -22.758  -9.265  1.00  0.00    -0.266 OA
HETATM   10  N1  UNL     1      22.459 -23.279  -8.002  1.00  0.00    -0.229 N
HETATM   11  C17 UNL     1      23.082 -24.212  -7.278  1.00  0.00     0.337 A
HETATM   12  O5  UNL     1      24.198 -23.887  -6.755  1.00  0.00    -0.246 OA
HETATM   13  N2  UNL     1      22.593 -25.446  -7.081  1.00  0.00    -0.298 N
ENDROOT
BRANCH  10  14
HETATM   14  C11 UNL     1      22.972 -21.975  -8.212  1.00  0.00     0.050 A
HETATM   15  C12 UNL     1      22.888 -21.050  -7.202  1.00  0.00     0.033 A
HETATM   16  C13 UNL     1      23.379 -19.748  -7.358  1.00  0.00     0.041 A
HETATM   17  C14 UNL     1      23.966 -19.375  -8.554  1.00  0.00     0.098 A
HETATM   18  C15 UNL     1      24.051 -20.300  -9.570  1.00  0.00     0.101 A
HETATM   19  C16 UNL     1      23.561 -21.574  -9.392  1.00  0.00     0.069 A
BRANCH  17  20
HETATM   20  O3  UNL     1      24.448 -18.078  -8.694  1.00  0.00    -0.358 OA
ATOM     21  H3  UNL     1      24.628 -17.744  -9.565  1.00  0.00     0.217 HD
ENDBRANCH  17  20
BRANCH  18  22
HETATM   22  O4  UNL     1      24.635 -19.923 -10.757  1.00  0.00    -0.358 OA
ATOM     23  H4  UNL     1      24.213 -20.172 -11.571  1.00  0.00     0.217 HD
ENDBRANCH  18  22
ENDBRANCH  10  14
BRANCH  13  24
HETATM   24  C18 UNL     1      23.318 -26.383  -6.285  1.00  0.00     0.129 C
HETATM   25  C19 UNL     1      22.966 -26.233  -4.799  1.00  0.00     0.027 C
ENDBRANCH  13  24
BRANCH   7  26
HETATM   26  O1  UNL     1      18.911 -24.178  -9.715  1.00  0.00    -0.359 OA
ATOM     27  H1  UNL     1      19.212 -23.905 -10.573  1.00  0.00     0.217 HD
ENDBRANCH   7  26
BRANCH   1  28
HETATM   28  C3  UNL     1      17.657 -26.739  -9.452  1.00  0.00     0.069 C
BRANCH  28  29
HETATM   29  C2  UNL     1      16.500 -26.407  -8.607  1.00  0.00    -0.032 C
HETATM   30  C1  UNL     1      15.292 -26.793  -8.957  1.00  0.00     0.007 C
ENDBRANCH  28  29
ENDBRANCH   1  28
TORSDOF 7
ENDMDL