MODEL 3
REMARK VINA RESULT: -7.300222717      2.795      3.950
REMARK  8 active torsions:
REMARK  status: ('A' for Active; 'I' for Inactive)
REMARK    1  A    between atoms: C2_2  and  S1_5
REMARK    2  A    between atoms: S1_5  and  C5_6
REMARK    3  A    between atoms: C5_6  and  C6_7
REMARK    4  A    between atoms: C7_9  and  O2_10
REMARK    5  A    between atoms: O2_10  and  C8_11
REMARK    6  A    between atoms: C14_19  and  O3_20
REMARK    7  A    between atoms: C15_22  and  O4_23
REMARK    8  A    between atoms: C16_25  and  O5_26
ROOT
HETATM    1  C6  UNL     1      17.406 -26.768  -8.689  1.00  0.00     0.165 C
HETATM    2  O1  UNL     1      18.110 -25.669  -9.178  1.00  0.00    -0.349 OA
HETATM    3  C7  UNL     1      17.926 -24.642  -8.257  1.00  0.00     0.298 C
HETATM    4  C14 UNL     1      16.499 -24.465  -7.814  1.00  0.00     0.205 C
HETATM    5  C15 UNL     1      15.492 -25.217  -8.628  1.00  0.00     0.183 C
HETATM    6  C16 UNL     1      15.964 -26.560  -9.098  1.00  0.00     0.179 C
ENDROOT
BRANCH   3   7
HETATM    7  O2  UNL     1      18.761 -24.922  -7.166  1.00  0.00    -0.316 OA
BRANCH   7   8
HETATM    8  C8  UNL     1      20.127 -24.778  -7.103  1.00  0.00     0.095 A
HETATM    9  C9  UNL     1      20.837 -23.655  -7.441  1.00  0.00     0.039 A
HETATM   10  C10 UNL     1      22.221 -23.573  -7.353  1.00  0.00     0.005 A
HETATM   11  C11 UNL     1      22.924 -24.674  -6.904  1.00  0.00     0.026 A
HETATM   12  C12 UNL     1      22.246 -25.833  -6.551  1.00  0.00     0.058 A
HETATM   13 CL1  UNL     1      23.191 -27.207  -5.984  1.00  0.00    -0.082 Cl
HETATM   14  C13 UNL     1      20.894 -25.862  -6.654  1.00  0.00     0.089 A
HETATM   15 CL2  UNL     1      20.055 -27.334  -6.201  1.00  0.00    -0.080 Cl
ENDBRANCH   7   8
ENDBRANCH   3   7
BRANCH   4  16
HETATM   16  O3  UNL     1      16.218 -23.098  -7.820  1.00  0.00    -0.388 OA
ATOM     17  H3  UNL     1      15.276 -22.996  -7.895  1.00  0.00     0.210 HD
ENDBRANCH   4  16
BRANCH   1  18
HETATM   18  C5  UNL     1      17.949 -28.071  -9.212  1.00  0.00     0.109 C
BRANCH  18  19
HETATM   19  S1  UNL     1      19.578 -27.878  -9.977  1.00  0.00    -0.158 SA
BRANCH  19  20
HETATM   20  C2  UNL     1      20.574 -29.313  -9.491  1.00  0.00    -0.003 C
HETATM   21  C1  UNL     1      21.935 -28.887  -8.981  1.00  0.00     0.026 C
HETATM   22  C3  UNL     1      20.791 -30.169 -10.718  1.00  0.00     0.026 C
HETATM   23  C4  UNL     1      19.848 -30.094  -8.440  1.00  0.00     0.026 C
ENDBRANCH  19  20
ENDBRANCH  18  19
ENDBRANCH   1  18
BRANCH   5  24
HETATM   24  O4  UNL     1      14.317 -25.315  -7.872  1.00  0.00    -0.390 OA
ATOM     25  H4  UNL     1      13.791 -26.014  -8.243  1.00  0.00     0.210 HD
ENDBRANCH   5  24
BRANCH   6  26
HETATM   26  O5  UNL     1      15.218 -27.619  -8.584  1.00  0.00    -0.390 OA
ATOM     27  H5  UNL     1      15.105 -27.470  -7.652  1.00  0.00     0.210 HD
ENDBRANCH   6  26
TORSDOF 8
ENDMDL