MODEL 1
REMARK VINA RESULT: -6.681278473      0.000      0.000
REMARK  9 active torsions:
REMARK  status: ('A' for Active; 'I' for Inactive)
REMARK    1  A    between atoms: C2_2  and  C3_3
REMARK    2  A    between atoms: C2_2  and  C17_26
REMARK    3  A    between atoms: C3_3  and  O1_4
REMARK    4  A    between atoms: C3_3  and  N1_6
REMARK    5  A    between atoms: N1_6  and  C4_7
REMARK    6  A    between atoms: C8_12  and  C9_13
REMARK    7  A    between atoms: C8_12  and  N4_19
REMARK    8  A    between atoms: C10_14  and  C11_15
REMARK    9  A    between atoms: C11_15  and  N3_16
ROOT
HETATM    1  C4  UNL     1      10.920  34.947  16.512  1.00  0.00     0.181 C
HETATM    2  C5  UNL     1       9.400  34.484  16.448  1.00  0.00     0.321 C
HETATM    3  N2  UNL     1       9.290  33.936  15.076  1.00  0.00    -0.002 N
HETATM    4  C6  UNL     1      10.042  32.678  15.160  1.00  0.00     0.279 C
HETATM    5  C7  UNL     1       7.861  33.573  15.014  1.00  0.00     0.279 C
HETATM    6  C8  UNL     1       9.697  34.826  14.066  1.00  0.00     0.466 C
HETATM    7  N5  UNL     1      10.155  36.143  14.538  1.00  0.00    -0.286 N
ATOM      8  H5  UNL     1       9.860  37.013  14.093  1.00  0.00     0.168 HD
HETATM    9  C16 UNL     1      11.036  36.124  15.658  1.00  0.00     0.283 C
HETATM   10  O2  UNL     1      11.859  37.039  15.925  1.00  0.00    -0.265 OA
ENDROOT
BRANCH   1  11
HETATM   11  N1  UNL     1      11.645  34.273  17.141  1.00  0.00    -0.378 NA
BRANCH  11  12
HETATM   12  C3  UNL     1      12.482  33.521  17.859  1.00  0.00     0.217 C
BRANCH  12  13
HETATM   13  C2  UNL     1      12.709  33.539  19.327  1.00  0.00    -0.014 C
HETATM   14  C1  UNL     1      11.445  33.577  20.148  1.00  0.00     0.049 C
BRANCH  13  15
HETATM   15  C17 UNL     1      13.855  34.295  19.858  1.00  0.00     0.019 C
HETATM   16  C18 UNL     1      14.275  35.538  19.152  1.00  0.00     0.009 C
HETATM   17  C19 UNL     1      13.701  36.793  19.819  1.00  0.00     0.001 C
HETATM   18  C20 UNL     1      14.160  36.945  21.235  1.00  0.00     0.000 C
HETATM   19  C21 UNL     1      14.693  35.660  21.770  1.00  0.00     0.001 C
HETATM   20  C22 UNL     1      13.741  34.566  21.355  1.00  0.00     0.009 C
ENDBRANCH  13  15
ENDBRANCH  12  13
BRANCH  12  21
HETATM   21  O1  UNL     1      13.169  32.654  17.145  1.00  0.00    -0.335 OA
ATOM     22  H1  UNL     1      13.728  32.994  16.456  1.00  0.00     0.220 HD
ENDBRANCH  12  21
ENDBRANCH  11  12
ENDBRANCH   1  11
BRANCH   6  23
HETATM   23  C9  UNL     1       8.527  35.125  13.161  1.00  0.00    -0.010 C
HETATM   24  C10 UNL     1       7.579  35.428  12.441  1.00  0.00    -0.070 C
BRANCH  24  25
HETATM   25  C11 UNL     1       6.448  35.856  11.590  1.00  0.00     0.364 C
BRANCH  25  26
HETATM   26  N3  UNL     1       5.743  36.969  12.235  1.00  0.00     0.090 N
HETATM   27  C12 UNL     1       4.302  36.855  12.015  1.00  0.00     0.310 C
HETATM   28  C13 UNL     1       6.203  38.226  11.591  1.00  0.00     0.310 C
ENDBRANCH  25  26
ENDBRANCH  24  25
ENDBRANCH   6  23
BRANCH   6  29
HETATM   29  N4  UNL     1      10.727  34.316  13.179  1.00  0.00     0.151 N
HETATM   30  C14 UNL     1      10.238  33.454  12.151  1.00  0.00     0.316 C
HETATM   31  C15 UNL     1      11.576  35.281  12.572  1.00  0.00     0.316 C
ENDBRANCH   6  29
TORSDOF 9
ENDMDL