MODEL 3
REMARK VINA RESULT: -6.118697448      4.288      5.110
REMARK  5 active torsions:
REMARK  status: ('A' for Active; 'I' for Inactive)
REMARK       I    between atoms: N1_5  and  C5_6
REMARK    1  A    between atoms: C5_6  and  C6_8
REMARK    2  A    between atoms: C16_21  and  N2_22
REMARK    3  A    between atoms: N2_22  and  C18_24
REMARK    4  A    between atoms: C18_24  and  C19_25
REMARK    5  A    between atoms: C19_25  and  O3_26
ROOT
HETATM    1  C1  UNL     1      13.160  32.919  19.162  1.00  0.00     0.012 C
HETATM    2  C2  UNL     1      12.354  34.009  18.435  1.00  0.00     0.026 C
HETATM    3  C3  UNL     1      10.916  33.695  18.472  1.00  0.00     0.027 C
HETATM    4  C4  UNL     1      10.213  33.496  17.195  1.00  0.00     0.135 C
HETATM    5  N1  UNL     1      10.676  34.290  16.076  1.00  0.00    -0.285 N
HETATM    6  C5  UNL     1       9.803  34.880  15.136  1.00  0.00     0.240 C
HETATM    7  O1  UNL     1      10.314  35.545  14.210  1.00  0.00    -0.272 OA
HETATM    8  C15 UNL     1      12.082  34.440  15.976  1.00  0.00     0.260 C
HETATM    9  O2  UNL     1      12.633  34.688  14.850  1.00  0.00    -0.270 OA
HETATM   10  C16 UNL     1      12.978  34.325  17.129  1.00  0.00     0.318 C
ENDROOT
BRANCH   6  11
HETATM   11  C6  UNL     1       8.332  34.774  15.162  1.00  0.00     0.142 C
HETATM   12  C7  UNL     1       7.754  33.643  14.429  1.00  0.00     0.040 C
HETATM   13  C8  UNL     1       7.038  33.855  13.162  1.00  0.00     0.046 C
HETATM   14  C9  UNL     1       7.411  35.015  12.342  1.00  0.00     0.021 C
HETATM   15  S1  UNL     1       5.476  34.583  13.449  1.00  0.00    -0.200 SA
HETATM   16  C10 UNL     1       6.901  35.032  10.957  1.00  0.00     0.007 C
HETATM   17  C14 UNL     1       6.562  35.964  13.206  1.00  0.00     0.105 C
HETATM   18  C11 UNL     1       6.130  33.843  10.501  1.00  0.00     0.001 C
HETATM   19  C12 UNL     1       4.725  33.735  10.934  1.00  0.00     0.009 C
HETATM   20  C13 UNL     1       4.294  34.327  12.199  1.00  0.00     0.065 C
HETATM   21  S2  UNL     1       7.525  36.310  14.681  1.00  0.00    -0.140 SA
ENDBRANCH   6  11
BRANCH  10  22
HETATM   22  N2  UNL     1      13.876  35.468  17.183  1.00  0.00     0.100 N
HETATM   23  C17 UNL     1      15.237  35.028  17.244  1.00  0.00     0.311 C
BRANCH  22  24
HETATM   24  C18 UNL     1      13.500  36.465  18.124  1.00  0.00     0.299 C
BRANCH  24  25
HETATM   25  C19 UNL     1      14.686  36.721  19.035  1.00  0.00     0.194 C
BRANCH  25  26
HETATM   26  O3  UNL     1      14.670  38.057  19.417  1.00  0.00    -0.399 OA
ATOM     27  H3  UNL     1      13.900  38.469  19.042  1.00  0.00     0.209 HD
ENDBRANCH  25  26
ENDBRANCH  24  25
ENDBRANCH  22  24
ENDBRANCH  10  22
TORSDOF 5
ENDMDL