MODEL 5
REMARK VINA RESULT: -7.601259513      2.573      4.270
REMARK  4 active torsions:
REMARK  status: ('A' for Active; 'I' for Inactive)
REMARK    1  A    between atoms: C5_6  and  C6_7
REMARK    2  A    between atoms: C6_7  and  N1_8
REMARK    3  A    between atoms: C12_14  and  N2_15
REMARK    4  A    between atoms: C19_25  and  C20_26
ROOT
HETATM    1  N1  UNL     1      11.632  34.192  15.012  1.00  0.00    -0.064 N
HETATM    2  C7  UNL     1      10.876  33.220  15.708  1.00  0.00     0.238 C
HETATM    3  C8  UNL     1       9.813  32.624  14.782  1.00  0.00     0.034 C
HETATM    4  C9  UNL     1      10.351  32.705  13.341  1.00  0.00     0.024 C
HETATM    5  C10 UNL     1      10.213  34.207  13.027  1.00  0.00     0.034 C
HETATM    6  C11 UNL     1      10.688  34.989  14.205  1.00  0.00     0.238 C
HETATM    7  C12 UNL     1      11.790  32.309  13.428  1.00  0.00     0.253 C
HETATM    8  C17 UNL     1      12.499  33.550  13.982  1.00  0.00     0.273 C
ENDROOT
BRANCH   1   9
HETATM    9  C6  UNL     1      12.476  35.064  15.717  1.00  0.00     0.254 C
BRANCH   9  10
HETATM   10  C5  UNL     1      12.409  35.250  17.168  1.00  0.00     0.137 C
HETATM   11  C4  UNL     1      13.460  34.668  18.019  1.00  0.00     0.166 C
HETATM   12  S1  UNL     1      12.878  33.885  19.587  1.00  0.00    -0.131 SA
HETATM   13  N3  UNL     1      13.806  35.985  18.608  1.00  0.00    -0.321 N
HETATM   14  C2  UNL     1      13.750  34.982  20.758  1.00  0.00     0.033 C
HETATM   15  C1  UNL     1      14.566  34.171  21.718  1.00  0.00     0.029 C
HETATM   16  C3  UNL     1      12.765  35.894  21.432  1.00  0.00     0.029 C
HETATM   17  C19 UNL     1      14.638  35.764  19.782  1.00  0.00     0.207 C
HETATM   18  C18 UNL     1      13.047  36.568  17.563  1.00  0.00     0.230 C
HETATM   19  O2  UNL     1      12.967  37.752  17.154  1.00  0.00    -0.273 OA
BRANCH  17  20
HETATM   20  C20 UNL     1      15.005  37.080  20.329  1.00  0.00     0.198 C
HETATM   21  O3  UNL     1      14.798  38.149  19.735  1.00  0.00    -0.646 OA
HETATM   22  O4  UNL     1      15.622  37.137  21.588  1.00  0.00    -0.646 OA
ENDBRANCH  17  20
ENDBRANCH   9  10
ENDBRANCH   1   9
BRANCH   7  23
HETATM   23  N2  UNL     1      12.417  31.771  12.306  1.00  0.00     0.099 N
HETATM   24  C13 UNL     1      13.614  32.510  11.958  1.00  0.00     0.299 C
HETATM   25  C14 UNL     1      14.357  31.839  10.809  1.00  0.00     0.198 C
HETATM   26  O1  UNL     1      14.884  30.624  11.237  1.00  0.00    -0.388 OA
HETATM   27  C15 UNL     1      14.199  30.089  12.320  1.00  0.00     0.198 C
HETATM   28  C16 UNL     1      12.696  30.399  12.204  1.00  0.00     0.299 C
ENDBRANCH   7  23
TORSDOF 4
ENDMDL