MODEL 4
REMARK VINA RESULT: -6.766450586      2.492      3.410
REMARK  3 active torsions:
REMARK  status: ('A' for Active; 'I' for Inactive)
REMARK    1  A    between atoms: C5_9  and  C6_10
REMARK    2  A    between atoms: C11_17  and  O1_18
REMARK    3  A    between atoms: C17_25  and  N5_26
ROOT
HETATM    1  C1  UNL     1      11.246  41.109   8.520  1.00  0.00     0.038 C
HETATM    2  C2  UNL     1      11.607  40.009   9.416  1.00  0.00     0.004 C
HETATM    3  C3  UNL     1      12.345  38.936   9.206  1.00  0.00     0.135 C
HETATM    4  C4  UNL     1      12.546  37.995  10.290  1.00  0.00     0.193 C
HETATM    5  N1  UNL     1      12.355  38.528  11.652  1.00  0.00    -0.323 N
ATOM      6  H1  UNL     1      12.259  39.530  11.812  1.00  0.00     0.181 HD
HETATM    7  N2  UNL     1      12.309  37.618  12.728  1.00  0.00    -0.306 N
ATOM      8  H2  UNL     1      11.960  38.022  13.598  1.00  0.00     0.186 HD
HETATM    9  C5  UNL     1      12.624  36.372  12.819  1.00  0.00     0.066 C
HETATM   10  C15 UNL     1      13.144  35.581  11.695  1.00  0.00     0.332 C
HETATM   11  N4  UNL     1      14.100  36.174  10.844  1.00  0.00     0.106 N
HETATM   12  C16 UNL     1      14.033  35.658   9.462  1.00  0.00     0.319 C
HETATM   13  C17 UNL     1      14.474  37.044   9.020  1.00  0.00     0.242 C
HETATM   14  C20 UNL     1      13.832  37.594   7.833  1.00  0.00     0.288 C
HETATM   15  N6  UNL     1      12.899  38.665   7.946  1.00  0.00    -0.044 N
HETATM   16  C21 UNL     1      13.567  39.876   7.440  1.00  0.00     0.279 C
HETATM   17  C22 UNL     1      11.781  38.405   7.001  1.00  0.00     0.279 C
HETATM   18  C23 UNL     1      13.936  37.466  10.327  1.00  0.00     0.295 C
ENDROOT
BRANCH   9  19
HETATM   19  C6  UNL     1      12.467  35.674  14.093  1.00  0.00     0.018 A
HETATM   20  C7  UNL     1      13.495  35.090  14.794  1.00  0.00     0.102 A
HETATM   21  N3  UNL     1      12.963  34.524  15.916  1.00  0.00    -0.364 N
HETATM   22  C8  UNL     1      11.646  34.742  15.930  1.00  0.00     0.043 A
ATOM     23  H3  UNL     1      13.487  34.018  16.630  1.00  0.00     0.165 HD
HETATM   24  C9  UNL     1      10.664  34.385  16.828  1.00  0.00     0.033 A
HETATM   25  C14 UNL     1      11.287  35.464  14.798  1.00  0.00     0.007 A
HETATM   26  C10 UNL     1       9.356  34.746  16.591  1.00  0.00     0.039 A
HETATM   27  C11 UNL     1       8.988  35.463  15.473  1.00  0.00     0.069 A
HETATM   28  C13 UNL     1       9.993  35.821  14.564  1.00  0.00     0.051 A
BRANCH  27  29
HETATM   29  O1  UNL     1       7.659  35.829  15.232  1.00  0.00    -0.356 OA
HETATM   30  C12 UNL     1       7.328  36.203  13.909  1.00  0.00     0.210 C
ENDBRANCH  27  29
ENDBRANCH   9  19
BRANCH  13  31
HETATM   31  N5  UNL     1      15.915  37.071   8.989  1.00  0.00     0.095 N
HETATM   32  C18 UNL     1      16.468  36.136   8.052  1.00  0.00     0.310 C
HETATM   33  C19 UNL     1      16.521  38.353   8.950  1.00  0.00     0.310 C
ENDBRANCH  13  31
TORSDOF 3
ENDMDL