MODEL 1
REMARK VINA RESULT: -6.900947166      0.000      0.000
REMARK  5 active torsions:
REMARK  status: ('A' for Active; 'I' for Inactive)
REMARK    1  A    between atoms: C4_4  and  C5_5
REMARK    2  A    between atoms: N1_9  and  O1_10
REMARK    3  A    between atoms: C10_15  and  C11_16
REMARK    4  A    between atoms: C12_17  and  C13_18
REMARK       I    between atoms: C13_18  and  N3_20
REMARK    5  A    between atoms: N3_20  and  C14_22
ROOT
HETATM    1  C1  UNL     1      15.129  35.036   9.683  1.00  0.00     0.018 C
HETATM    2  C2  UNL     1      14.823  33.961  10.171  1.00  0.00    -0.076 C
HETATM    3  C3  UNL     1      14.442  32.703  10.749  1.00  0.00     0.039 A
HETATM    4  C4  UNL     1      14.854  31.500  10.206  1.00  0.00    -0.014 A
HETATM    5  C7  UNL     1      14.498  30.284  10.747  1.00  0.00     0.046 A
HETATM    6  C8  UNL     1      14.980  29.007  10.108  1.00  0.00     0.071 C
HETATM    7  N1  UNL     1      13.731  30.243  11.833  1.00  0.00    -0.211 N
HETATM    8  C9  UNL     1      13.298  31.404  12.407  1.00  0.00     0.145 A
HETATM    9  N2  UNL     1      12.531  31.637  13.484  1.00  0.00    -0.341 N
ATOM     10  H2  UNL     1      12.133  30.904  14.070  1.00  0.00     0.167 HD
HETATM   11  C10 UNL     1      12.353  32.953  13.695  1.00  0.00     0.037 A
HETATM   12  C20 UNL     1      13.060  33.602  12.674  1.00  0.00     0.044 A
HETATM   13  C21 UNL     1      13.640  32.634  11.885  1.00  0.00     0.032 A
ENDROOT
BRANCH   4  14
HETATM   14  C5  UNL     1      15.712  31.506   8.993  1.00  0.00     0.037 C
HETATM   15  C6  UNL     1      14.909  31.546   7.720  1.00  0.00     0.010 C
ENDBRANCH   4  14
BRANCH   7  16
HETATM   16  O1  UNL     1      13.348  29.061  12.413  1.00  0.00    -0.281 OA
ATOM     17  H1  UNL     1      12.465  28.718  12.329  1.00  0.00     0.245 HD
ENDBRANCH   7  16
BRANCH  11  18
HETATM   18  C11 UNL     1      11.596  33.652  14.742  1.00  0.00     0.170 C
HETATM   19  C12 UNL     1      12.432  34.690  15.460  1.00  0.00     0.209 C
HETATM   20  N4  UNL     1      11.595  35.834  15.612  1.00  0.00    -0.323 N
HETATM   21  C17 UNL     1      11.908  37.135  16.168  1.00  0.00     0.155 C
HETATM   22  C18 UNL     1      10.304  35.506  15.099  1.00  0.00     0.321 C
HETATM   23  O3  UNL     1       9.241  36.122  15.323  1.00  0.00    -0.247 OA
HETATM   24  N5  UNL     1      10.417  34.334  14.273  1.00  0.00    -0.326 N
HETATM   25  C19 UNL     1       9.570  33.898  13.209  1.00  0.00     0.155 C
BRANCH  19  26
HETATM   26  C13 UNL     1      12.995  34.133  16.686  1.00  0.00     0.243 C
HETATM   27  O2  UNL     1      14.230  33.805  16.665  1.00  0.00    -0.271 OA
HETATM   28  N3  UNL     1      12.296  33.925  17.886  1.00  0.00    -0.355 N
ATOM     29  H3  UNL     1      11.309  34.177  17.927  1.00  0.00     0.162 HD
BRANCH  28  30
HETATM   30  C14 UNL     1      12.925  33.363  19.078  1.00  0.00     0.084 A
HETATM   31  C15 UNL     1      13.411  34.350  20.124  1.00  0.00     0.027 A
HETATM   32  C16 UNL     1      12.176  33.580  20.410  1.00  0.00     0.027 A
ENDBRANCH  28  30
ENDBRANCH  19  26
ENDBRANCH  11  18
TORSDOF 5
ENDMDL