MODEL 1
REMARK VINA RESULT: -5.987921378      0.000      0.000
REMARK  4 active torsions:
REMARK  status: ('A' for Active; 'I' for Inactive)
REMARK    1  A    between atoms: C2_2  and  N1_3
REMARK    2  A    between atoms: C4_5  and  N2_6
REMARK    3  A    between atoms: C6_8  and  C7_9
REMARK    4  A    between atoms: C8_12  and  C9_13
ROOT
HETATM    1  N2  UNL     1      12.252  34.818  14.363  1.00  0.00     0.121 N
HETATM    2  C5  UNL     1      13.352  34.459  13.532  1.00  0.00     0.291 C
HETATM    3  C6  UNL     1      13.329  35.522  12.433  1.00  0.00     0.122 C
HETATM    4  C8  UNL     1      12.137  36.390  12.723  1.00  0.00     0.045 C
HETATM    5  C15 UNL     1      11.257  35.442  13.484  1.00  0.00     0.177 C
HETATM    6  C16 UNL     1      10.121  36.022  14.196  1.00  0.00     0.055 C
HETATM    7  C17 UNL     1       8.921  35.137  14.233  1.00  0.00     0.111 C
HETATM    8  S1  UNL     1       9.213  33.800  13.129  1.00  0.00     0.017 S
HETATM    9  O3  UNL     1       9.392  32.375  14.014  1.00  0.00    -0.258 OA
HETATM   10  C18 UNL     1      10.808  34.381  12.520  1.00  0.00     0.151 C
ENDROOT
BRANCH   1  11
HETATM   11  C4  UNL     1      12.656  35.547  15.494  1.00  0.00     0.374 C
HETATM   12  C3  UNL     1      11.867  35.406  16.782  1.00  0.00     0.160 C
HETATM   13  N1  UNL     1      12.980  35.444  17.710  1.00  0.00    -0.206 NA
HETATM   14  S2  UNL     1      13.807  34.556  16.494  1.00  0.00     0.245 S
HETATM   15  O4  UNL     1      13.496  33.093  16.480  1.00  0.00    -0.209 OA
HETATM   16  O5  UNL     1      15.216  34.950  16.436  1.00  0.00    -0.209 OA
BRANCH  13  17
HETATM   17  C2  UNL     1      13.513  36.786  17.831  1.00  0.00     0.103 C
HETATM   18  C1  UNL     1      14.202  37.040  19.162  1.00  0.00     0.021 C
ENDBRANCH  13  17
ENDBRANCH   1  11
BRANCH   3  19
HETATM   19  C7  UNL     1      14.618  36.137  12.227  1.00  0.00     0.179 C
HETATM   20  O1  UNL     1      14.899  37.353  12.316  1.00  0.00    -0.648 OA
HETATM   21  O2  UNL     1      15.742  35.340  11.888  1.00  0.00    -0.648 OA
ENDBRANCH   3  19
BRANCH   4  22
HETATM   22  C9  UNL     1      11.664  37.006  11.501  1.00  0.00    -0.007 C
HETATM   23  C10 UNL     1      12.237  36.249  10.318  1.00  0.00     0.005 C
HETATM   24  C11 UNL     1      12.609  37.190   9.183  1.00  0.00     0.000 C
HETATM   25  C12 UNL     1      11.418  37.978   8.774  1.00  0.00     0.000 C
HETATM   26  C13 UNL     1      10.922  38.732   9.962  1.00  0.00     0.000 C
HETATM   27  C14 UNL     1      11.766  38.443  11.222  1.00  0.00     0.005 C
ENDBRANCH   4  22
TORSDOF 4
ENDMDL