MODEL 1
REMARK VINA RESULT: -7.226563342      0.000      0.000
REMARK  4 active torsions:
REMARK  status: ('A' for Active; 'I' for Inactive)
REMARK    1  A    between atoms: C3_3  and  C4_4
REMARK       I    between atoms: C4_4  and  N1_6
REMARK    2  A    between atoms: C7_9  and  C8_10
REMARK    3  A    between atoms: C8_10  and  C9_11
REMARK       I    between atoms: C9_11  and  N2_13
REMARK    4  A    between atoms: N2_13  and  C10_15
ROOT
HETATM    1  C1  UNL     1       7.498  34.465  12.995  1.00  0.00     0.028 C
HETATM    2  C2  UNL     1       8.930  34.826  13.080  1.00  0.00     0.084 C
HETATM    3  C3  UNL     1       9.357  35.546  14.327  1.00  0.00     0.116 C
HETATM    4  C7  UNL     1      10.884  35.415  14.204  1.00  0.00     0.147 C
HETATM    5  S1  UNL     1      11.047  35.912  12.482  1.00  0.00     0.217 S
HETATM    6  O3  UNL     1      11.381  37.348  12.349  1.00  0.00    -0.211 OA
HETATM    7  O4  UNL     1      11.949  35.000  11.724  1.00  0.00    -0.211 OA
HETATM    8  N3  UNL     1       9.380  35.681  11.987  1.00  0.00    -0.209 NA
HETATM    9  C19 UNL     1       8.674  36.922  11.920  1.00  0.00     0.129 C
ENDROOT
BRANCH   4  10
HETATM   10  C8  UNL     1      11.588  36.361  15.113  1.00  0.00     0.125 C
BRANCH  10  11
HETATM   11  C9  UNL     1      12.784  35.697  15.675  1.00  0.00     0.219 C
HETATM   12  O2  UNL     1      13.582  35.105  14.895  1.00  0.00    -0.274 OA
HETATM   13  N2  UNL     1      13.040  35.721  17.087  1.00  0.00    -0.356 N
ATOM     14  H2  UNL     1      12.384  36.204  17.699  1.00  0.00     0.162 HD
BRANCH  13  15
HETATM   15  C10 UNL     1      14.191  35.086  17.663  1.00  0.00     0.084 C
HETATM   16  C11 UNL     1      13.882  33.696  18.192  1.00  0.00     0.025 C
HETATM   17  C12 UNL     1      12.586  33.594  18.897  1.00  0.00     0.002 C
HETATM   18  C13 UNL     1      12.434  34.313  20.180  1.00  0.00     0.000 C
HETATM   19  C14 UNL     1      13.564  34.257  21.123  1.00  0.00     0.000 C
HETATM   20  C15 UNL     1      14.271  35.502  21.452  1.00  0.00     0.000 C
HETATM   21  C16 UNL     1      13.846  36.759  20.774  1.00  0.00     0.000 C
HETATM   22  C17 UNL     1      14.249  36.969  19.365  1.00  0.00     0.002 C
HETATM   23  C18 UNL     1      14.958  35.894  18.658  1.00  0.00     0.025 C
ENDBRANCH  13  15
ENDBRANCH  10  11
ENDBRANCH   4  10
BRANCH   3  24
HETATM   24  C4  UNL     1       8.850  34.987  15.560  1.00  0.00     0.226 C
HETATM   25  O1  UNL     1       7.950  35.667  16.165  1.00  0.00    -0.273 OA
HETATM   26  N1  UNL     1       9.243  33.771  16.169  1.00  0.00    -0.360 N
HETATM   27  C5  UNL     1       8.655  33.350  17.454  1.00  0.00     0.152 C
HETATM   28  C6  UNL     1      10.197  32.834  15.623  1.00  0.00     0.152 C
ENDBRANCH   3  24
TORSDOF 4
ENDMDL