MODEL 1
REMARK VINA RESULT: -7.826885924      0.000      0.000
REMARK  5 active torsions:
REMARK  status: ('A' for Active; 'I' for Inactive)
REMARK    1  A    between atoms: C2_2  and  C4_4
REMARK    2  A    between atoms: C8_9  and  C9_10
REMARK    3  A    between atoms: C9_10  and  C10_11
REMARK    4  A    between atoms: C10_11  and  O1_12
REMARK    5  A    between atoms: C10_11  and  C11_14
ROOT
HETATM    1  C11 UNL     1      12.185  35.008  16.164  1.00  0.00     0.016 C
HETATM    2  N2  UNL     1      11.621  33.892  16.417  1.00  0.00    -0.373 N
ATOM      3  H2  UNL     1      10.640  33.762  16.172  1.00  0.00     0.164 HD
HETATM    4  C12 UNL     1      12.319  32.840  17.023  1.00  0.00     0.067 C
HETATM    5  C13 UNL     1      13.238  33.248  18.136  1.00  0.00     0.045 C
HETATM    6  C14 UNL     1      12.398  33.369  19.390  1.00  0.00     0.033 C
HETATM    7  C15 UNL     1      13.419  33.668  20.497  1.00  0.00     0.147 C
HETATM    8  N3  UNL     1      13.862  35.023  20.215  1.00  0.00    -0.280 N
HETATM    9  C16 UNL     1      14.428  35.741  21.299  1.00  0.00     0.234 C
HETATM   10  O2  UNL     1      14.787  35.168  22.348  1.00  0.00    -0.272 OA
HETATM   11  C17 UNL     1      14.555  37.224  21.083  1.00  0.00     0.105 C
HETATM   12  C18 UNL     1      15.220  37.354  19.744  1.00  0.00     0.025 C
HETATM   13  C19 UNL     1      14.527  36.669  18.622  1.00  0.00     0.115 C
HETATM   14  N4  UNL     1      13.714  35.546  18.939  1.00  0.00    -0.221 NA
HETATM   15  C20 UNL     1      13.930  34.555  17.905  1.00  0.00     0.094 C
HETATM   16  C21 UNL     1      13.610  35.153  16.555  1.00  0.00     0.077 C
ENDROOT
BRANCH   1  17
HETATM   17  C10 UNL     1      11.483  36.135  15.527  1.00  0.00     0.164 C
BRANCH  17  18
HETATM   18  C9  UNL     1      10.021  36.074  15.357  1.00  0.00     0.044 C
BRANCH  18  19
HETATM   19  C8  UNL     1       9.480  35.427  14.118  1.00  0.00     0.020 C
HETATM   20  C7  UNL     1       9.498  36.317  12.907  1.00  0.00     0.242 C
HETATM   21  N1  UNL     1       8.143  36.150  12.348  1.00  0.00    -0.070 N
HETATM   22  C5  UNL     1       7.978  34.744  12.046  1.00  0.00     0.242 C
HETATM   23  C6  UNL     1       7.814  37.054  11.331  1.00  0.00     0.272 C
HETATM   24  C23 UNL     1       7.406  36.356  13.614  1.00  0.00     0.242 C
HETATM   25  C4  UNL     1       7.488  34.110  13.344  1.00  0.00     0.021 C
HETATM   26  C22 UNL     1       8.023  35.101  14.317  1.00  0.00     0.023 C
BRANCH  25  27
HETATM   27  C2  UNL     1       7.717  32.687  13.519  1.00  0.00    -0.017 C
HETATM   28  C1  UNL     1       8.849  32.022  12.835  1.00  0.00     0.010 C
HETATM   29  C3  UNL     1       6.456  31.914  13.067  1.00  0.00     0.010 C
ENDBRANCH  25  27
ENDBRANCH  18  19
ENDBRANCH  17  18
BRANCH  17  30
HETATM   30  O1  UNL     1      11.831  37.395  16.041  1.00  0.00    -0.390 OA
ATOM     31  H1  UNL     1      12.777  37.482  16.030  1.00  0.00     0.210 HD
ENDBRANCH  17  30
ENDBRANCH   1  17
TORSDOF 5
ENDMDL