MODEL 3
REMARK VINA RESULT: -6.790352566      1.080      1.875
REMARK  4 active torsions:
REMARK  status: ('A' for Active; 'I' for Inactive)
REMARK    1  A    between atoms: C2_2  and  N1_3
REMARK    2  A    between atoms: C2_2  and  C14_17
REMARK       I    between atoms: N1_3  and  C3_5
REMARK    3  A    between atoms: C3_5  and  C4_7
REMARK       I    between atoms: C14_17  and  N2_19
REMARK    4  A    between atoms: N2_19  and  C16_21
ROOT
HETATM    1  C1  UNL     1      12.271  32.343  14.805  1.00  0.00     0.042 C
HETATM    2  C2  UNL     1      12.463  33.836  14.686  1.00  0.00     0.172 C
ENDROOT
BRANCH   2   3
HETATM    3  N1  UNL     1      13.184  34.114  13.489  1.00  0.00    -0.348 N
HETATM    4  C3  UNL     1      12.531  34.756  12.409  1.00  0.00     0.223 C
HETATM    5  O1  UNL     1      11.320  35.060  12.557  1.00  0.00    -0.273 OA
ATOM      6  H1  UNL     1      14.166  33.852  13.411  1.00  0.00     0.163 HD
BRANCH   4   7
HETATM    7  C4  UNL     1      13.213  35.080  11.131  1.00  0.00     0.086 C
HETATM    8  C5  UNL     1      12.454  36.005  10.248  1.00  0.00    -0.001 C
HETATM    9  C6  UNL     1      13.202  36.038   8.906  1.00  0.00     0.010 C
HETATM   10  C10 UNL     1      12.439  37.434  10.743  1.00  0.00     0.010 C
HETATM   11  C7  UNL     1      14.617  36.523   9.125  1.00  0.00    -0.013 C
HETATM   12  C8  UNL     1      14.579  37.942   9.624  1.00  0.00     0.009 C
HETATM   13  C13 UNL     1      15.364  35.639  10.095  1.00  0.00     0.010 C
HETATM   14  C9  UNL     1      13.833  37.958  10.923  1.00  0.00    -0.013 C
HETATM   15  C11 UNL     1      14.554  37.056  11.901  1.00  0.00     0.010 C
HETATM   16  C12 UNL     1      14.565  35.644  11.404  1.00  0.00    -0.001 C
ENDBRANCH   4   7
ENDBRANCH   2   3
BRANCH   2  17
HETATM   17  C14 UNL     1      13.148  34.329  15.908  1.00  0.00     0.242 C
HETATM   18  O2  UNL     1      14.020  33.571  16.403  1.00  0.00    -0.271 OA
HETATM   19  N2  UNL     1      12.882  35.574  16.527  1.00  0.00    -0.350 N
HETATM   20  C15 UNL     1      11.870  36.464  15.947  1.00  0.00     0.153 C
BRANCH  19  21
HETATM   21  C16 UNL     1      13.598  35.964  17.722  1.00  0.00     0.088 C
HETATM   22  C17 UNL     1      13.527  34.908  18.800  1.00  0.00     0.040 C
HETATM   23  C18 UNL     1      14.239  35.371  20.026  1.00  0.00     0.142 C
HETATM   24  S1  UNL     1      15.204  36.839  19.783  1.00  0.00     0.144 S
HETATM   25  O3  UNL     1      15.559  37.384  21.137  1.00  0.00    -0.228 OA
HETATM   26  O4  UNL     1      16.484  36.570  19.061  1.00  0.00    -0.228 OA
HETATM   27  C19 UNL     1      14.191  38.030  18.958  1.00  0.00     0.142 C
HETATM   28  C20 UNL     1      13.092  37.307  18.204  1.00  0.00     0.040 C
ENDBRANCH  19  21
ENDBRANCH   2  17
TORSDOF 4
ENDMDL