MODEL 3
REMARK VINA RESULT: -5.755026211      3.506      4.591
REMARK  4 active torsions:
REMARK  status: ('A' for Active; 'I' for Inactive)
REMARK    1  A    between atoms: C2_2  and  N1_3
REMARK    2  A    between atoms: N2_13  and  C10_14
REMARK    3  A    between atoms: C10_14  and  C11_15
REMARK    4  A    between atoms: C11_15  and  C12_16
ROOT
HETATM    1  N1  UNL     1       9.229  33.775  13.960  1.00  0.00    -0.347 N
HETATM    2  C3  UNL     1       8.469  34.997  13.742  1.00  0.00     0.152 C
HETATM    3  C4  UNL     1       8.757  35.525  12.359  1.00  0.00     0.187 C
HETATM    4  O1  UNL     1       8.610  36.913  12.292  1.00  0.00    -0.387 OA
HETATM    5  C5  UNL     1       8.540  37.257  10.948  1.00  0.00     0.193 C
HETATM    6  C6  UNL     1       8.851  38.717  10.714  1.00  0.00     0.193 C
HETATM    7  O2  UNL     1      10.053  38.903  10.035  1.00  0.00    -0.389 OA
HETATM    8  C7  UNL     1      11.088  38.989  10.995  1.00  0.00     0.169 C
HETATM    9  C8  UNL     1      12.438  39.034  10.315  1.00  0.00     0.046 C
HETATM   10  C9  UNL     1      12.883  37.633   9.994  1.00  0.00     0.128 C
HETATM   11  N2  UNL     1      14.265  37.389  10.363  1.00  0.00    -0.352 N
HETATM   12  C13 UNL     1      14.638  36.485  11.395  1.00  0.00     0.219 C
HETATM   13  O3  UNL     1      15.726  35.867  11.264  1.00  0.00    -0.273 OA
HETATM   14  C14 UNL     1      13.837  36.223  12.607  1.00  0.00     0.103 C
HETATM   15  C15 UNL     1      13.107  34.912  12.549  1.00  0.00     0.010 C
HETATM   16  C16 UNL     1      12.768  34.443  13.951  1.00  0.00     0.004 C
HETATM   17  C17 UNL     1      12.075  35.576  14.659  1.00  0.00     0.028 C
HETATM   18  C18 UNL     1      11.443  35.195  15.930  1.00  0.00    -0.015 C
HETATM   19  C19 UNL     1      10.525  34.301  16.131  1.00  0.00     0.002 C
HETATM   20  C20 UNL     1      10.057  34.120  17.570  1.00  0.00     0.054 C
HETATM   21  C21 UNL     1       9.871  33.429  15.168  1.00  0.00     0.249 C
HETATM   22  O4  UNL     1       9.855  32.161  15.413  1.00  0.00    -0.268 OA
ENDROOT
BRANCH  11  23
HETATM   23  C10 UNL     1      15.273  38.132   9.606  1.00  0.00     0.131 C
BRANCH  23  24
HETATM   24  C11 UNL     1      15.200  37.791   8.132  1.00  0.00     0.064 C
BRANCH  24  25
HETATM   25  C12 UNL     1      16.501  37.154   7.773  1.00  0.00     0.054 C
HETATM   26  N3  UNL     1      16.885  36.145   8.448  1.00  0.00    -0.411 N
ATOM     27  H32 UNL     1      16.306  35.793   9.210  1.00  0.00     0.155 HD
ATOM     28  H31 UNL     1      17.774  35.710   8.203  1.00  0.00     0.155 HD
ENDBRANCH  24  25
ENDBRANCH  23  24
ENDBRANCH  11  23
BRANCH   1  29
HETATM   29  C2  UNL     1       9.265  32.895  12.802  1.00  0.00     0.121 C
HETATM   30  C1  UNL     1       8.010  32.080  12.646  1.00  0.00     0.026 C
ENDBRANCH   1  29
TORSDOF 4
ENDMDL