MODEL 1
REMARK VINA RESULT: -6.041807561      0.000      0.000
REMARK  6 active torsions:
REMARK  status: ('A' for Active; 'I' for Inactive)
REMARK    1  A    between atoms: C4_5  and  N2_6
REMARK    2  A    between atoms: N2_6  and  C5_8
REMARK    3  A    between atoms: C5_8  and  N3_10
REMARK    4  A    between atoms: N4_13  and  C8_14
REMARK    5  A    between atoms: C8_14  and  C9_15
REMARK    6  A    between atoms: C9_15  and  N5_16
ROOT
HETATM    1  N3  UNL     1      12.152  33.953  15.035  1.00  0.00    -0.331 N
HETATM    2  C6  UNL     1      11.039  33.289  15.665  1.00  0.00     0.157 C
HETATM    3  C7  UNL     1      10.676  34.274  16.774  1.00  0.00     0.294 C
HETATM    4  N4  UNL     1      11.983  34.786  17.190  1.00  0.00     0.109 N
HETATM    5  C15 UNL     1      12.846  34.697  16.055  1.00  0.00     0.400 C
ENDROOT
BRANCH   1   6
HETATM    6  C5  UNL     1      12.485  33.872  13.661  1.00  0.00     0.172 C
HETATM    7  S1  UNL     1      11.687  34.845  12.625  1.00  0.00    -0.041 SA
BRANCH   6   8
HETATM    8  N2  UNL     1      13.449  32.989  13.185  1.00  0.00    -0.353 N
ATOM      9  H2  UNL     1      14.350  33.390  12.927  1.00  0.00     0.163 HD
BRANCH   8  10
HETATM   10  C4  UNL     1      13.306  31.612  13.027  1.00  0.00     0.078 C
HETATM   11  C3  UNL     1      13.628  30.745  14.186  1.00  0.00     0.031 C
HETATM   12  C2  UNL     1      13.041  29.584  13.907  1.00  0.00     0.201 C
HETATM   13  N1  UNL     1      12.366  29.660  12.644  1.00  0.00    -0.048 N
HETATM   14  C1  UNL     1      11.312  28.765  12.447  1.00  0.00     0.278 C
HETATM   15  C17 UNL     1      13.343  29.751  11.584  1.00  0.00     0.245 C
HETATM   16  C18 UNL     1      11.930  31.078  12.687  1.00  0.00     0.277 C
HETATM   17  C16 UNL     1      14.098  31.038  11.858  1.00  0.00     0.065 C
ENDBRANCH   8  10
ENDBRANCH   6   8
ENDBRANCH   1   6
BRANCH   4  18
HETATM   18  C8  UNL     1      12.524  34.039  18.278  1.00  0.00     0.302 C
BRANCH  18  19
HETATM   19  C9  UNL     1      12.590  34.677  19.607  1.00  0.00     0.267 C
BRANCH  19  20
HETATM   20  N5  UNL     1      13.798  35.243  20.060  1.00  0.00    -0.065 N
HETATM   21  C10 UNL     1      14.581  34.275  20.854  1.00  0.00     0.272 C
HETATM   22  C11 UNL     1      14.668  35.854  19.111  1.00  0.00     0.263 C
HETATM   23  C12 UNL     1      14.231  37.288  18.877  1.00  0.00     0.195 C
HETATM   24  O1  UNL     1      14.715  38.056  19.928  1.00  0.00    -0.388 OA
HETATM   25  C13 UNL     1      14.533  37.350  21.117  1.00  0.00     0.195 C
HETATM   26  C14 UNL     1      13.445  36.309  21.022  1.00  0.00     0.263 C
ENDBRANCH  19  20
ENDBRANCH  18  19
ENDBRANCH   4  18
TORSDOF 6
ENDMDL