MODEL 2
REMARK VINA RESULT: -6.134004371      2.381      3.886
REMARK  7 active torsions:
REMARK  status: ('A' for Active; 'I' for Inactive)
REMARK    1  A    between atoms: C2_2  and  N1_3
REMARK    2  A    between atoms: N1_3  and  C4_5
REMARK    3  A    between atoms: C4_5  and  C5_6
REMARK    4  A    between atoms: C6_7  and  C7_8
REMARK    5  A    between atoms: C7_8  and  C8_9
REMARK    6  A    between atoms: C7_8  and  C16_25
REMARK    7  A    between atoms: C10_14  and  N3_16
REMARK       I    between atoms: N3_16  and  C12_18
ROOT
HETATM    1  C8  UNL     1      12.280  34.317  14.834  1.00  0.00     0.193 C
HETATM    2  N2  UNL     1      11.643  35.373  14.088  1.00  0.00    -0.343 N
ATOM      3  H2  UNL     1      10.667  35.627  14.245  1.00  0.00     0.163 HD
HETATM    4  C9  UNL     1      12.457  36.051  13.106  1.00  0.00     0.267 C
HETATM    5  O1  UNL     1      12.328  37.284  12.960  1.00  0.00    -0.269 OA
HETATM    6  C10 UNL     1      13.409  35.248  12.316  1.00  0.00     0.189 C
HETATM    7  C11 UNL     1      14.817  35.779  12.394  1.00  0.00     0.074 C
HETATM    8  N4  UNL     1      13.342  33.830  12.617  1.00  0.00    -0.320 N
HETATM    9  C14 UNL     1      13.946  32.918  11.685  1.00  0.00     0.155 C
HETATM   10  C15 UNL     1      12.711  33.333  13.779  1.00  0.00     0.245 C
HETATM   11  O3  UNL     1      12.516  32.133  13.930  1.00  0.00    -0.271 OA
ENDROOT
BRANCH   1  12
HETATM   12  C7  UNL     1      11.390  33.620  15.778  1.00  0.00     0.104 C
BRANCH  12  13
HETATM   13  C6  UNL     1      11.980  33.889  17.150  1.00  0.00    -0.097 C
HETATM   14  C5  UNL     1      12.502  34.099  18.237  1.00  0.00    -0.076 C
BRANCH  14  15
HETATM   15  C4  UNL     1      13.180  34.346  19.504  1.00  0.00     0.365 C
BRANCH  15  16
HETATM   16  N1  UNL     1      13.695  35.671  19.583  1.00  0.00     0.094 N
HETATM   17  C3  UNL     1      14.632  35.918  18.530  1.00  0.00     0.310 C
BRANCH  16  18
HETATM   18  C2  UNL     1      14.154  35.968  20.901  1.00  0.00     0.268 C
HETATM   19  C1  UNL     1      13.171  36.834  21.674  1.00  0.00     0.037 C
ENDBRANCH  16  18
ENDBRANCH  15  16
ENDBRANCH  14  15
ENDBRANCH  12  13
BRANCH  12  20
HETATM   20  C16 UNL     1       9.965  34.046  15.882  1.00  0.00    -0.035 C
HETATM   21  C17 UNL     1       9.199  33.283  14.760  1.00  0.00     0.016 C
HETATM   22  C18 UNL     1       9.350  33.540  17.165  1.00  0.00     0.016 C
HETATM   23  C19 UNL     1       9.629  35.475  15.724  1.00  0.00     0.016 C
ENDBRANCH  12  20
ENDBRANCH   1  12
BRANCH   6  24
HETATM   24  N3  UNL     1      12.978  35.347  10.910  1.00  0.00    -0.327 N
HETATM   25  C12 UNL     1      11.630  35.075  10.527  1.00  0.00     0.215 C
HETATM   26  C13 UNL     1      11.137  35.158   9.146  1.00  0.00     0.117 C
HETATM   27  O2  UNL     1      10.783  34.741  11.413  1.00  0.00    -0.274 OA
ATOM     28  H3  UNL     1      13.656  35.614  10.197  1.00  0.00     0.165 HD
ENDBRANCH   6  24
TORSDOF 7
ENDMDL