MODEL 2
REMARK VINA RESULT: -6.098982145      2.245      4.280
REMARK  6 active torsions:
REMARK  status: ('A' for Active; 'I' for Inactive)
REMARK    1  A    between atoms: C2_2  and  C3_3
REMARK    2  A    between atoms: C4_4  and  C5_5
REMARK    3  A    between atoms: C6_6  and  C7_7
REMARK    4  A    between atoms: C12_16  and  C13_17
REMARK       I    between atoms: C13_17  and  N2_19
REMARK    5  A    between atoms: C16_22  and  C17_23
REMARK       I    between atoms: C17_23  and  N3_25
REMARK    6  A    between atoms: N3_25  and  C18_27
ROOT
HETATM    1  C7  UNL     1      11.703  36.333  14.915  1.00  0.00     0.046 C
HETATM    2  C8  UNL     1      10.346  35.700  15.174  1.00  0.00     0.105 C
HETATM    3  N1  UNL     1       9.293  36.382  14.432  1.00  0.00    -0.348 N
ATOM      4  H1  UNL     1       9.214  37.394  14.332  1.00  0.00     0.163 HD
HETATM    5  C9  UNL     1       8.387  35.434  13.864  1.00  0.00     0.288 C
HETATM    6  O1  UNL     1       7.310  35.606  13.247  1.00  0.00    -0.264 OA
HETATM    7  C10 UNL     1       8.966  34.115  14.143  1.00  0.00     0.223 C
HETATM    8  O2  UNL     1       8.379  33.007  14.132  1.00  0.00    -0.287 OA
HETATM    9  C11 UNL     1      10.376  34.342  14.441  1.00  0.00     0.103 C
HETATM   10  C12 UNL     1      11.264  34.697  13.289  1.00  0.00     0.105 C
HETATM   11  C16 UNL     1      12.444  35.362  14.037  1.00  0.00     0.101 C
ENDROOT
BRANCH   1  12
HETATM   12  C6  UNL     1      12.422  36.633  16.147  1.00  0.00    -0.010 C
HETATM   13  C5  UNL     1      13.208  35.820  16.773  1.00  0.00     0.061 C
BRANCH  13  14
HETATM   14  C4  UNL     1      13.863  36.262  18.004  1.00  0.00    -0.079 C
HETATM   15  C3  UNL     1      14.388  36.637  19.017  1.00  0.00    -0.102 C
BRANCH  15  16
HETATM   16  C2  UNL     1      15.013  37.090  20.270  1.00  0.00     0.090 C
HETATM   17  C1  UNL     1      14.837  35.966  21.267  1.00  0.00     0.018 C
ENDBRANCH  15  16
ENDBRANCH  13  14
ENDBRANCH   1  12
BRANCH  11  18
HETATM   18  C17 UNL     1      13.349  36.015  13.090  1.00  0.00     0.223 C
HETATM   19  O4  UNL     1      14.508  35.581  12.932  1.00  0.00    -0.273 OA
HETATM   20  N3  UNL     1      12.931  37.138  12.342  1.00  0.00    -0.361 N
ATOM     21  H3  UNL     1      11.982  37.487  12.475  1.00  0.00     0.162 HD
BRANCH  20  22
HETATM   22  C18 UNL     1      13.790  37.814  11.395  1.00  0.00     0.118 C
HETATM   23  C19 UNL     1      13.037  38.885  10.626  1.00  0.00     0.026 C
ENDBRANCH  20  22
ENDBRANCH  11  18
BRANCH  10  24
HETATM   24  C13 UNL     1      11.729  33.585  12.463  1.00  0.00     0.225 C
HETATM   25  O3  UNL     1      12.143  32.558  13.124  1.00  0.00    -0.273 OA
HETATM   26  N2  UNL     1      11.760  33.537  11.050  1.00  0.00    -0.360 N
HETATM   27  C14 UNL     1      12.237  32.297  10.422  1.00  0.00     0.152 C
HETATM   28  C15 UNL     1      11.381  34.619  10.174  1.00  0.00     0.152 C
ENDBRANCH  10  24
TORSDOF 6
ENDMDL