MODEL 5
REMARK VINA RESULT: -7.025276569      0.843      1.605
REMARK  4 active torsions:
REMARK  status: ('A' for Active; 'I' for Inactive)
REMARK       I    between atoms: N1_2  and  C2_4
REMARK       I    between atoms: C2_4  and  N2_6
REMARK    1  A    between atoms: N2_6  and  C3_8
REMARK    2  A    between atoms: N3_12  and  C7_14
REMARK    3  A    between atoms: C7_14  and  C8_15
REMARK    4  A    between atoms: C14_23  and  N5_24
ROOT
HETATM    1  C3  UNL     1      10.833  35.320  14.488  1.00  0.00     0.123 C
HETATM    2  C4  UNL     1      11.185  35.661  15.951  1.00  0.00     0.040 C
HETATM    3  C5  UNL     1      12.597  35.326  16.285  1.00  0.00     0.084 C
HETATM    4  C6  UNL     1      12.451  34.604  17.577  1.00  0.00     0.073 C
HETATM    5  N3  UNL     1      13.298  34.551  18.577  1.00  0.00    -0.379 N
ATOM      6  H3  UNL     1      13.050  34.007  19.403  1.00  0.00     0.160 HD
HETATM    7  N4  UNL     1      11.194  33.940  17.572  1.00  0.00    -0.375 N
ATOM      8  H4  UNL     1      10.969  33.050  18.016  1.00  0.00     0.161 HD
HETATM    9  C12 UNL     1      10.294  34.789  16.805  1.00  0.00     0.091 C
HETATM   10  C13 UNL     1       9.517  33.932  15.793  1.00  0.00     0.061 C
HETATM   11  C14 UNL     1       9.420  34.899  14.630  1.00  0.00     0.215 C
ENDROOT
BRANCH   1  12
HETATM   12  N2  UNL     1      11.093  36.512  13.758  1.00  0.00    -0.336 N
HETATM   13  C2  UNL     1      12.248  36.679  12.920  1.00  0.00     0.316 C
HETATM   14  N1  UNL     1      12.461  37.886  12.213  1.00  0.00    -0.347 N
HETATM   15  O1  UNL     1      13.100  35.762  12.789  1.00  0.00    -0.247 OA
HETATM   16  C1  UNL     1      13.623  38.043  11.374  1.00  0.00     0.151 C
ATOM     17  H1  UNL     1      11.790  38.650  12.298  1.00  0.00     0.163 HD
ATOM     18  H2  UNL     1      10.430  37.283  13.832  1.00  0.00     0.164 HD
ENDBRANCH   1  12
BRANCH  11  19
HETATM   19  N5  UNL     1       8.778  34.341  13.488  1.00  0.00    -0.061 N
HETATM   20  C15 UNL     1       7.884  33.278  13.875  1.00  0.00     0.273 C
HETATM   21  C16 UNL     1       7.998  35.297  12.734  1.00  0.00     0.263 C
HETATM   22  C17 UNL     1       7.542  34.659  11.436  1.00  0.00     0.195 C
HETATM   23  O2  UNL     1       8.701  34.394  10.679  1.00  0.00    -0.388 OA
HETATM   24  C18 UNL     1       9.361  33.352  11.303  1.00  0.00     0.195 C
HETATM   25  C19 UNL     1       9.816  33.715  12.669  1.00  0.00     0.263 C
ENDBRANCH  11  19
BRANCH   5  26
HETATM   26  C7  UNL     1      14.562  35.233  18.549  1.00  0.00     0.130 C
BRANCH  26  27
HETATM   27  C8  UNL     1      14.484  36.566  19.275  1.00  0.00    -0.028 A
HETATM   28  C9  UNL     1      13.753  36.475  20.598  1.00  0.00     0.016 C
HETATM   29  C10 UNL     1      15.543  37.564  19.146  1.00  0.00     0.011 A
HETATM   30  C11 UNL     1      14.213  37.817  18.495  1.00  0.00     0.011 A
ENDBRANCH  26  27
ENDBRANCH   5  26
TORSDOF 4
ENDMDL