MODEL 2
REMARK VINA RESULT: -6.503971017      2.662      7.243
REMARK  7 active torsions:
REMARK  status: ('A' for Active; 'I' for Inactive)
REMARK    1  A    between atoms: C2_2  and  C3_3
REMARK    2  A    between atoms: C13_16  and  O3_17
REMARK    3  A    between atoms: N2_20  and  C15_21
REMARK    4  A    between atoms: N2_20  and  C17_23
REMARK    5  A    between atoms: C17_23  and  C18_24
REMARK    6  A    between atoms: C19_25  and  C20_26
REMARK    7  A    between atoms: C20_26  and  O4_27
ROOT
HETATM    1  C3  UNL     1       7.345  34.961  12.785  1.00  0.00     0.165 C
HETATM    2  O1  UNL     1       7.679  34.850  11.414  1.00  0.00    -0.291 OA
HETATM    3  C4  UNL     1       9.057  34.564  11.305  1.00  0.00     0.460 C
HETATM    4  O2  UNL     1       9.653  33.890  10.448  1.00  0.00    -0.231 OA
HETATM    5  N1  UNL     1       9.597  35.261  12.449  1.00  0.00     0.023 N
HETATM    6  C5  UNL     1       9.539  36.651  12.114  1.00  0.00     0.286 C
HETATM    7  C6  UNL     1      10.978  34.862  12.706  1.00  0.00     0.253 C
HETATM    8  C7  UNL     1      11.416  35.468  13.990  1.00  0.00     0.068 C
HETATM    9  C8  UNL     1      11.164  34.660  15.224  1.00  0.00     0.135 C
HETATM   10  C9  UNL     1       9.765  34.740  15.725  1.00  0.00     0.041 C
HETATM   11  C10 UNL     1       8.804  35.467  14.772  1.00  0.00     0.039 C
HETATM   12  C11 UNL     1       8.679  34.839  13.452  1.00  0.00     0.231 C
HETATM   13  C12 UNL     1      11.456  33.182  14.979  1.00  0.00     0.072 C
HETATM   14  C13 UNL     1      12.946  33.223  14.803  1.00  0.00     0.146 C
HETATM   15  C14 UNL     1      13.228  34.005  16.103  1.00  0.00     0.271 C
HETATM   16  N2  UNL     1      12.177  34.939  16.271  1.00  0.00    -0.046 N
ENDROOT
BRANCH  16  17
HETATM   17  C15 UNL     1      11.570  34.657  17.591  1.00  0.00     0.235 C
HETATM   18  C16 UNL     1      12.437  33.731  18.418  1.00  0.00     0.035 C
ENDBRANCH  16  17
BRANCH  16  19
HETATM   19  C17 UNL     1      12.545  36.317  16.318  1.00  0.00     0.332 C
BRANCH  19  20
HETATM   20  C18 UNL     1      13.543  36.639  17.357  1.00  0.00    -0.076 C
HETATM   21  C19 UNL     1      14.347  36.921  18.210  1.00  0.00    -0.079 C
BRANCH  21  22
HETATM   22  C20 UNL     1      15.327  37.279  19.221  1.00  0.00     0.257 C
BRANCH  22  23
HETATM   23  O4  UNL     1      16.629  37.135  18.692  1.00  0.00    -0.389 OA
ATOM     24  H4  UNL     1      17.166  37.871  18.961  1.00  0.00     0.210 HD
ENDBRANCH  22  23
ENDBRANCH  21  22
ENDBRANCH  19  20
ENDBRANCH  16  19
BRANCH  14  25
HETATM   25  O3  UNL     1      13.539  31.963  14.860  1.00  0.00    -0.394 OA
ATOM     26  H3  UNL     1      14.320  31.894  14.324  1.00  0.00     0.210 HD
ENDBRANCH  14  25
BRANCH   1  27
HETATM   27  C2  UNL     1       6.568  36.171  13.120  1.00  0.00     0.030 C
HETATM   28  C1  UNL     1       5.746  36.550  11.889  1.00  0.00     0.007 C
ENDBRANCH   1  27
TORSDOF 7
ENDMDL