MODEL 3
REMARK VINA RESULT: -6.809304671      2.048      7.183
REMARK  6 active torsions:
REMARK  status: ('A' for Active; 'I' for Inactive)
REMARK       I    between atoms: C3_5  and  N3_7
REMARK    1  A    between atoms: N4_10  and  C6_11
REMARK    2  A    between atoms: C6_11  and  C7_13
REMARK    3  A    between atoms: C7_13  and  C8_14
REMARK    4  A    between atoms: C8_14  and  N5_15
REMARK    5  A    between atoms: C8_14  and  C9_19
REMARK    6  A    between atoms: C9_19  and  N6_20
ROOT
HETATM    1  C1  UNL     1      15.094  37.272  21.078  1.00  0.00     0.037 C
HETATM    2  C2  UNL     1      14.378  36.747  20.245  1.00  0.00     0.001 C
HETATM    3  N1  UNL     1      13.545  36.157  19.296  1.00  0.00    -0.290 N
ATOM      4  H1  UNL     1      12.554  36.022  19.494  1.00  0.00     0.178 HD
HETATM    5  C3  UNL     1      14.044  35.781  18.154  1.00  0.00     0.198 C
HETATM    6  N2  UNL     1      15.448  35.991  17.918  1.00  0.00    -0.063 NA
HETATM    7  N3  UNL     1      13.209  35.185  17.191  1.00  0.00    -0.352 N
HETATM    8  C4  UNL     1      13.070  35.732  15.880  1.00  0.00     0.145 C
HETATM    9  C5  UNL     1      11.608  36.029  15.623  1.00  0.00     0.143 C
HETATM   10  N4  UNL     1      10.781  34.935  15.992  1.00  0.00    -0.372 N
HETATM   11  C17 UNL     1      11.032  34.095  17.118  1.00  0.00     0.143 C
HETATM   12  C18 UNL     1      12.461  33.996  17.496  1.00  0.00     0.145 C
ENDROOT
BRANCH  10  13
HETATM   13  C6  UNL     1       9.598  34.677  15.217  1.00  0.00     0.077 C
HETATM   14  S1  UNL     1       8.677  35.991  14.845  1.00  0.00    -0.066 SA
BRANCH  13  15
HETATM   15  C7  UNL     1       9.168  33.339  14.806  1.00  0.00     0.103 C
BRANCH  15  16
HETATM   16  C8  UNL     1       9.626  32.863  13.458  1.00  0.00     0.217 C
BRANCH  16  17
HETATM   17  N5  UNL     1       8.426  32.505  12.668  1.00  0.00    -0.073 N
ATOM     18  H53 UNL     1       8.604  32.491  11.664  1.00  0.00     0.274 HD
ATOM     19  H52 UNL     1       8.161  31.526  12.774  1.00  0.00     0.274 HD
ATOM     20  H51 UNL     1       7.677  33.147  12.928  1.00  0.00     0.274 HD
ENDBRANCH  16  17
BRANCH  16  21
HETATM   21  C9  UNL     1      10.599  33.625  12.711  1.00  0.00     0.285 C
BRANCH  21  22
HETATM   22  N6  UNL     1      11.966  33.360  12.532  1.00  0.00    -0.012 N
HETATM   23  C10 UNL     1      12.721  34.567  12.258  1.00  0.00     0.289 C
HETATM   24  C11 UNL     1      12.504  32.606  13.530  1.00  0.00     0.037 C
HETATM   25  C12 UNL     1      13.001  31.868  14.604  1.00  0.00     0.116 C
HETATM   26  C13 UNL     1      13.605  30.567  13.961  1.00  0.00     0.040 C
HETATM   27  C14 UNL     1      13.051  30.356  12.554  1.00  0.00    -0.028 C
HETATM   28  C15 UNL     1      13.119  31.351  11.525  1.00  0.00    -0.002 C
HETATM   29  C16 UNL     1      12.147  32.460  11.302  1.00  0.00     0.279 C
ENDBRANCH  21  22
ENDBRANCH  16  21
ENDBRANCH  15  16
ENDBRANCH  13  15
ENDBRANCH  10  13
TORSDOF 6
ENDMDL