MODEL 5
REMARK VINA RESULT: -7.018945540      2.791      3.737
REMARK  5 active torsions:
REMARK  status: ('A' for Active; 'I' for Inactive)
REMARK    1  A    between atoms: C2_2  and  C3_3
REMARK    2  A    between atoms: C3_3  and  N1_4
REMARK    3  A    between atoms: N2_10  and  C9_11
REMARK    4  A    between atoms: C9_11  and  C10_12
REMARK    5  A    between atoms: C10_12  and  O1_13
ROOT
HETATM    1  N1  UNL     1      12.781  32.838  11.816  1.00  0.00     0.115 N
HETATM    2  C4  UNL     1      13.478  33.435  12.889  1.00  0.00     0.285 C
HETATM    3  C5  UNL     1      12.565  33.473  14.152  1.00  0.00     0.004 C
HETATM    4  C6  UNL     1      11.513  34.518  13.990  1.00  0.00     0.018 C
HETATM    5  C7  UNL     1      10.616  34.430  15.199  1.00  0.00     0.046 C
HETATM    6  C8  UNL     1      11.383  34.344  16.474  1.00  0.00     0.063 C
HETATM    7  N2  UNL     1      12.777  34.479  16.414  1.00  0.00    -0.370 N
HETATM    8  C16 UNL     1      13.418  33.805  15.314  1.00  0.00     0.138 C
HETATM    9  C17 UNL     1      12.042  32.061  14.245  1.00  0.00     0.041 C
HETATM   10  C18 UNL     1      11.068  31.696  13.161  1.00  0.00     0.239 C
HETATM   11  N4  UNL     1      11.635  30.779  12.175  1.00  0.00    -0.048 N
HETATM   12  C19 UNL     1      11.858  29.514  12.798  1.00  0.00     0.274 C
HETATM   13  C20 UNL     1      10.729  30.716  11.044  1.00  0.00     0.274 C
HETATM   14  C21 UNL     1      12.874  31.416  11.695  1.00  0.00     0.506 C
ENDROOT
BRANCH   7  15
HETATM   15  C9  UNL     1      13.391  35.716  16.689  1.00  0.00     0.101 C
BRANCH  15  16
HETATM   16  C10 UNL     1      14.302  35.781  17.882  1.00  0.00     0.096 C
HETATM   17  C11 UNL     1      13.894  34.981  19.089  1.00  0.00     0.050 C
HETATM   18  C12 UNL     1      13.798  36.232  19.939  1.00  0.00     0.023 C
HETATM   19  C13 UNL     1      15.038  36.444  20.739  1.00  0.00     0.237 C
HETATM   20  C15 UNL     1      13.903  37.038  18.690  1.00  0.00     0.057 C
HETATM   21  N3  UNL     1      15.555  37.694  20.283  1.00  0.00    -0.074 N
HETATM   22  C14 UNL     1      15.039  37.981  18.977  1.00  0.00     0.240 C
ATOM     23  H32 UNL     1      15.373  38.450  20.943  1.00  0.00     0.277 HD
ATOM     24  H31 UNL     1      16.575  37.721  20.307  1.00  0.00     0.277 HD
BRANCH  16  25
HETATM   25  O1  UNL     1      15.649  35.900  17.616  1.00  0.00    -0.384 OA
ATOM     26  H1  UNL     1      16.081  35.126  17.276  1.00  0.00     0.211 HD
ENDBRANCH  16  25
ENDBRANCH  15  16
ENDBRANCH   7  15
BRANCH   1  27
HETATM   27  C3  UNL     1      12.960  33.475  10.567  1.00  0.00     0.274 C
BRANCH  27  28
HETATM   28  C2  UNL     1      14.126  34.375  10.380  1.00  0.00     0.026 C
HETATM   29  C1  UNL     1      15.325  33.798   9.700  1.00  0.00     0.007 C
ENDBRANCH  27  28
ENDBRANCH   1  27
TORSDOF 5
ENDMDL