MODEL 1
REMARK VINA RESULT: -6.347098068      0.000      0.000
REMARK  8 active torsions:
REMARK  status: ('A' for Active; 'I' for Inactive)
REMARK    1  A    between atoms: N3_9  and  C7_10
REMARK    2  A    between atoms: C7_10  and  O1_11
REMARK    3  A    between atoms: C7_10  and  C8_13
REMARK    4  A    between atoms: C8_13  and  O2_14
REMARK    5  A    between atoms: C8_13  and  C9_16
REMARK    6  A    between atoms: C9_16  and  N4_17
REMARK    7  A    between atoms: N4_17  and  C11_19
REMARK    8  A    between atoms: C14_22  and  O3_24
ROOT
HETATM    1  C1  UNL     1       8.851  33.581  17.137  1.00  0.00     0.222 C
HETATM    2  N1  UNL     1       9.401  34.003  16.214  1.00  0.00    -0.460 NA
HETATM    3  C2  UNL     1      10.010  34.504  15.095  1.00  0.00     0.218 C
HETATM    4  C3  UNL     1       9.522  35.941  14.848  1.00  0.00     0.061 C
HETATM    5  C4  UNL     1       8.219  35.929  14.174  1.00  0.00     0.019 C
HETATM    6  C5  UNL     1      10.604  36.400  13.846  1.00  0.00     0.068 C
HETATM    7  N2  UNL     1      11.776  36.702  14.209  1.00  0.00    -0.371 N
HETATM    8  C6  UNL     1      12.345  36.727  15.495  1.00  0.00     0.256 C
HETATM    9  N3  UNL     1      12.306  35.223  15.796  1.00  0.00    -0.313 N
HETATM   10  C13 UNL     1      11.506  34.324  15.015  1.00  0.00     0.063 C
HETATM   11  C14 UNL     1      12.019  34.103  13.621  1.00  0.00     0.105 C
HETATM   12  C15 UNL     1      13.203  33.102  13.717  1.00  0.00     0.053 C
HETATM   13  C16 UNL     1      12.447  35.094  12.661  1.00  0.00     0.015 A
HETATM   14  C17 UNL     1      12.123  34.769  11.210  1.00  0.00     0.021 C
HETATM   15  C18 UNL     1      13.736  35.890  12.778  1.00  0.00     0.040 A
HETATM   16  C19 UNL     1      12.449  36.553  12.952  1.00  0.00     0.097 A
ENDROOT
BRANCH   9  17
HETATM   17  C7  UNL     1      13.165  34.900  16.839  1.00  0.00     0.150 C
BRANCH  17  18
HETATM   18  O1  UNL     1      14.427  34.831  16.476  1.00  0.00    -0.347 OA
ATOM     19  H1  UNL     1      14.881  34.074  16.825  1.00  0.00     0.219 HD
ENDBRANCH  17  18
BRANCH  17  20
HETATM   20  C8  UNL     1      12.956  34.620  18.236  1.00  0.00     0.221 C
BRANCH  20  21
HETATM   21  O2  UNL     1      12.709  33.214  18.409  1.00  0.00    -0.386 OA
ATOM     22  H2  UNL     1      12.193  33.078  19.195  1.00  0.00     0.210 HD
ENDBRANCH  20  21
BRANCH  20  23
HETATM   23  C9  UNL     1      14.017  34.907  19.232  1.00  0.00     0.311 C
BRANCH  23  24
HETATM   24  N4  UNL     1      13.953  36.146  19.936  1.00  0.00     0.086 N
HETATM   25  C10 UNL     1      14.181  36.034  21.339  1.00  0.00     0.310 C
BRANCH  24  26
HETATM   26  C11 UNL     1      14.938  37.061  19.396  1.00  0.00     0.267 C
HETATM   27  C12 UNL     1      14.374  38.084  18.457  1.00  0.00     0.037 C
ENDBRANCH  24  26
ENDBRANCH  23  24
ENDBRANCH  20  23
ENDBRANCH  17  20
ENDBRANCH   9  17
BRANCH  11  28
HETATM   28  O3  UNL     1      11.012  33.307  13.005  1.00  0.00    -0.383 OA
ATOM     29  H3  UNL     1      11.125  33.471  12.075  1.00  0.00     0.211 HD
ENDBRANCH  11  28
TORSDOF 8
ENDMDL