MODEL 5
REMARK VINA RESULT: -6.888100467      3.494      6.495
REMARK  4 active torsions:
REMARK  status: ('A' for Active; 'I' for Inactive)
REMARK    1  A    between atoms: O1_2  and  C2_3
REMARK    2  A    between atoms: C7_14  and  N4_15
REMARK    3  A    between atoms: N4_15  and  N5_16
REMARK    4  A    between atoms: N4_15  and  O3_19
ROOT
HETATM    1  C2  UNL     1     -12.036  65.360  20.026  1.00  0.00     0.373 C
HETATM    2  N1  UNL     1     -13.287  64.639  19.953  1.00  0.00    -0.295 N
ATOM      3  H1  UNL     1     -13.392  63.625  19.979  1.00  0.00     0.167 HD
HETATM    4  C3  UNL     1     -14.345  65.583  19.840  1.00  0.00     0.280 C
HETATM    5  O2  UNL     1     -15.582  65.436  19.844  1.00  0.00    -0.268 OA
HETATM    6  C4  UNL     1     -13.655  66.904  19.703  1.00  0.00     0.294 C
HETATM    7  C5  UNL     1     -14.493  68.043  20.163  1.00  0.00     0.083 C
HETATM    8  N2  UNL     1     -13.274  67.008  18.295  1.00  0.00    -0.285 N
ATOM      9  H2  UNL     1     -13.865  67.527  17.646  1.00  0.00     0.184 HD
HETATM   10  N3  UNL     1     -12.103  66.398  17.833  1.00  0.00    -0.247 N
HETATM   11  C6  UNL     1     -11.397  66.421  16.691  1.00  0.00     0.164 A
HETATM   12  C7  UNL     1     -10.296  65.598  16.809  1.00  0.00     0.147 A
HETATM   13  N6  UNL     1     -10.365  65.086  18.047  1.00  0.00    -0.325 N
ATOM     14  H6  UNL     1      -9.692  64.434  18.449  1.00  0.00     0.168 HD
HETATM   15  C8  UNL     1     -11.449  65.559  18.677  1.00  0.00     0.191 A
HETATM   16  N7  UNL     1     -12.469  66.691  20.482  1.00  0.00     0.021 N
ATOM     17  H71 UNL     1     -11.764  67.424  20.405  1.00  0.00     0.287 HD
ATOM     18  H72 UNL     1     -12.592  66.783  21.490  1.00  0.00     0.287 HD
ENDROOT
BRANCH  12  19
HETATM   19  N4  UNL     1      -9.282  65.338  15.815  1.00  0.00    -0.059 NA
BRANCH  19  20
HETATM   20  N5  UNL     1      -8.120  66.064  16.146  1.00  0.00    -0.335 NA
ATOM     21  H52 UNL     1      -7.812  65.816  17.087  1.00  0.00     0.173 HD
ATOM     22  H51 UNL     1      -7.402  65.877  15.447  1.00  0.00     0.173 HD
ENDBRANCH  19  20
BRANCH  19  23
HETATM   23  O3  UNL     1      -9.686  65.667  14.588  1.00  0.00    -0.288 OA
ATOM     24  H3  UNL     1     -10.617  65.520  14.467  1.00  0.00     0.239 HD
ENDBRANCH  19  23
ENDBRANCH  12  19
BRANCH   1  25
HETATM   25  O1  UNL     1     -11.169  64.864  20.960  1.00  0.00    -0.337 OA
HETATM   26  C1  UNL     1     -11.368  63.561  21.329  1.00  0.00     0.207 C
ENDBRANCH   1  25
TORSDOF 4
ENDMDL