MODEL 5
REMARK VINA RESULT: -6.641114105      2.264      4.495
REMARK  3 active torsions:
REMARK  status: ('A' for Active; 'I' for Inactive)
REMARK    1  A    between atoms: S1_2  and  C2_3
REMARK    2  A    between atoms: N3_9  and  N4_10
REMARK    3  A    between atoms: C5_14  and  N5_15
REMARK       I    between atoms: N7_20  and  C6_21
ROOT
HETATM    1  C2  UNL     1     -16.438  69.383  22.461  1.00  0.00     0.184 A
HETATM    2  N1  UNL     1     -17.143  70.539  22.225  1.00  0.00    -0.265 N
ATOM      3  H1  UNL     1     -17.713  71.029  22.914  1.00  0.00     0.189 HD
HETATM    4  N2  UNL     1     -16.975  70.915  20.989  1.00  0.00    -0.128 N
ATOM      5  H2  UNL     1     -17.387  71.740  20.554  1.00  0.00     0.205 HD
HETATM    6  C3  UNL     1     -16.162  70.027  20.384  1.00  0.00     0.728 A
HETATM    7  N3  UNL     1     -15.586  69.773  19.208  1.00  0.00    -0.083 N
HETATM    8  C4  UNL     1     -14.892  68.663  19.384  1.00  0.00     0.166 A
HETATM    9  C5  UNL     1     -14.061  67.757  18.759  1.00  0.00     0.148 A
HETATM   10  N6  UNL     1     -13.748  66.844  19.657  1.00  0.00    -0.272 N
ATOM     11  H6  UNL     1     -13.142  66.045  19.472  1.00  0.00     0.189 HD
HETATM   12  N7  UNL     1     -14.325  67.092  20.846  1.00  0.00    -0.186 N
HETATM   13  C6  UNL     1     -14.108  66.222  21.937  1.00  0.00     0.355 C
HETATM   14  N8  UNL     1     -13.252  65.053  21.759  1.00  0.00    -0.038 NA
HETATM   15  O1  UNL     1     -14.545  66.285  23.082  1.00  0.00    -0.249 OA
HETATM   16  C7  UNL     1     -15.031  68.200  20.704  1.00  0.00     0.190 A
HETATM   17  N9  UNL     1     -15.846  69.088  21.322  1.00  0.00    -0.102 N
ENDROOT
BRANCH   7  18
HETATM   18  N4  UNL     1     -15.660  70.488  18.004  1.00  0.00    -0.323 N
ATOM     19  H42 UNL     1     -15.031  71.245  17.737  1.00  0.00     0.178 HD
ATOM     20  H41 UNL     1     -16.314  70.387  17.228  1.00  0.00     0.178 HD
ENDBRANCH   7  18
BRANCH   9  21
HETATM   21  N5  UNL     1     -13.685  67.827  17.524  1.00  0.00    -0.382 N
ATOM     22  H52 UNL     1     -14.188  67.519  16.692  1.00  0.00     0.157 HD
ATOM     23  H51 UNL     1     -12.798  68.218  17.206  1.00  0.00     0.157 HD
ENDBRANCH   9  21
BRANCH   1  24
HETATM   24  S1  UNL     1     -16.446  68.597  24.038  1.00  0.00    -0.096 SA
HETATM   25  C1  UNL     1     -17.179  69.646  25.306  1.00  0.00     0.099 C
ENDBRANCH   1  24
TORSDOF 3
ENDMDL