MODEL 3
REMARK VINA RESULT: -8.294387315      1.674      2.517
REMARK  5 active torsions:
REMARK  status: ('A' for Active; 'I' for Inactive)
REMARK    1  A    between atoms: N2_3  and  C2_5
REMARK    2  A    between atoms: C3_10  and  N5_11
REMARK    3  A    between atoms: C5_13  and  N6_14
REMARK    4  A    between atoms: C6_17  and  O3_18
REMARK    5  A    between atoms: C7_24  and  N9_25
ROOT
HETATM    1  N1  UNL     1      -9.448  66.330  18.469  1.00  0.00    -0.172 NA
HETATM    2  C1  UNL     1     -10.568  66.298  18.197  1.00  0.00     0.183 C
HETATM    3  N2  UNL     1     -11.923  66.265  17.845  1.00  0.00    -0.275 N
ATOM      4  H2  UNL     1     -12.246  65.771  17.013  1.00  0.00     0.180 HD
ENDROOT
BRANCH   3   5
HETATM    5  C2  UNL     1     -12.756  66.895  18.634  1.00  0.00     0.174 A
HETATM    6  N3  UNL     1     -12.390  67.333  19.847  1.00  0.00    -0.268 N
HETATM    7  N4  UNL     1     -13.297  67.960  20.575  1.00  0.00    -0.128 N
ATOM      8  H3  UNL     1     -11.443  67.188  20.197  1.00  0.00     0.189 HD
HETATM    9  C3  UNL     1     -14.560  68.184  20.175  1.00  0.00     0.719 A
ATOM     10  H4  UNL     1     -13.021  68.295  21.499  1.00  0.00     0.205 HD
HETATM   11  N8  UNL     1     -14.910  67.740  18.958  1.00  0.00    -0.170 N
HETATM   12  C7  UNL     1     -14.036  67.096  18.170  1.00  0.00     0.161 A
ATOM     13  H8  UNL     1     -15.862  67.895  18.625  1.00  0.00     0.186 HD
BRANCH   9  14
HETATM   14  N5  UNL     1     -15.485  68.874  21.028  1.00  0.00    -0.092 N
HETATM   15  C4  UNL     1     -15.470  68.927  22.372  1.00  0.00     0.175 A
HETATM   16  C5  UNL     1     -16.528  69.690  22.822  1.00  0.00     0.172 A
HETATM   17  C6  UNL     1     -17.187  70.097  21.673  1.00  0.00     0.191 A
HETATM   18  N7  UNL     1     -16.513  69.575  20.640  1.00  0.00    -0.257 N
ATOM     19  H7  UNL     1     -16.774  69.711  19.663  1.00  0.00     0.190 HD
BRANCH  16  20
HETATM   20  N6  UNL     1     -16.880  70.002  24.163  1.00  0.00    -0.110 N
HETATM   21  O1  UNL     1     -17.254  71.152  24.431  1.00  0.00    -0.532 OA
HETATM   22  O2  UNL     1     -16.830  69.086  25.187  1.00  0.00    -0.532 OA
ENDBRANCH  16  20
BRANCH  17  23
HETATM   23  O3  UNL     1     -18.305  70.877  21.578  1.00  0.00    -0.343 OA
ATOM     24  H3  UNL     1     -19.205  70.630  21.755  1.00  0.00     0.219 HD
ENDBRANCH  17  23
ENDBRANCH   9  14
BRANCH  12  25
HETATM   25  N9  UNL     1     -14.366  66.660  16.988  1.00  0.00    -0.382 N
ATOM     26  H92 UNL     1     -14.867  65.782  16.857  1.00  0.00     0.157 HD
ATOM     27  H91 UNL     1     -14.119  67.208  16.165  1.00  0.00     0.157 HD
ENDBRANCH  12  25
ENDBRANCH   3   5
TORSDOF 5
ENDMDL