MODEL 5
REMARK VINA RESULT: -7.333976038      1.779      2.986
REMARK  5 active torsions:
REMARK  status: ('A' for Active; 'I' for Inactive)
REMARK    1  A    between atoms: O1_2  and  C2_3
REMARK    2  A    between atoms: C2_3  and  C3_5
REMARK    3  A    between atoms: N3_13  and  C7_14
REMARK    4  A    between atoms: C8_20  and  N6_21
REMARK    5  A    between atoms: C9_24  and  N7_25
ROOT
HETATM    1  C3  UNL     1     -14.429  67.164  20.271  1.00  0.00     0.121 A
HETATM    2  C4  UNL     1     -14.005  66.295  21.239  1.00  0.00     0.138 A
HETATM    3  C5  UNL     1     -13.156  65.189  20.869  1.00  0.00     0.119 C
HETATM    4  N1  UNL     1     -12.466  64.290  20.585  1.00  0.00    -0.190 NA
HETATM    5  N2  UNL     1     -14.396  66.503  22.509  1.00  0.00    -0.298 N
ATOM      6  H2  UNL     1     -14.089  65.865  23.244  1.00  0.00     0.171 HD
HETATM    7  C6  UNL     1     -15.182  67.536  22.813  1.00  0.00     0.335 A
HETATM    8  O3  UNL     1     -15.508  67.667  24.030  1.00  0.00    -0.246 OA
HETATM    9  N3  UNL     1     -15.633  68.425  21.913  1.00  0.00    -0.229 N
HETATM   10  C9  UNL     1     -15.242  68.223  20.625  1.00  0.00     0.131 A
ENDROOT
BRANCH   1  11
HETATM   11  C2  UNL     1     -14.034  66.988  18.868  1.00  0.00     0.299 C
HETATM   12  O2  UNL     1     -14.877  66.449  18.105  1.00  0.00    -0.259 OA
BRANCH  11  13
HETATM   13  O1  UNL     1     -12.828  67.370  18.353  1.00  0.00    -0.322 OA
HETATM   14  C1  UNL     1     -12.555  68.723  18.015  1.00  0.00     0.213 C
ENDBRANCH  11  13
ENDBRANCH   1  11
BRANCH  10  15
HETATM   15  N7  UNL     1     -15.655  69.051  19.748  1.00  0.00    -0.384 N
ATOM     16  H72 UNL     1     -15.363  70.024  19.846  1.00  0.00     0.157 HD
ATOM     17  H71 UNL     1     -16.254  68.747  18.981  1.00  0.00     0.157 HD
ENDBRANCH  10  15
BRANCH   9  18
HETATM   18  C7  UNL     1     -16.470  69.511  22.292  1.00  0.00     0.185 A
HETATM   19  N4  UNL     1     -17.446  70.103  21.580  1.00  0.00    -0.221 N
HETATM   20  O4  UNL     1     -17.989  71.063  22.264  1.00  0.00    -0.153 OA
ATOM     21  H4  UNL     1     -17.721  69.835  20.635  1.00  0.00     0.198 HD
HETATM   22  N5  UNL     1     -17.413  71.141  23.420  1.00  0.00    -0.222 N
HETATM   23  C8  UNL     1     -16.457  70.203  23.505  1.00  0.00     0.168 A
ATOM     24  H5  UNL     1     -17.650  71.810  24.153  1.00  0.00     0.198 HD
BRANCH  23  25
HETATM   25  N6  UNL     1     -15.677  69.963  24.478  1.00  0.00    -0.381 N
ATOM     26  H62 UNL     1     -15.160  69.106  24.675  1.00  0.00     0.157 HD
ATOM     27  H61 UNL     1     -15.449  70.618  25.226  1.00  0.00     0.157 HD
ENDBRANCH  23  25
ENDBRANCH   9  18
TORSDOF 5
ENDMDL