MODEL 3
REMARK VINA RESULT: -7.920375598      2.014      4.966
REMARK  4 active torsions:
REMARK  status: ('A' for Active; 'I' for Inactive)
REMARK    1  A    between atoms: N3_13  and  O3_14
REMARK    2  A    between atoms: C6_16  and  N4_17
REMARK    3  A    between atoms: N4_17  and  N5_19
REMARK    4  A    between atoms: C7_21  and  C8_22
ROOT
HETATM    1  N1  UNL     1     -15.381  70.813  18.172  1.00  0.00    -0.383 N
ATOM      2  H11 UNL     1     -14.589  70.649  17.551  1.00  0.00     0.158 HD
ATOM      3  H12 UNL     1     -15.937  71.656  18.032  1.00  0.00     0.158 HD
HETATM    4  C1  UNL     1     -15.624  69.943  19.090  1.00  0.00     0.125 C
HETATM    5  C2  UNL     1     -16.777  70.181  19.994  1.00  0.00     0.169 C
HETATM    6  C3  UNL     1     -16.325  69.825  21.362  1.00  0.00     0.186 C
HETATM    7  O1  UNL     1     -16.612  70.529  22.361  1.00  0.00    -0.290 OA
HETATM    8  C4  UNL     1     -15.523  68.622  21.544  1.00  0.00     0.121 A
HETATM    9  N2  UNL     1     -15.493  67.995  22.757  1.00  0.00    -0.301 N
ATOM     10  H2  UNL     1     -16.031  68.368  23.538  1.00  0.00     0.171 HD
HETATM   11  C5  UNL     1     -14.752  66.883  22.921  1.00  0.00     0.353 A
HETATM   12  O2  UNL     1     -14.703  66.277  24.040  1.00  0.00    -0.244 OA
HETATM   13  N3  UNL     1     -14.040  66.387  21.893  1.00  0.00    -0.151 N
HETATM   14  C6  UNL     1     -14.052  66.988  20.679  1.00  0.00     0.189 A
HETATM   15  C9  UNL     1     -14.802  68.127  20.483  1.00  0.00     0.155 A
HETATM   16  O5  UNL     1     -14.870  68.801  19.279  1.00  0.00    -0.291 OA
ENDROOT
BRANCH  14  17
HETATM   17  N4  UNL     1     -13.356  66.488  19.704  1.00  0.00    -0.281 N
ATOM     18  H4  UNL     1     -13.857  66.067  18.921  1.00  0.00     0.188 HD
BRANCH  17  19
HETATM   19  N5  UNL     1     -11.979  66.491  19.666  1.00  0.00    -0.307 N
HETATM   20  C7  UNL     1     -11.261  65.789  18.884  1.00  0.00     0.148 C
ATOM     21  H5  UNL     1     -11.494  67.107  20.319  1.00  0.00     0.186 HD
BRANCH  20  22
HETATM   22  C8  UNL     1      -9.811  65.898  18.959  1.00  0.00     0.277 C
HETATM   23  O4  UNL     1      -9.150  66.351  17.992  1.00  0.00    -0.301 OA
ENDBRANCH  20  22
ENDBRANCH  17  19
ENDBRANCH  14  17
BRANCH  13  24
HETATM   24  O3  UNL     1     -13.291  65.242  22.104  1.00  0.00    -0.277 OA
ATOM     25  H3  UNL     1     -12.530  65.299  22.668  1.00  0.00     0.245 HD
ENDBRANCH  13  24
TORSDOF 4
ENDMDL