MODEL 2
REMARK VINA RESULT: -8.316810844      2.349      6.324
REMARK  3 active torsions:
REMARK  status: ('A' for Active; 'I' for Inactive)
REMARK    1  A    between atoms: N1_2  and  N2_3
REMARK    2  A    between atoms: N1_2  and  C4_13
REMARK    3  A    between atoms: N2_3  and  C2_5
ROOT
HETATM    1  C4  UNL     1     -12.702  65.545  19.916  1.00  0.00     0.145 A
HETATM    2  C5  UNL     1     -11.813  65.931  18.944  1.00  0.00     0.131 A
HETATM    3  C6  UNL     1     -12.149  66.787  17.867  1.00  0.00     0.106 C
HETATM    4  N5  UNL     1     -12.421  67.492  16.995  1.00  0.00    -0.191 NA
HETATM    5  C7  UNL     1     -10.498  65.468  18.998  1.00  0.00     0.187 A
HETATM    6  N6  UNL     1      -9.629  65.808  18.103  1.00  0.00    -0.377 N
ATOM      7  H61 UNL     1      -8.668  65.469  18.142  1.00  0.00     0.158 HD
ATOM      8  H62 UNL     1      -9.923  66.427  17.347  1.00  0.00     0.158 HD
HETATM    9  O3  UNL     1     -10.120  64.672  19.970  1.00  0.00    -0.216 OA
HETATM   10  N7  UNL     1     -10.970  64.315  20.881  1.00  0.00    -0.222 N
ATOM     11  H7  UNL     1     -10.643  63.695  21.621  1.00  0.00     0.198 HD
HETATM   12  C8  UNL     1     -12.258  64.709  20.914  1.00  0.00     0.295 A
HETATM   13  O4  UNL     1     -13.006  64.306  21.844  1.00  0.00    -0.264 OA
ENDROOT
BRANCH   1  14
HETATM   14  N1  UNL     1     -14.024  66.007  19.868  1.00  0.00    -0.276 N
HETATM   15  C1  UNL     1     -15.022  65.093  19.336  1.00  0.00     0.179 C
BRANCH  14  16
HETATM   16  N2  UNL     1     -14.456  67.265  20.287  1.00  0.00    -0.128 N
ATOM     17  H2  UNL     1     -14.552  68.011  19.598  1.00  0.00     0.206 HD
BRANCH  16  18
HETATM   18  C2  UNL     1     -14.766  67.538  21.655  1.00  0.00     0.721 A
HETATM   19  N3  UNL     1     -15.267  68.666  22.192  1.00  0.00    -0.130 N
HETATM   20  C3  UNL     1     -15.412  68.509  23.522  1.00  0.00     0.401 A
ATOM     21  H3  UNL     1     -15.500  69.511  21.671  1.00  0.00     0.190 HD
HETATM   22  O1  UNL     1     -15.846  69.321  24.384  1.00  0.00    -0.236 OA
HETATM   23  O2  UNL     1     -15.004  67.302  23.794  1.00  0.00    -0.165 OA
HETATM   24  N4  UNL     1     -14.618  66.710  22.705  1.00  0.00    -0.085 N
ATOM     25  H4  UNL     1     -14.256  65.758  22.653  1.00  0.00     0.214 HD
ENDBRANCH  16  18
ENDBRANCH  14  16
ENDBRANCH   1  14
TORSDOF 3
ENDMDL