MODEL 1
REMARK VINA RESULT: -8.038971963      0.000      0.000
REMARK  5 active torsions:
REMARK  status: ('A' for Active; 'I' for Inactive)
REMARK    1  A    between atoms: C3_5  and  N2_6
REMARK    2  A    between atoms: C4_7  and  N3_8
REMARK    3  A    between atoms: N3_8  and  N4_10
REMARK    4  A    between atoms: C7_17  and  N6_18
REMARK    5  A    between atoms: C8_21  and  N7_22
ROOT
HETATM    1  N2  UNL     1     -13.846  67.246  20.879  1.00  0.00     0.043 N
HETATM    2  C4  UNL     1     -13.059  67.900  20.004  1.00  0.00     0.719 A
HETATM    3  N5  UNL     1     -12.058  67.253  19.366  1.00  0.00    -0.191 N
ATOM      4  H5  UNL     1     -11.453  67.733  18.701  1.00  0.00     0.184 HD
HETATM    5  C5  UNL     1     -11.896  65.950  19.648  1.00  0.00     0.059 A
HETATM    6  C6  UNL     1     -10.808  65.207  18.965  1.00  0.00     0.071 C
HETATM    7  C7  UNL     1     -12.672  65.235  20.533  1.00  0.00     0.170 A
HETATM    8  C8  UNL     1     -13.684  65.929  21.164  1.00  0.00     0.176 A
ENDROOT
BRANCH   1   9
HETATM    9  C3  UNL     1     -14.885  67.978  21.520  1.00  0.00     0.721 A
HETATM   10  N1  UNL     1     -14.842  68.411  22.783  1.00  0.00    -0.177 N
HETATM   11  C2  UNL     1     -15.985  69.062  23.060  1.00  0.00     0.108 A
ATOM     12  H1  UNL     1     -14.067  68.270  23.432  1.00  0.00     0.185 HD
HETATM   13  C1  UNL     1     -16.329  69.692  24.350  1.00  0.00     0.091 C
HETATM   14  N9  UNL     1     -16.750  69.036  21.963  1.00  0.00    -0.275 N
HETATM   15  N8  UNL     1     -16.071  68.377  21.039  1.00  0.00    -0.130 N
ATOM     16  H9  UNL     1     -17.678  69.446  21.859  1.00  0.00     0.189 HD
ATOM     17  H8  UNL     1     -16.403  68.198  20.092  1.00  0.00     0.205 HD
ENDBRANCH   1   9
BRANCH   2  18
HETATM   18  N3  UNL     1     -13.249  69.169  19.759  1.00  0.00    -0.137 N
ATOM     19  H3  UNL     1     -13.626  69.759  20.499  1.00  0.00     0.205 HD
BRANCH  18  20
HETATM   20  N4  UNL     1     -12.960  69.740  18.540  1.00  0.00    -0.331 N
ATOM     21  H42 UNL     1     -11.986  69.970  18.342  1.00  0.00     0.177 HD
ATOM     22  H41 UNL     1     -13.678  69.936  17.841  1.00  0.00     0.177 HD
ENDBRANCH  18  20
ENDBRANCH   2  18
BRANCH   8  23
HETATM   23  N7  UNL     1     -14.470  65.343  22.015  1.00  0.00    -0.382 N
ATOM     24  H72 UNL     1     -15.379  64.981  21.729  1.00  0.00     0.157 HD
ATOM     25  H71 UNL     1     -14.184  65.236  22.988  1.00  0.00     0.157 HD
ENDBRANCH   8  23
BRANCH   7  26
HETATM   26  N6  UNL     1     -12.480  63.857  20.818  1.00  0.00    -0.110 N
HETATM   27  O1  UNL     1     -12.097  63.554  21.961  1.00  0.00    -0.532 OA
HETATM   28  O2  UNL     1     -12.695  62.858  19.906  1.00  0.00    -0.532 OA
ENDBRANCH   7  26
TORSDOF 5
ENDMDL