MODEL 1
REMARK VINA RESULT: -7.838060288      0.000      0.000
REMARK  4 active torsions:
REMARK  status: ('A' for Active; 'I' for Inactive)
REMARK    1  A    between atoms: C2_2  and  O2_4
REMARK    2  A    between atoms: O2_4  and  C3_5
REMARK    3  A    between atoms: C8_16  and  N4_17
REMARK    4  A    between atoms: N4_17  and  O4_18
REMARK       I    between atoms: N4_17  and  C9_20
REMARK       I    between atoms: C9_20  and  N5_21
REMARK       I    between atoms: C9_20  and  N6_25
ROOT
HETATM    1  C3  UNL     1     -13.462  65.972  20.739  1.00  0.00     0.195 A
HETATM    2  C4  UNL     1     -14.294  64.960  19.978  1.00  0.00     0.065 C
HETATM    3  C5  UNL     1     -14.230  66.491  21.865  1.00  0.00     0.230 A
HETATM    4  O3  UNL     1     -14.765  65.708  22.735  1.00  0.00    -0.286 OA
HETATM    5  C6  UNL     1     -14.447  67.898  22.085  1.00  0.00     0.178 A
HETATM    6  C7  UNL     1     -15.177  68.336  23.254  1.00  0.00     0.123 C
HETATM    7  N1  UNL     1     -15.764  68.710  24.193  1.00  0.00    -0.190 NA
HETATM    8  N2  UNL     1     -13.997  68.767  21.251  1.00  0.00    -0.286 N
ATOM      9  H2  UNL     1     -14.145  69.766  21.386  1.00  0.00     0.188 HD
HETATM   10  N3  UNL     1     -13.307  68.283  20.168  1.00  0.00    -0.283 N
ATOM     11  H3  UNL     1     -12.968  68.991  19.517  1.00  0.00     0.188 HD
HETATM   12  C8  UNL     1     -13.024  67.078  19.854  1.00  0.00     0.166 A
ENDROOT
BRANCH   1  13
HETATM   13  O2  UNL     1     -12.251  65.353  21.140  1.00  0.00    -0.294 OA
BRANCH  13  14
HETATM   14  C2  UNL     1     -11.981  64.026  21.299  1.00  0.00     0.256 C
HETATM   15  C1  UNL     1     -11.227  63.345  20.195  1.00  0.00     0.126 C
HETATM   16  O1  UNL     1     -12.350  63.422  22.315  1.00  0.00    -0.266 OA
ENDBRANCH  13  14
ENDBRANCH   1  13
BRANCH  12  17
HETATM   17  N4  UNL     1     -12.296  66.889  18.624  1.00  0.00    -0.188 N
HETATM   18  C9  UNL     1     -12.791  66.919  17.306  1.00  0.00     0.507 C
HETATM   19  N5  UNL     1     -11.744  66.398  16.404  1.00  0.00    -0.031 N
HETATM   20  N6  UNL     1     -13.122  68.243  16.791  1.00  0.00    -0.031 N
ATOM     21  H53 UNL     1     -10.859  66.896  16.502  1.00  0.00     0.279 HD
ATOM     22  H52 UNL     1     -11.415  65.473  16.678  1.00  0.00     0.279 HD
ATOM     23  H51 UNL     1     -12.102  66.420  15.449  1.00  0.00     0.279 HD
ATOM     24  H63 UNL     1     -13.775  68.711  17.420  1.00  0.00     0.279 HD
ATOM     25  H62 UNL     1     -12.316  68.863  16.877  1.00  0.00     0.279 HD
ATOM     26  H61 UNL     1     -13.479  68.265  15.836  1.00  0.00     0.279 HD
BRANCH  17  27
HETATM   27  O4  UNL     1     -10.948  66.659  18.801  1.00  0.00    -0.282 OA
ATOM     28  H4  UNL     1     -10.483  66.450  17.998  1.00  0.00     0.245 HD
ENDBRANCH  17  27
ENDBRANCH  12  17
TORSDOF 4
ENDMDL