MODEL 5
REMARK VINA RESULT: -8.073967446      1.910      5.895
REMARK  3 active torsions:
REMARK  status: ('A' for Active; 'I' for Inactive)
REMARK    1  A    between atoms: C2_3  and  O1_4
REMARK    2  A    between atoms: O1_4  and  C3_5
REMARK    3  A    between atoms: C5_9  and  N3_10
ROOT
HETATM    1  C1  UNL     1     -13.273  69.098  18.545  1.00  0.00     0.163 C
HETATM    2  N1  UNL     1     -14.298  69.019  19.564  1.00  0.00    -0.280 N
HETATM    3  C2  UNL     1     -14.126  68.202  20.660  1.00  0.00     0.193 A
HETATM    4  C7  UNL     1     -15.123  68.153  21.634  1.00  0.00     0.180 A
HETATM    5  C8  UNL     1     -14.932  67.418  22.856  1.00  0.00     0.123 C
HETATM    6  N6  UNL     1     -14.756  66.839  23.840  1.00  0.00    -0.190 NA
HETATM    7  N7  UNL     1     -16.221  68.901  21.464  1.00  0.00    -0.283 N
ATOM      8  H7  UNL     1     -16.954  68.865  22.173  1.00  0.00     0.188 HD
HETATM    9  N8  UNL     1     -16.388  69.683  20.412  1.00  0.00    -0.250 N
ATOM     10  H8  UNL     1     -17.236  70.241  20.310  1.00  0.00     0.192 HD
HETATM   11  C9  UNL     1     -15.416  69.731  19.472  1.00  0.00     0.342 A
HETATM   12  O2  UNL     1     -15.631  70.496  18.495  1.00  0.00    -0.245 OA
ENDROOT
BRANCH   3  13
HETATM   13  O1  UNL     1     -12.995  67.518  20.710  1.00  0.00    -0.285 OA
BRANCH  13  14
HETATM   14  C3  UNL     1     -12.567  66.269  20.438  1.00  0.00     0.137 A
HETATM   15  C4  UNL     1     -13.252  65.205  21.118  1.00  0.00     0.147 A
HETATM   16  N2  UNL     1     -12.948  63.933  20.960  1.00  0.00    -0.199 N
HETATM   17  C5  UNL     1     -11.952  63.607  20.123  1.00  0.00     0.677 A
ATOM     18  H2  UNL     1     -13.461  63.209  21.464  1.00  0.00     0.183 HD
HETATM   19  N4  UNL     1     -11.270  64.535  19.457  1.00  0.00    -0.175 N
HETATM   20  C6  UNL     1     -11.569  65.854  19.609  1.00  0.00     0.150 A
ATOM     21  H4  UNL     1     -10.518  64.257  18.827  1.00  0.00     0.186 HD
HETATM   22  N5  UNL     1     -10.855  66.709  18.980  1.00  0.00    -0.383 N
ATOM     23  H52 UNL     1     -11.080  67.697  19.094  1.00  0.00     0.157 HD
ATOM     24  H51 UNL     1     -10.108  66.398  18.359  1.00  0.00     0.157 HD
BRANCH  17  25
HETATM   25  N3  UNL     1     -11.646  62.353  19.960  1.00  0.00    -0.234 N
ATOM     26  H32 UNL     1     -12.364  61.642  20.097  1.00  0.00     0.174 HD
ATOM     27  H31 UNL     1     -10.692  62.104  19.697  1.00  0.00     0.174 HD
ENDBRANCH  17  25
ENDBRANCH  13  14
ENDBRANCH   3  13
TORSDOF 3
ENDMDL