MODEL 5
REMARK VINA RESULT: -6.838161676      2.665      5.447
REMARK  6 active torsions:
REMARK  status: ('A' for Active; 'I' for Inactive)
REMARK    1  A    between atoms: O1_2  and  C2_3
REMARK    2  A    between atoms: C2_3  and  C3_5
REMARK    3  A    between atoms: C5_11  and  N3_12
REMARK    4  A    between atoms: C6_15  and  N4_16
REMARK    5  A    between atoms: C7_22  and  O3_23
REMARK    6  A    between atoms: O3_23  and  N7_24
ROOT
HETATM    1  C3  UNL     1     -15.565  68.454  21.508  1.00  0.00     0.134 A
HETATM    2  N1  UNL     1     -15.034  67.338  22.022  1.00  0.00    -0.183 N
ATOM      3  H1  UNL     1     -15.322  67.004  22.942  1.00  0.00     0.184 HD
HETATM    4  C4  UNL     1     -14.099  66.652  21.298  1.00  0.00     0.708 A
HETATM    5  N2  UNL     1     -13.550  65.536  21.783  1.00  0.00    -0.171 N
ATOM      6  H2  UNL     1     -13.832  65.193  22.702  1.00  0.00     0.186 HD
HETATM    7  C5  UNL     1     -12.613  64.845  21.062  1.00  0.00     0.160 A
HETATM    8  C6  UNL     1     -12.210  65.279  19.821  1.00  0.00     0.159 A
HETATM    9  N5  UNL     1     -12.800  66.427  19.366  1.00  0.00    -0.259 N
ATOM     10  H5  UNL     1     -12.538  66.794  18.451  1.00  0.00     0.190 HD
HETATM   11  N6  UNL     1     -13.700  67.069  20.087  1.00  0.00    -0.059 N
HETATM   12  C7  UNL     1     -14.251  68.205  19.580  1.00  0.00     0.216 A
HETATM   13  C8  UNL     1     -15.188  68.925  20.265  1.00  0.00     0.027 A
HETATM   14  C9  UNL     1     -15.758  70.165  19.666  1.00  0.00     0.056 C
ENDROOT
BRANCH   1  15
HETATM   15  C2  UNL     1     -16.559  69.171  22.292  1.00  0.00     0.310 C
HETATM   16  O2  UNL     1     -17.774  68.969  22.034  1.00  0.00    -0.258 OA
BRANCH  15  17
HETATM   17  O1  UNL     1     -16.293  70.061  23.303  1.00  0.00    -0.321 OA
HETATM   18  C1  UNL     1     -16.705  69.901  24.641  1.00  0.00     0.213 C
ENDBRANCH  15  17
ENDBRANCH   1  15
BRANCH  12  19
HETATM   19  O3  UNL     1     -13.824  68.627  18.315  1.00  0.00    -0.224 OA
BRANCH  19  20
HETATM   20  N7  UNL     1     -12.817  69.592  18.324  1.00  0.00    -0.303 N
ATOM     21  H72 UNL     1     -13.018  70.576  18.148  1.00  0.00     0.184 HD
ATOM     22  H71 UNL     1     -11.882  69.236  18.518  1.00  0.00     0.184 HD
ENDBRANCH  19  20
ENDBRANCH  12  19
BRANCH   7  23
HETATM   23  N3  UNL     1     -12.109  63.774  21.563  1.00  0.00    -0.382 N
ATOM     24  H32 UNL     1     -11.626  63.809  22.460  1.00  0.00     0.157 HD
ATOM     25  H31 UNL     1     -12.203  62.898  21.048  1.00  0.00     0.157 HD
ENDBRANCH   7  23
BRANCH   8  26
HETATM   26  N4  UNL     1     -11.343  64.695  19.085  1.00  0.00    -0.381 N
ATOM     27  H42 UNL     1     -11.004  63.773  19.359  1.00  0.00     0.157 HD
ATOM     28  H41 UNL     1     -10.951  65.079  18.226  1.00  0.00     0.157 HD
ENDBRANCH   8  26
TORSDOF 6
ENDMDL