MODEL 2
REMARK VINA RESULT: -7.470597096      1.698      2.067
REMARK  11 active torsions:
REMARK  status: ('A' for Active; 'I' for Inactive)
REMARK    1  A    between atoms: N2_4  and  N3_6
REMARK    2  A    between atoms: N3_6  and  C1_8
REMARK    3  A    between atoms: N4_9  and  C2_11
REMARK    4  A    between atoms: C2_11  and  C3_12
REMARK    5  A    between atoms: C3_12  and  C4_13
REMARK    6  A    between atoms: C4_13  and  C5_14
REMARK    7  A    between atoms: C5_14  and  C6_15
REMARK    8  A    between atoms: C6_15  and  C7_16
REMARK    9  A    between atoms: C7_16  and  O1_17
REMARK   10  A    between atoms: C7_16  and  N5_19
REMARK   11  A    between atoms: N5_19  and  N6_21
ROOT
HETATM    1  C5  UNL     1      25.279   6.801  35.113  1.00  0.00     0.004 C
ENDROOT
BRANCH   1   2
HETATM    2  C4  UNL     1      24.363   8.029  35.107  1.00  0.00     0.002 C
BRANCH   2   3
HETATM    3  C3  UNL     1      24.764   9.001  34.031  1.00  0.00     0.020 C
BRANCH   3   4
HETATM    4  C2  UNL     1      24.203  10.373  34.436  1.00  0.00     0.120 C
BRANCH   4   5
HETATM    5  N4  UNL     1      24.909  11.358  33.663  1.00  0.00    -0.385 N
HETATM    6  C1  UNL     1      25.831  12.112  34.101  1.00  0.00     0.194 C
ATOM      7  H4  UNL     1      24.647  11.460  32.682  1.00  0.00     0.160 HD
BRANCH   6   8
HETATM    8  N3  UNL     1      26.439  13.042  33.215  1.00  0.00    -0.283 N
ATOM      9  H3  UNL     1      26.799  12.710  32.320  1.00  0.00     0.189 HD
BRANCH   8  10
HETATM   10  N2  UNL     1      26.559  14.391  33.533  1.00  0.00    -0.248 N
HETATM   11  N1  UNL     1      26.473  14.739  34.742  1.00  0.00    -0.331 N
ATOM     12  H12 UNL     1      26.318  14.033  35.461  1.00  0.00     0.178 HD
ATOM     13  H11 UNL     1      26.560  15.728  34.975  1.00  0.00     0.178 HD
ATOM     14  H2  UNL     1      26.713  15.085  32.802  1.00  0.00     0.207 HD
ENDBRANCH   8  10
ENDBRANCH   6   8
ENDBRANCH   4   5
ENDBRANCH   3   4
ENDBRANCH   2   3
ENDBRANCH   1   2
BRANCH   1  15
HETATM   15  C6  UNL     1      24.792   5.757  34.171  1.00  0.00     0.055 C
BRANCH  15  16
HETATM   16  C7  UNL     1      23.663   4.946  34.709  1.00  0.00     0.233 C
BRANCH  16  17
HETATM   17  O1  UNL     1      24.093   3.595  34.693  1.00  0.00    -0.376 OA
ATOM     18  H1  UNL     1      23.312   3.060  34.786  1.00  0.00     0.212 HD
ENDBRANCH  16  17
BRANCH  16  19
HETATM   19  N5  UNL     1      22.417   5.154  34.076  1.00  0.00    -0.308 N
ATOM     20  H5  UNL     1      22.392   5.666  33.194  1.00  0.00     0.183 HD
BRANCH  19  21
HETATM   21  N6  UNL     1      21.224   4.686  34.613  1.00  0.00    -0.311 N
HETATM   22  C8  UNL     1      20.329   4.172  33.863  1.00  0.00     0.007 C
HETATM   23  C9  UNL     1      20.557   4.070  32.408  1.00  0.00     0.080 C
HETATM   24  C12 UNL     1      19.054   3.668  34.411  1.00  0.00     0.080 C
HETATM   25  C10 UNL     1      19.227   4.062  31.731  1.00  0.00     0.173 C
HETATM   26  O2  UNL     1      18.331   3.131  32.181  1.00  0.00    -0.390 OA
HETATM   27  C11 UNL     1      18.569   2.601  33.421  1.00  0.00     0.173 C
ATOM     28  H6  UNL     1      21.062   4.755  35.617  1.00  0.00     0.186 HD
ENDBRANCH  19  21
ENDBRANCH  16  19
ENDBRANCH  15  16
ENDBRANCH   1  15
TORSDOF 11
ENDMDL