MODEL 5
REMARK VINA RESULT: -6.960060039      3.041      7.163
REMARK  9 active torsions:
REMARK  status: ('A' for Active; 'I' for Inactive)
REMARK    1  A    between atoms: N2_3  and  C2_5
REMARK    2  A    between atoms: C2_5  and  C3_6
REMARK    3  A    between atoms: C3_6  and  C4_7
REMARK    4  A    between atoms: C6_12  and  C7_13
REMARK    5  A    between atoms: C7_13  and  C8_14
REMARK    6  A    between atoms: C8_14  and  N4_15
REMARK    7  A    between atoms: N4_15  and  C9_17
REMARK    8  A    between atoms: C9_17  and  C10_18
REMARK    9  A    between atoms: C10_18  and  C11_19
ROOT
HETATM    1  C4  UNL     1      24.572   5.606  34.511  1.00  0.00     0.289 C
HETATM    2  N3  UNL     1      23.351   5.367  35.251  1.00  0.00    -0.331 N
ATOM      3  H3  UNL     1      23.146   5.686  36.198  1.00  0.00     0.164 HD
HETATM    4  C5  UNL     1      22.488   4.601  34.411  1.00  0.00     0.250 C
HETATM    5  O1  UNL     1      21.374   4.172  34.756  1.00  0.00    -0.271 OA
HETATM    6  C6  UNL     1      23.213   4.475  33.152  1.00  0.00     0.284 C
HETATM    7  N5  UNL     1      24.026   5.668  33.140  1.00  0.00    -0.041 N
ATOM      8  H51 UNL     1      24.712   5.735  32.388  1.00  0.00     0.280 HD
ATOM      9  H52 UNL     1      23.549   6.533  32.887  1.00  0.00     0.280 HD
ENDROOT
BRANCH   6  10
HETATM   10  C7  UNL     1      22.437   4.174  31.949  1.00  0.00     0.087 C
BRANCH  10  11
HETATM   11  C8  UNL     1      21.930   5.309  31.134  1.00  0.00     0.062 C
BRANCH  11  12
HETATM   12  N4  UNL     1      20.965   5.057  30.158  1.00  0.00    -0.382 N
ATOM     13  H4  UNL     1      21.167   4.383  29.419  1.00  0.00     0.164 HD
BRANCH  12  14
HETATM   14  C9  UNL     1      19.725   5.708  30.168  1.00  0.00     0.064 C
BRANCH  14  15
HETATM   15  C10 UNL     1      18.515   4.838  30.027  1.00  0.00     0.083 C
BRANCH  15  16
HETATM   16  C11 UNL     1      17.518   5.375  29.072  1.00  0.00    -0.053 A
HETATM   17  C12 UNL     1      17.843   5.616  27.757  1.00  0.00     0.007 A
HETATM   18  C13 UNL     1      16.892   6.121  26.862  1.00  0.00     0.001 A
HETATM   19  C14 UNL     1      15.615   6.390  27.267  1.00  0.00     0.000 A
HETATM   20  C15 UNL     1      15.270   6.158  28.565  1.00  0.00     0.001 A
HETATM   21  C16 UNL     1      16.210   5.659  29.446  1.00  0.00     0.007 A
ENDBRANCH  15  16
ENDBRANCH  14  15
ENDBRANCH  12  14
ENDBRANCH  11  12
ENDBRANCH  10  11
ENDBRANCH   6  10
BRANCH   1  22
HETATM   22  C3  UNL     1      25.311   6.834  34.877  1.00  0.00     0.074 C
BRANCH  22  23
HETATM   23  C2  UNL     1      24.371   8.014  34.816  1.00  0.00     0.123 C
BRANCH  23  24
HETATM   24  N2  UNL     1      24.910   9.123  34.099  1.00  0.00    -0.388 N
HETATM   25  C1  UNL     1      24.360  10.275  34.134  1.00  0.00     0.185 C
HETATM   26  N1  UNL     1      23.188  10.489  34.892  1.00  0.00    -0.097 NA
ATOM     27  H2  UNL     1      25.756   8.993  33.545  1.00  0.00     0.159 HD
ENDBRANCH  23  24
ENDBRANCH  22  23
ENDBRANCH   1  22
TORSDOF 9
ENDMDL