MODEL 4
REMARK VINA RESULT: -6.836653579      1.538      2.315
REMARK  12 active torsions:
REMARK  status: ('A' for Active; 'I' for Inactive)
REMARK    1  A    between atoms: N3_4  and  C2_6
REMARK    2  A    between atoms: C2_6  and  C3_7
REMARK    3  A    between atoms: C3_7  and  C4_8
REMARK    4  A    between atoms: C4_8  and  C5_9
REMARK    5  A    between atoms: C5_9  and  C6_10
REMARK    6  A    between atoms: C6_10  and  C7_11
REMARK    7  A    between atoms: C7_11  and  C8_12
REMARK    8  A    between atoms: C8_12  and  O1_13
REMARK    9  A    between atoms: O1_13  and  C9_14
REMARK   10  A    between atoms: C9_14  and  C10_15
REMARK   11  A    between atoms: C11_16  and  O2_17
REMARK   12  A    between atoms: C15_22  and  N4_23
ROOT
HETATM    1  O1  UNL     1      20.042   3.900  34.269  1.00  0.00    -0.391 OA
ENDROOT
BRANCH   1   2
HETATM    2  C8  UNL     1      20.906   2.893  34.138  1.00  0.00     0.167 C
BRANCH   2   3
HETATM    3  C7  UNL     1      22.365   3.234  34.495  1.00  0.00     0.026 C
BRANCH   3   4
HETATM    4  C6  UNL     1      22.820   4.253  33.506  1.00  0.00     0.002 C
BRANCH   4   5
HETATM    5  C5  UNL     1      23.104   5.625  34.133  1.00  0.00     0.000 C
BRANCH   5   6
HETATM    6  C4  UNL     1      24.467   5.642  34.738  1.00  0.00     0.002 C
BRANCH   6   7
HETATM    7  C3  UNL     1      25.172   6.950  34.667  1.00  0.00     0.020 C
BRANCH   7   8
HETATM    8  C2  UNL     1      24.303   8.146  34.542  1.00  0.00     0.122 C
BRANCH   8   9
HETATM    9  N3  UNL     1      24.988   9.335  34.116  1.00  0.00    -0.367 N
HETATM   10  C1  UNL     1      24.472  10.503  34.225  1.00  0.00     0.196 C
HETATM   11  N1  UNL     1      23.185  10.652  34.780  1.00  0.00    -0.067 NA
HETATM   12  N2  UNL     1      25.178  11.653  33.795  1.00  0.00    -0.067 NA
ATOM     13  H3  UNL     1      25.920   9.247  33.712  1.00  0.00     0.161 HD
ENDBRANCH   8   9
ENDBRANCH   7   8
ENDBRANCH   6   7
ENDBRANCH   5   6
ENDBRANCH   4   5
ENDBRANCH   3   4
ENDBRANCH   2   3
ENDBRANCH   1   2
BRANCH   1  14
HETATM   14  C9  UNL     1      19.104   4.263  33.393  1.00  0.00     0.175 C
BRANCH  14  15
HETATM   15  C10 UNL     1      19.393   4.262  31.926  1.00  0.00     0.045 C
HETATM   16  C11 UNL     1      19.780   5.712  31.493  1.00  0.00     0.130 C
HETATM   17  C12 UNL     1      18.837   5.887  30.362  1.00  0.00     0.046 C
HETATM   18  C13 UNL     1      17.534   5.403  31.012  1.00  0.00     0.016 C
HETATM   19  C15 UNL     1      18.819   4.568  29.641  1.00  0.00     0.194 C
HETATM   20  C14 UNL     1      18.272   4.058  31.004  1.00  0.00     0.025 C
BRANCH  16  21
HETATM   21  O2  UNL     1      19.507   6.590  32.527  1.00  0.00    -0.395 OA
ATOM     22  H2  UNL     1      18.581   6.802  32.524  1.00  0.00     0.210 HD
ENDBRANCH  16  21
BRANCH  19  23
HETATM   23  N4  UNL     1      20.095   4.015  29.301  1.00  0.00    -0.074 N
ATOM     24  H43 UNL     1      20.362   4.315  28.364  1.00  0.00     0.274 HD
ATOM     25  H42 UNL     1      20.824   4.464  29.855  1.00  0.00     0.274 HD
ATOM     26  H41 UNL     1      20.181   3.001  29.377  1.00  0.00     0.274 HD
ENDBRANCH  19  23
ENDBRANCH  14  15
ENDBRANCH   1  14
TORSDOF 12
ENDMDL