MODEL 5
REMARK VINA RESULT: -6.764736451      3.013      5.833
REMARK  13 active torsions:
REMARK  status: ('A' for Active; 'I' for Inactive)
REMARK    1  A    between atoms: N1_1  and  C1_5
REMARK    2  A    between atoms: C1_5  and  C2_6
REMARK    3  A    between atoms: C2_6  and  C3_7
REMARK    4  A    between atoms: C3_7  and  N2_8
REMARK    5  A    between atoms: N2_8  and  C4_10
REMARK    6  A    between atoms: C7_15  and  N4_16
REMARK    7  A    between atoms: N4_16  and  C8_18
REMARK    8  A    between atoms: C8_18  and  C9_19
REMARK    9  A    between atoms: C9_19  and  C10_20
REMARK   10  A    between atoms: C10_20  and  C11_21
REMARK   11  A    between atoms: C11_21  and  N5_22
REMARK   12  A    between atoms: N5_22  and  C12_25
REMARK   13  A    between atoms: C12_25  and  C13_26
ROOT
HETATM    1  C4  UNL     1      22.375   4.571  30.634  1.00  0.00     0.118 A
HETATM    2  C5  UNL     1      23.113   3.420  30.706  1.00  0.00     0.066 A
HETATM    3  C6  UNL     1      24.410   3.458  31.242  1.00  0.00     0.110 A
HETATM    4  N3  UNL     1      24.882   4.637  31.668  1.00  0.00    -0.202 N
ATOM      5  H3  UNL     1      25.823   4.671  32.059  1.00  0.00     0.183 HD
HETATM    6  C7  UNL     1      24.175   5.777  31.607  1.00  0.00     0.679 A
HETATM    7  N6  UNL     1      22.928   5.721  31.087  1.00  0.00    -0.177 N
ATOM      8  H6  UNL     1      22.381   6.580  31.034  1.00  0.00     0.185 HD
ENDROOT
BRANCH   6   9
HETATM    9  N4  UNL     1      24.630   6.910  32.018  1.00  0.00    -0.226 N
ATOM     10  H4  UNL     1      24.467   7.752  31.466  1.00  0.00     0.177 HD
BRANCH   9  11
HETATM   11  C8  UNL     1      25.373   6.996  33.261  1.00  0.00     0.138 C
BRANCH  11  12
HETATM   12  C9  UNL     1      24.485   7.205  34.447  1.00  0.00     0.022 C
BRANCH  12  13
HETATM   13  C10 UNL     1      24.306   5.978  35.289  1.00  0.00     0.029 C
BRANCH  13  14
HETATM   14  C11 UNL     1      23.135   5.132  34.902  1.00  0.00     0.232 C
BRANCH  14  15
HETATM   15  N5  UNL     1      23.454   3.728  34.776  1.00  0.00    -0.075 N
ATOM     16  H52 UNL     1      24.173   3.557  34.072  1.00  0.00     0.277 HD
ATOM     17  H51 UNL     1      23.960   3.373  35.588  1.00  0.00     0.277 HD
BRANCH  15  18
HETATM   18  C12 UNL     1      22.247   2.987  34.517  1.00  0.00     0.237 C
BRANCH  18  19
HETATM   19  C13 UNL     1      21.113   3.813  34.015  1.00  0.00     0.011 A
HETATM   20  C14 UNL     1      19.776   3.808  34.644  1.00  0.00     0.007 A
HETATM   21  C15 UNL     1      19.979   3.130  33.299  1.00  0.00     0.007 A
ENDBRANCH  18  19
ENDBRANCH  15  18
ENDBRANCH  14  15
ENDBRANCH  13  14
ENDBRANCH  12  13
ENDBRANCH  11  12
ENDBRANCH   9  11
ENDBRANCH   6   9
BRANCH   1  22
HETATM   22  N2  UNL     1      21.194   4.623  30.162  1.00  0.00    -0.376 N
ATOM     23  H2  UNL     1      20.851   3.822  29.631  1.00  0.00     0.161 HD
BRANCH  22  24
HETATM   24  C3  UNL     1      20.318   5.748  30.338  1.00  0.00     0.123 C
BRANCH  24  25
HETATM   25  C2  UNL     1      18.884   5.214  30.344  1.00  0.00     0.047 C
BRANCH  25  26
HETATM   26  C1  UNL     1      18.127   5.696  31.552  1.00  0.00     0.231 C
BRANCH  26  27
HETATM   27  N1  UNL     1      18.934   6.491  32.436  1.00  0.00    -0.079 N
ATOM     28  H13 UNL     1      19.898   6.156  32.451  1.00  0.00     0.274 HD
ATOM     29  H12 UNL     1      19.088   7.423  32.051  1.00  0.00     0.274 HD
ATOM     30  H11 UNL     1      18.553   6.545  33.381  1.00  0.00     0.274 HD
ENDBRANCH  26  27
ENDBRANCH  25  26
ENDBRANCH  24  25
ENDBRANCH  22  24
ENDBRANCH   1  22
TORSDOF 13
ENDMDL