MODEL 2
REMARK VINA RESULT: -6.438558633      3.497      5.710
REMARK  13 active torsions:
REMARK  status: ('A' for Active; 'I' for Inactive)
REMARK    1  A    between atoms: C2_2  and  C3_3
REMARK    2  A    between atoms: C3_3  and  N1_4
REMARK    3  A    between atoms: N1_4  and  C4_6
REMARK    4  A    between atoms: C6_13  and  N4_14
REMARK    5  A    between atoms: N4_14  and  C7_16
REMARK    6  A    between atoms: C7_16  and  C8_17
REMARK    7  A    between atoms: C8_17  and  C9_18
REMARK    8  A    between atoms: C9_18  and  C10_19
REMARK    9  A    between atoms: C10_19  and  C11_20
REMARK   10  A    between atoms: C11_20  and  O2_21
REMARK   11  A    between atoms: O2_21  and  C12_22
REMARK   12  A    between atoms: C12_22  and  C13_23
REMARK   13  A    between atoms: C13_23  and  N5_24
ROOT
HETATM    1  C4  UNL     1      24.801   7.617  33.651  1.00  0.00     0.697 A
HETATM    2  N2  UNL     1      25.100   7.346  32.362  1.00  0.00    -0.140 N
ATOM      3  H2  UNL     1      25.482   8.083  31.769  1.00  0.00     0.189 HD
HETATM    4  C5  UNL     1      24.899   6.117  31.845  1.00  0.00     0.352 A
HETATM    5  O1  UNL     1      25.164   5.832  30.655  1.00  0.00    -0.246 OA
HETATM    6  N3  UNL     1      24.389   5.144  32.638  1.00  0.00    -0.140 N
ATOM      7  H3  UNL     1      24.236   4.214  32.250  1.00  0.00     0.189 HD
HETATM    8  C6  UNL     1      24.086   5.378  33.907  1.00  0.00     0.696 A
HETATM    9  N6  UNL     1      24.298   6.623  34.404  1.00  0.00    -0.022 N
ATOM     10  H6  UNL     1      24.067   6.812  35.380  1.00  0.00     0.203 HD
ENDROOT
BRANCH   8  11
HETATM   11  N4  UNL     1      23.601   4.512  34.723  1.00  0.00    -0.225 N
ATOM     12  H4  UNL     1      23.362   4.817  35.667  1.00  0.00     0.177 HD
BRANCH  11  13
HETATM   13  C7  UNL     1      23.374   3.125  34.370  1.00  0.00     0.138 C
BRANCH  13  14
HETATM   14  C8  UNL     1      21.886   2.867  34.422  1.00  0.00     0.020 C
BRANCH  14  15
HETATM   15  C9  UNL     1      21.066   4.114  34.482  1.00  0.00     0.004 C
BRANCH  15  16
HETATM   16  C10 UNL     1      19.885   4.037  33.545  1.00  0.00     0.026 C
BRANCH  16  17
HETATM   17  C11 UNL     1      19.916   5.180  32.543  1.00  0.00     0.167 C
BRANCH  17  18
HETATM   18  O2  UNL     1      21.193   5.487  32.106  1.00  0.00    -0.389 OA
BRANCH  18  19
HETATM   19  C12 UNL     1      21.316   5.436  30.723  1.00  0.00     0.194 C
BRANCH  19  20
HETATM   20  C13 UNL     1      21.693   3.993  30.352  1.00  0.00     0.255 C
BRANCH  20  21
HETATM   21  N5  UNL     1      20.838   3.638  29.225  1.00  0.00    -0.077 N
ATOM     22  H53 UNL     1      20.699   4.401  28.562  1.00  0.00     0.274 HD
ATOM     23  H52 UNL     1      21.274   2.986  28.572  1.00  0.00     0.274 HD
ATOM     24  H51 UNL     1      19.972   3.289  29.633  1.00  0.00     0.274 HD
ENDBRANCH  20  21
ENDBRANCH  19  20
ENDBRANCH  18  19
ENDBRANCH  17  18
ENDBRANCH  16  17
ENDBRANCH  15  16
ENDBRANCH  14  15
ENDBRANCH  13  14
ENDBRANCH  11  13
ENDBRANCH   8  11
BRANCH   1  25
HETATM   25  N1  UNL     1      25.013   8.813  34.102  1.00  0.00    -0.222 N
ATOM     26  H1  UNL     1      25.920   9.243  33.919  1.00  0.00     0.178 HD
BRANCH  25  27
HETATM   27  C3  UNL     1      24.049   9.565  34.840  1.00  0.00     0.164 C
BRANCH  27  28
HETATM   28  C2  UNL     1      24.161  10.996  34.413  1.00  0.00    -0.017 C
HETATM   29  C1  UNL     1      25.317  11.452  33.986  1.00  0.00     0.008 C
ENDBRANCH  27  28
ENDBRANCH  25  27
ENDBRANCH   1  25
TORSDOF 13
ENDMDL