MODEL 1
REMARK VINA RESULT: -6.971079256      0.000      0.000
REMARK  11 active torsions:
REMARK  status: ('A' for Active; 'I' for Inactive)
REMARK    1  A    between atoms: O1_2  and  C2_3
REMARK    2  A    between atoms: C2_3  and  C3_4
REMARK    3  A    between atoms: C4_8  and  C5_9
REMARK    4  A    between atoms: C5_9  and  C6_10
REMARK    5  A    between atoms: C6_10  and  C7_11
REMARK    6  A    between atoms: C7_11  and  C8_12
REMARK    7  A    between atoms: C8_12  and  C9_13
REMARK    8  A    between atoms: C9_13  and  C10_14
REMARK    9  A    between atoms: C10_14  and  C11_15
REMARK   10  A    between atoms: C11_15  and  N2_16
REMARK   11  A    between atoms: N3_20  and  O2_21
ROOT
HETATM    1  C3  UNL     1      21.765   4.439  31.936  1.00  0.00     0.352 C
HETATM    2  N1  UNL     1      22.924   4.725  31.045  1.00  0.00    -0.033 N
ATOM      3  H11 UNL     1      22.861   5.322  30.221  1.00  0.00     0.281 HD
ATOM      4  H12 UNL     1      23.339   4.029  30.426  1.00  0.00     0.281 HD
HETATM    5  C4  UNL     1      23.554   5.161  32.318  1.00  0.00     0.289 C
HETATM    6  N3  UNL     1      22.159   5.646  32.615  1.00  0.00    -0.133 NA
ENDROOT
BRANCH   5   7
HETATM    7  C5  UNL     1      24.547   6.256  32.187  1.00  0.00     0.051 C
BRANCH   7   8
HETATM    8  C6  UNL     1      25.482   6.385  33.343  1.00  0.00     0.003 C
BRANCH   8   9
HETATM    9  C7  UNL     1      24.942   7.280  34.436  1.00  0.00     0.000 C
BRANCH   9  10
HETATM   10  C8  UNL     1      25.038   8.735  34.085  1.00  0.00     0.000 C
BRANCH  10  11
HETATM   11  C9  UNL     1      24.009   9.580  34.757  1.00  0.00     0.002 C
BRANCH  11  12
HETATM   12  C10 UNL     1      24.097  10.988  34.238  1.00  0.00     0.027 C
BRANCH  12  13
HETATM   13  C11 UNL     1      25.498  11.541  34.271  1.00  0.00     0.229 C
BRANCH  13  14
HETATM   14  N2  UNL     1      25.890  12.108  32.993  1.00  0.00    -0.079 N
ATOM     15  H23 UNL     1      25.965  11.386  32.275  1.00  0.00     0.274 HD
ATOM     16  H22 UNL     1      25.136  12.661  32.586  1.00  0.00     0.274 HD
ATOM     17  H21 UNL     1      26.751  12.650  33.063  1.00  0.00     0.274 HD
ENDBRANCH  13  14
ENDBRANCH  12  13
ENDBRANCH  11  12
ENDBRANCH  10  11
ENDBRANCH   9  10
ENDBRANCH   8   9
ENDBRANCH   7   8
ENDBRANCH   5   7
BRANCH   6  18
HETATM   18  O2  UNL     1      21.892   5.726  33.914  1.00  0.00    -0.309 OA
ATOM     19  H2  UNL     1      22.142   6.527  34.359  1.00  0.00     0.237 HD
ENDBRANCH   6  18
BRANCH   1  20
HETATM   20  C2  UNL     1      20.453   4.311  31.301  1.00  0.00     0.269 C
HETATM   21  C12 UNL     1      19.905   5.732  31.131  1.00  0.00     0.074 C
HETATM   22  C13 UNL     1      19.358   5.858  29.938  1.00  0.00     0.032 C
HETATM   23  C14 UNL     1      19.509   4.543  29.255  1.00  0.00     0.236 C
HETATM   24  N4  UNL     1      20.725   4.044  29.867  1.00  0.00    -0.039 N
ATOM     25  H42 UNL     1      21.593   4.441  29.505  1.00  0.00     0.281 HD
ATOM     26  H41 UNL     1      20.967   3.080  29.638  1.00  0.00     0.281 HD
BRANCH  20  27
HETATM   27  O1  UNL     1      19.466   3.567  31.779  1.00  0.00    -0.357 OA
HETATM   28  C1  UNL     1      19.137   3.431  33.063  1.00  0.00     0.205 C
ENDBRANCH  20  27
ENDBRANCH   1  20
TORSDOF 11
ENDMDL