MODEL 5
REMARK VINA RESULT: -6.587796309      1.081      2.258
REMARK  12 active torsions:
REMARK  status: ('A' for Active; 'I' for Inactive)
REMARK    1  A    between atoms: C2_2  and  C3_3
REMARK    2  A    between atoms: C3_3  and  N1_4
REMARK    3  A    between atoms: N1_4  and  C4_7
REMARK    4  A    between atoms: C4_7  and  C5_8
REMARK    5  A    between atoms: C5_8  and  C6_9
REMARK    6  A    between atoms: C7_10  and  C8_11
REMARK    7  A    between atoms: C8_11  and  N2_12
REMARK    8  A    between atoms: C10_15  and  O1_16
REMARK    9  A    between atoms: C11_18  and  O2_19
REMARK   10  A    between atoms: C12_21  and  O3_22
REMARK   11  A    between atoms: N3_25  and  C14_26
REMARK   12  A    between atoms: C14_26  and  C15_27
ROOT
HETATM    1  N2  UNL     1      21.481   5.354  32.498  1.00  0.00    -0.354 N
ATOM      2  H2  UNL     1      20.935   5.042  33.302  1.00  0.00     0.166 HD
HETATM    3  C9  UNL     1      22.651   5.404  32.872  1.00  0.00     0.111 C
HETATM    4  C10 UNL     1      23.802   5.814  32.024  1.00  0.00     0.216 C
HETATM    5  C11 UNL     1      24.657   6.753  32.844  1.00  0.00     0.184 C
HETATM    6  C12 UNL     1      25.247   5.886  33.958  1.00  0.00     0.167 C
HETATM    7  C13 UNL     1      24.122   5.526  34.897  1.00  0.00     0.159 C
HETATM    8  N3  UNL     1      22.991   5.011  34.230  1.00  0.00    -0.363 N
ENDROOT
BRANCH   1   9
HETATM    9  C8  UNL     1      20.587   5.536  31.467  1.00  0.00     0.089 C
BRANCH   9  10
HETATM   10  C7  UNL     1      19.225   6.003  31.750  1.00  0.00     0.013 C
HETATM   11  C6  UNL     1      18.204   5.219  31.966  1.00  0.00    -0.024 C
BRANCH  11  12
HETATM   12  C5  UNL     1      18.162   3.743  31.978  1.00  0.00     0.054 C
BRANCH  12  13
HETATM   13  C4  UNL     1      17.204   3.173  30.987  1.00  0.00     0.236 C
BRANCH  13  14
HETATM   14  N1  UNL     1      17.751   3.300  29.651  1.00  0.00    -0.072 N
ATOM     15  H12 UNL     1      18.131   2.430  29.280  1.00  0.00     0.277 HD
ATOM     16  H11 UNL     1      18.617   3.837  29.613  1.00  0.00     0.277 HD
BRANCH  14  17
HETATM   17  C3  UNL     1      16.660   3.872  28.829  1.00  0.00     0.259 C
BRANCH  17  18
HETATM   18  C2  UNL     1      17.068   5.217  28.418  1.00  0.00    -0.010 C
HETATM   19  C1  UNL     1      18.291   5.560  28.196  1.00  0.00     0.008 C
ENDBRANCH  17  18
ENDBRANCH  14  17
ENDBRANCH  13  14
ENDBRANCH  12  13
ENDBRANCH  11  12
ENDBRANCH   9  10
ENDBRANCH   1   9
BRANCH   4  20
HETATM   20  O1  UNL     1      23.433   6.345  30.821  1.00  0.00    -0.385 OA
ATOM     21  H1  UNL     1      22.678   6.919  30.874  1.00  0.00     0.210 HD
ENDBRANCH   4  20
BRANCH   8  22
HETATM   22  C14 UNL     1      22.090   4.053  34.883  1.00  0.00     0.150 C
BRANCH  22  23
HETATM   23  C15 UNL     1      22.417   2.659  34.513  1.00  0.00    -0.017 C
HETATM   24  C16 UNL     1      23.156   1.877  35.266  1.00  0.00     0.008 C
ENDBRANCH  22  23
ENDBRANCH   8  22
BRANCH   5  25
HETATM   25  O2  UNL     1      25.674   7.355  32.109  1.00  0.00    -0.390 OA
ATOM     26  H2  UNL     1      26.418   7.615  32.640  1.00  0.00     0.210 HD
ENDBRANCH   5  25
BRANCH   6  27
HETATM   27  O3  UNL     1      26.274   6.510  34.625  1.00  0.00    -0.391 OA
ATOM     28  H3  UNL     1      26.561   6.023  35.388  1.00  0.00     0.210 HD
ENDBRANCH   6  27
TORSDOF 12
ENDMDL