MODEL 2
REMARK VINA RESULT: -7.119515843      1.615      4.587
REMARK  13 active torsions:
REMARK  status: ('A' for Active; 'I' for Inactive)
REMARK    1  A    between atoms: C2_2  and  C3_3
REMARK    2  A    between atoms: C3_3  and  N1_4
REMARK    3  A    between atoms: N1_4  and  C4_6
REMARK    4  A    between atoms: C5_9  and  N3_10
REMARK    5  A    between atoms: N3_10  and  C6_12
REMARK    6  A    between atoms: C6_12  and  C7_13
REMARK    7  A    between atoms: C9_17  and  N5_18
REMARK    8  A    between atoms: N5_18  and  C10_20
REMARK    9  A    between atoms: C10_20  and  C11_21
REMARK   10  A    between atoms: C11_21  and  C12_22
REMARK   11  A    between atoms: C12_22  and  N6_23
REMARK   12  A    between atoms: N6_23  and  C13_26
REMARK   13  A    between atoms: C13_26  and  C14_27
ROOT
HETATM    1  C4  UNL     1      21.439   4.777  32.774  1.00  0.00     0.707 A
HETATM    2  N2  UNL     1      21.258   4.245  31.571  1.00  0.00    -0.022 N
ATOM      3  H2  UNL     1      20.329   3.939  31.282  1.00  0.00     0.203 HD
HETATM    4  C5  UNL     1      22.304   4.110  30.737  1.00  0.00     0.707 A
HETATM    5  N4  UNL     1      23.526   4.513  31.117  1.00  0.00    -0.022 N
ATOM      6  H4  UNL     1      24.319   4.411  30.483  1.00  0.00     0.203 HD
HETATM    7  C9  UNL     1      23.705   5.060  32.357  1.00  0.00     0.707 A
HETATM    8  N8  UNL     1      22.644   5.182  33.168  1.00  0.00    -0.022 N
ATOM      9  H8  UNL     1      22.763   5.589  34.096  1.00  0.00     0.203 HD
ENDROOT
BRANCH   7  10
HETATM   10  N5  UNL     1      24.889   5.449  32.720  1.00  0.00    -0.225 N
ATOM     11  H5  UNL     1      25.623   4.770  32.920  1.00  0.00     0.177 HD
BRANCH  10  12
HETATM   12  C10 UNL     1      25.142   6.866  32.832  1.00  0.00     0.139 C
BRANCH  12  13
HETATM   13  C11 UNL     1      25.309   7.187  34.324  1.00  0.00     0.048 C
BRANCH  13  14
HETATM   14  C12 UNL     1      24.486   8.397  34.630  1.00  0.00     0.234 C
BRANCH  14  15
HETATM   15  N6  UNL     1      24.904   9.490  33.789  1.00  0.00    -0.071 N
ATOM     16  H62 UNL     1      25.916   9.491  33.658  1.00  0.00     0.277 HD
ATOM     17  H61 UNL     1      24.616   9.343  32.821  1.00  0.00     0.277 HD
BRANCH  15  18
HETATM   18  C13 UNL     1      24.441  10.753  34.283  1.00  0.00     0.276 C
BRANCH  18  19
HETATM   19  C14 UNL     1      25.552  11.724  34.115  1.00  0.00     0.080 C
HETATM   20  N7  UNL     1      25.930  12.086  32.959  1.00  0.00    -0.410 N
ATOM     21  H72 UNL     1      25.454  11.696  32.145  1.00  0.00     0.155 HD
ATOM     22  H71 UNL     1      26.693  12.752  32.844  1.00  0.00     0.155 HD
ENDBRANCH  18  19
ENDBRANCH  15  18
ENDBRANCH  14  15
ENDBRANCH  13  14
ENDBRANCH  12  13
ENDBRANCH  10  12
ENDBRANCH   7  10
BRANCH   4  23
HETATM   23  N3  UNL     1      22.063   3.593  29.601  1.00  0.00    -0.222 N
ATOM     24  H3  UNL     1      21.236   3.887  29.080  1.00  0.00     0.178 HD
BRANCH  23  25
HETATM   25  C6  UNL     1      22.935   2.602  29.040  1.00  0.00     0.164 C
BRANCH  25  26
HETATM   26  C7  UNL     1      22.513   2.366  27.635  1.00  0.00    -0.017 C
HETATM   27  C8  UNL     1      23.307   2.691  26.631  1.00  0.00     0.008 C
ENDBRANCH  25  26
ENDBRANCH  23  25
ENDBRANCH   4  23
BRANCH   1  28
HETATM   28  N1  UNL     1      20.459   4.919  33.599  1.00  0.00    -0.222 N
ATOM     29  H1  UNL     1      20.075   5.852  33.748  1.00  0.00     0.178 HD
BRANCH  28  30
HETATM   30  C3  UNL     1      19.881   3.806  34.322  1.00  0.00     0.164 C
BRANCH  30  31
HETATM   31  C2  UNL     1      18.645   3.387  33.631  1.00  0.00    -0.017 C
HETATM   32  C1  UNL     1      18.296   2.116  33.633  1.00  0.00     0.008 C
ENDBRANCH  30  31
ENDBRANCH  28  30
ENDBRANCH   1  28
TORSDOF 13
ENDMDL