MODEL 3
REMARK VINA RESULT: -7.149464703      2.129      7.048
REMARK  11 active torsions:
REMARK  status: ('A' for Active; 'I' for Inactive)
REMARK    1  A    between atoms: C2_2  and  C3_3
REMARK    2  A    between atoms: C3_3  and  C4_4
REMARK    3  A    between atoms: C6_6  and  C7_7
REMARK    4  A    between atoms: C7_7  and  C8_8
REMARK    5  A    between atoms: C8_8  and  C9_9
REMARK    6  A    between atoms: C9_9  and  C10_10
REMARK    7  A    between atoms: C10_10  and  N1_11
REMARK    8  A    between atoms: C11_17  and  N3_18
REMARK    9  A    between atoms: N3_18  and  C12_20
REMARK   10  A    between atoms: C12_20  and  C13_21
REMARK   11  A    between atoms: C13_21  and  N4_22
ROOT
HETATM    1  C4  UNL     1      23.191   3.960  34.023  1.00  0.00     0.032 A
HETATM    2  C5  UNL     1      23.969   4.996  34.501  1.00  0.00     0.051 A
HETATM    3  C6  UNL     1      24.254   6.105  33.747  1.00  0.00     0.028 A
HETATM    4  N2  UNL     1      23.745   6.154  32.504  1.00  0.00    -0.196 N
ATOM      5  H2  UNL     1      23.945   6.971  31.926  1.00  0.00     0.184 HD
HETATM    6  C11 UNL     1      22.977   5.165  31.985  1.00  0.00     0.678 A
HETATM    7  N7  UNL     1      22.717   4.079  32.770  1.00  0.00    -0.195 N
ATOM      8  H7  UNL     1      22.139   3.328  32.390  1.00  0.00     0.184 HD
ENDROOT
BRANCH   6   9
HETATM    9  N3  UNL     1      22.498   5.234  30.788  1.00  0.00    -0.224 N
ATOM     10  H3  UNL     1      23.042   5.647  30.031  1.00  0.00     0.177 HD
BRANCH   9  11
HETATM   11  C12 UNL     1      21.186   4.718  30.548  1.00  0.00     0.157 C
BRANCH  11  12
HETATM   12  C13 UNL     1      21.160   3.583  29.561  1.00  0.00     0.142 C
BRANCH  12  13
HETATM   13  N4  UNL     1      22.405   3.390  28.882  1.00  0.00    -0.365 N
HETATM   14  C14 UNL     1      22.526   2.333  28.136  1.00  0.00     0.197 C
HETATM   15  N5  UNL     1      21.498   1.380  27.968  1.00  0.00    -0.067 NA
HETATM   16  N6  UNL     1      23.770   2.158  27.471  1.00  0.00    -0.067 NA
ATOM     17  H4  UNL     1      23.169   4.058  28.980  1.00  0.00     0.161 HD
ENDBRANCH  12  13
ENDBRANCH  11  12
ENDBRANCH   9  11
ENDBRANCH   6   9
BRANCH   3  18
HETATM   18  C7  UNL     1      25.094   7.208  34.282  1.00  0.00     0.057 C
BRANCH  18  19
HETATM   19  C8  UNL     1      24.287   8.295  34.907  1.00  0.00     0.008 C
BRANCH  19  20
HETATM   20  C9  UNL     1      24.727   9.613  34.330  1.00  0.00     0.027 C
BRANCH  20  21
HETATM   21  C10 UNL     1      23.674  10.687  34.497  1.00  0.00     0.229 C
BRANCH  21  22
HETATM   22  N1  UNL     1      23.430  10.888  35.908  1.00  0.00    -0.079 N
ATOM     23  H13 UNL     1      24.283  10.820  36.463  1.00  0.00     0.274 HD
ATOM     24  H12 UNL     1      23.194  11.856  36.127  1.00  0.00     0.274 HD
ATOM     25  H11 UNL     1      22.712  10.233  36.216  1.00  0.00     0.274 HD
ENDBRANCH  21  22
ENDBRANCH  20  21
ENDBRANCH  19  20
ENDBRANCH  18  19
ENDBRANCH   3  18
BRANCH   1  26
HETATM   26  C3  UNL     1      22.890   2.756  34.863  1.00  0.00     0.084 C
BRANCH  26  27
HETATM   27  C2  UNL     1      24.000   1.784  34.863  1.00  0.00    -0.031 C
HETATM   28  C1  UNL     1      24.022   0.781  35.728  1.00  0.00     0.007 C
ENDBRANCH  26  27
ENDBRANCH   1  26
TORSDOF 11
ENDMDL