MODEL 5
REMARK VINA RESULT: -7.023788385      2.169      2.716
REMARK  11 active torsions:
REMARK  status: ('A' for Active; 'I' for Inactive)
REMARK    1  A    between atoms: C2_2  and  C3_3
REMARK    2  A    between atoms: C3_3  and  C4_4
REMARK    3  A    between atoms: C4_4  and  N1_5
REMARK    4  A    between atoms: N1_5  and  C5_8
REMARK    5  A    between atoms: C5_8  and  C6_9
REMARK    6  A    between atoms: C6_9  and  N2_10
REMARK    7  A    between atoms: N2_10  and  C7_12
REMARK    8  A    between atoms: N4_16  and  C9_18
REMARK    9  A    between atoms: C9_18  and  C10_19
REMARK   10  A    between atoms: N6_24  and  C13_26
REMARK   11  A    between atoms: C13_26  and  C14_27
ROOT
HETATM    1  C7  UNL     1      22.373   5.572  31.320  1.00  0.00     0.707 A
HETATM    2  N3  UNL     1      21.422   5.645  30.379  1.00  0.00    -0.021 N
ATOM      3  H3  UNL     1      21.676   5.973  29.447  1.00  0.00     0.203 HD
HETATM    4  C8  UNL     1      20.142   5.301  30.623  1.00  0.00     0.711 A
HETATM    5  N4  UNL     1      19.185   5.308  29.836  1.00  0.00    -0.201 N
ATOM      6  H4  UNL     1      18.349   4.995  30.329  1.00  0.00     0.183 HD
HETATM    7  N5  UNL     1      19.872   4.871  31.902  1.00  0.00    -0.021 N
ATOM      8  H5  UNL     1      18.912   4.604  32.120  1.00  0.00     0.203 HD
HETATM    9  C12 UNL     1      20.771   4.780  32.869  1.00  0.00     0.707 A
HETATM   10  N6  UNL     1      20.553   4.392  34.069  1.00  0.00    -0.222 N
ATOM     11  H6  UNL     1      21.339   4.365  34.720  1.00  0.00     0.178 HD
HETATM   12  N7  UNL     1      22.060   5.145  32.554  1.00  0.00    -0.022 N
ATOM     13  H7  UNL     1      22.788   5.091  33.268  1.00  0.00     0.203 HD
ENDROOT
BRANCH   1  14
HETATM   14  N2  UNL     1      23.577   5.869  31.096  1.00  0.00    -0.223 N
ATOM     15  H2  UNL     1      23.775   6.474  30.299  1.00  0.00     0.177 HD
BRANCH  14  16
HETATM   16  C6  UNL     1      24.684   5.416  31.877  1.00  0.00     0.165 C
BRANCH  16  17
HETATM   17  C5  UNL     1      25.183   6.677  32.613  1.00  0.00     0.252 C
BRANCH  17  18
HETATM   18  N1  UNL     1      25.373   6.320  33.992  1.00  0.00    -0.073 N
ATOM     19  H12 UNL     1      26.358   6.201  34.229  1.00  0.00     0.277 HD
ATOM     20  H11 UNL     1      25.060   5.370  34.191  1.00  0.00     0.277 HD
BRANCH  18  21
HETATM   21  C4  UNL     1      24.725   7.294  34.835  1.00  0.00     0.236 C
BRANCH  21  22
HETATM   22  C3  UNL     1      24.878   8.641  34.114  1.00  0.00     0.054 C
BRANCH  22  23
HETATM   23  C2  UNL     1      23.993   9.592  34.865  1.00  0.00    -0.035 C
HETATM   24  C1  UNL     1      23.957  10.851  34.466  1.00  0.00     0.007 C
ENDBRANCH  22  23
ENDBRANCH  21  22
ENDBRANCH  18  21
ENDBRANCH  17  18
ENDBRANCH  16  17
ENDBRANCH  14  16
ENDBRANCH   1  14
BRANCH   5  25
HETATM   25  C9  UNL     1      18.854   5.589  28.526  1.00  0.00     0.105 C
BRANCH  25  26
HETATM   26  C10 UNL     1      17.431   5.474  28.128  1.00  0.00     0.007 C
HETATM   27  C11 UNL     1      16.996   6.138  27.085  1.00  0.00     0.012 C
ENDBRANCH  25  26
ENDBRANCH   5  25
BRANCH  10  28
HETATM   28  C13 UNL     1      19.266   3.995  34.544  1.00  0.00     0.164 C
BRANCH  28  29
HETATM   29  C14 UNL     1      19.088   2.543  34.268  1.00  0.00    -0.017 C
HETATM   30  C15 UNL     1      18.125   2.191  33.420  1.00  0.00     0.008 C
ENDBRANCH  28  29
ENDBRANCH  10  28
TORSDOF 11
ENDMDL