MODEL 5
REMARK VINA RESULT: -7.982580814      2.544      3.408
REMARK  7 active torsions:
REMARK  status: ('A' for Active; 'I' for Inactive)
REMARK    1  A    between atoms: C2_2  and  C4_4
REMARK    2  A    between atoms: C4_4  and  C5_5
REMARK    3  A    between atoms: C5_5  and  C6_6
REMARK    4  A    between atoms: C13_14  and  C14_15
REMARK    5  A    between atoms: C15_16  and  C16_17
REMARK    6  A    between atoms: C16_17  and  C19_20
REMARK    7  A    between atoms: C21_25  and  O4_26
ROOT
HETATM    1  C6  UNL     1       6.856  33.212  24.831  1.00  0.00     0.029 C
HETATM    2  C7  UNL     1       7.353  33.141  26.240  1.00  0.00     0.025 C
HETATM    3  C8  UNL     1       6.688  34.647  24.479  1.00  0.00     0.158 C
HETATM    4  O1  UNL     1       7.668  35.443  24.308  1.00  0.00    -0.292 OA
HETATM    5  C9  UNL     1       5.340  35.205  24.317  1.00  0.00     0.048 C
HETATM    6  C10 UNL     1       4.232  34.586  24.632  1.00  0.00    -0.012 C
HETATM    7  C11 UNL     1       4.341  33.219  25.198  1.00  0.00    -0.008 C
HETATM    8  C12 UNL     1       4.449  33.457  26.687  1.00  0.00     0.021 C
HETATM    9  C13 UNL     1       3.061  32.451  24.950  1.00  0.00     0.057 C
HETATM   10  C20 UNL     1       3.237  31.097  24.332  1.00  0.00     0.207 C
HETATM   11  F1  UNL     1       2.081  30.349  24.641  1.00  0.00    -0.246 F
HETATM   12  C21 UNL     1       4.348  30.404  25.045  1.00  0.00     0.153 C
HETATM   13  C22 UNL     1       5.637  31.104  24.791  1.00  0.00     0.046 C
HETATM   14  C23 UNL     1       5.517  32.587  24.551  1.00  0.00    -0.016 C
HETATM   15  C24 UNL     1       5.316  32.742  23.049  1.00  0.00     0.018 C
ENDROOT
BRANCH   9  16
HETATM   16  C14 UNL     1       1.994  33.249  24.288  1.00  0.00    -0.021 C
HETATM   17  C15 UNL     1       0.732  33.261  24.709  1.00  0.00    -0.011 C
BRANCH  17  18
HETATM   18  C16 UNL     1      -0.357  34.042  24.079  1.00  0.00     0.059 C
HETATM   19  C17 UNL     1      -0.477  33.811  22.602  1.00  0.00     0.031 C
HETATM   20  C18 UNL     1      -0.126  35.539  24.322  1.00  0.00     0.031 C
BRANCH  18  21
HETATM   21  C19 UNL     1      -1.637  33.719  24.782  1.00  0.00     0.185 C
HETATM   22  O2  UNL     1      -2.750  34.094  24.332  1.00  0.00    -0.647 OA
HETATM   23  O3  UNL     1      -1.633  32.988  25.961  1.00  0.00    -0.647 OA
ENDBRANCH  18  21
ENDBRANCH  17  18
ENDBRANCH   9  16
BRANCH  12  24
HETATM   24  O4  UNL     1       4.408  29.088  24.544  1.00  0.00    -0.393 OA
ATOM     25  H4  UNL     1       4.859  28.561  25.192  1.00  0.00     0.210 HD
ENDBRANCH  12  24
BRANCH   1  26
HETATM   26  C5  UNL     1       7.839  32.468  23.975  1.00  0.00     0.018 C
BRANCH  26  27
HETATM   27  C4  UNL     1       9.240  32.908  23.951  1.00  0.00     0.005 C
BRANCH  27  28
HETATM   28  C2  UNL     1       9.986  31.943  22.991  1.00  0.00    -0.023 C
HETATM   29  C1  UNL     1       9.146  30.671  22.883  1.00  0.00     0.009 C
HETATM   30  C3  UNL     1      11.313  31.561  23.558  1.00  0.00     0.009 C
ENDBRANCH  27  28
ENDBRANCH  26  27
ENDBRANCH   1  26
TORSDOF 7
ENDMDL