MODEL 3
REMARK VINA RESULT: -8.444598237      2.563      4.796
REMARK  5 active torsions:
REMARK  status: ('A' for Active; 'I' for Inactive)
REMARK    1  A    between atoms: O1_2  and  C2_3
REMARK    2  A    between atoms: C7_9  and  C8_10
REMARK    3  A    between atoms: C8_10  and  N1_11
REMARK    4  A    between atoms: C8_10  and  C17_26
REMARK       I    between atoms: N1_11  and  C9_13
REMARK       I    between atoms: C9_13  and  N4_18
REMARK    5  A    between atoms: N4_18  and  C11_20
ROOT
HETATM    1  N1  UNL     1       1.141  34.109  24.085  1.00  0.00    -0.217 N
ATOM      2  H1  UNL     1       1.878  34.786  24.278  1.00  0.00     0.178 HD
HETATM    3  C9  UNL     1       0.062  34.568  23.320  1.00  0.00     0.683 C
HETATM    4  N2  UNL     1      -0.498  33.883  22.372  1.00  0.00    -0.126 N
ATOM      5  H2  UNL     1      -0.135  32.952  22.167  1.00  0.00     0.197 HD
HETATM    6  C10 UNL     1      -1.576  34.358  21.619  1.00  0.00     0.196 C
HETATM    7  N3  UNL     1      -2.475  34.733  20.993  1.00  0.00    -0.171 NA
HETATM    8  N4  UNL     1      -0.475  35.865  23.553  1.00  0.00    -0.221 N
ATOM      9  H4  UNL     1      -1.149  35.975  24.310  1.00  0.00     0.178 HD
ENDROOT
BRANCH   1  10
HETATM   10  C8  UNL     1       1.328  32.774  24.638  1.00  0.00     0.139 C
BRANCH  10  11
HETATM   11  C7  UNL     1       2.724  32.493  24.920  1.00  0.00     0.000 A
HETATM   12  C2  UNL     1       3.534  33.484  25.455  1.00  0.00     0.076 A
HETATM   13  C3  UNL     1       4.875  33.258  25.724  1.00  0.00     0.039 A
HETATM   14  C4  UNL     1       5.435  32.025  25.459  1.00  0.00     0.026 A
HETATM   15  C5  UNL     1       4.660  31.037  24.931  1.00  0.00     0.034 A
HETATM   16 CL1  UNL     1       5.357  29.464  24.588  1.00  0.00    -0.084 Cl
HETATM   17  C6  UNL     1       3.310  31.294  24.671  1.00  0.00     0.035 A
BRANCH  12  18
HETATM   18  O1  UNL     1       2.979  34.718  25.720  1.00  0.00    -0.355 OA
HETATM   19  C1  UNL     1       3.818  35.853  25.742  1.00  0.00     0.210 C
ENDBRANCH  12  18
ENDBRANCH  10  11
BRANCH  10  20
HETATM   20  C17 UNL     1       0.369  32.484  25.735  1.00  0.00     0.013 C
HETATM   21  C18 UNL     1      -0.944  31.881  25.312  1.00  0.00     0.007 C
HETATM   22  C19 UNL     1      -1.951  32.124  26.408  1.00  0.00     0.000 C
HETATM   23  C20 UNL     1      -1.318  32.450  27.708  1.00  0.00     0.000 C
HETATM   24  C21 UNL     1      -0.077  31.659  28.039  1.00  0.00     0.000 C
HETATM   25  C22 UNL     1       0.912  31.689  26.878  1.00  0.00     0.007 C
ENDBRANCH  10  20
ENDBRANCH   1  10
BRANCH   8  26
HETATM   26  C11 UNL     1      -0.127  37.021  22.792  1.00  0.00     0.099 C
HETATM   27  C12 UNL     1       1.304  36.988  22.265  1.00  0.00     0.026 C
HETATM   28  C13 UNL     1       1.817  38.378  21.993  1.00  0.00     0.002 C
HETATM   29  C14 UNL     1       0.708  39.320  21.581  1.00  0.00     0.000 C
HETATM   30  C15 UNL     1      -0.293  39.452  22.683  1.00  0.00     0.002 C
HETATM   31  C16 UNL     1      -0.236  38.273  23.631  1.00  0.00     0.026 C
ENDBRANCH   8  26
TORSDOF 5
ENDMDL