MODEL 1
REMARK VINA RESULT: -8.808142644      0.000      0.000
REMARK  6 active torsions:
REMARK  status: ('A' for Active; 'I' for Inactive)
REMARK    1  A    between atoms: C3_4  and  C4_5
REMARK       I    between atoms: C4_5  and  N1_7
REMARK    2  A    between atoms: N1_7  and  C5_9
REMARK    3  A    between atoms: C5_9  and  C7_11
REMARK    4  A    between atoms: C13_18  and  C14_19
REMARK    5  A    between atoms: C17_22  and  C18_23
REMARK    6  A    between atoms: C18_23  and  C19_24
ROOT
HETATM    1  C1  UNL     1       4.554  29.269  24.658  1.00  0.00     0.057 C
HETATM    2  C2  UNL     1       4.051  30.683  24.564  1.00  0.00    -0.014 A
HETATM    3  S1  UNL     1       2.442  31.203  24.758  1.00  0.00    -0.089 SA
HETATM    4  C3  UNL     1       2.663  32.870  24.540  1.00  0.00     0.073 A
HETATM    5  C12 UNL     1       4.018  32.980  24.315  1.00  0.00     0.033 A
HETATM    6  C13 UNL     1       4.741  31.852  24.325  1.00  0.00    -0.040 A
ENDROOT
BRANCH   4   7
HETATM    7  C4  UNL     1       1.681  33.988  24.531  1.00  0.00     0.262 C
HETATM    8  O1  UNL     1       0.573  33.759  25.031  1.00  0.00    -0.267 OA
HETATM    9  N1  UNL     1       1.998  35.239  23.981  1.00  0.00    -0.329 N
ATOM     10  H1  UNL     1       2.941  35.318  23.601  1.00  0.00     0.168 HD
BRANCH   9  11
HETATM   11  C5  UNL     1       1.219  36.394  23.877  1.00  0.00    -0.004 C
HETATM   12  C6  UNL     1       1.122  37.194  25.179  1.00  0.00     0.064 C
BRANCH  11  13
HETATM   13  C7  UNL     1       0.469  36.904  22.737  1.00  0.00     0.011 C
HETATM   14  C8  UNL     1      -0.484  35.906  22.087  1.00  0.00     0.023 C
HETATM   15  C9  UNL     1      -0.418  38.104  23.163  1.00  0.00     0.018 C
HETATM   16  C10 UNL     1      -0.105  38.788  21.850  1.00  0.00     0.022 C
HETATM   17  C11 UNL     1       1.066  37.798  21.726  1.00  0.00     0.096 C
HETATM   18 CL1  UNL     1       1.042  37.165  20.036  1.00  0.00    -0.124 Cl
ENDBRANCH  11  13
ENDBRANCH   9  11
ENDBRANCH   4   7
BRANCH   6  19
HETATM   19  C14 UNL     1       6.232  31.760  24.066  1.00  0.00     0.019 C
HETATM   20  C15 UNL     1       7.048  32.703  24.882  1.00  0.00     0.010 C
HETATM   21  C16 UNL     1       8.344  33.066  24.116  1.00  0.00     0.006 C
HETATM   22  C17 UNL     1       8.829  31.800  23.473  1.00  0.00    -0.005 C
HETATM   23  C20 UNL     1       7.899  31.495  22.316  1.00  0.00     0.006 C
HETATM   24  C21 UNL     1       6.509  32.070  22.595  1.00  0.00     0.010 C
BRANCH  22  25
HETATM   25  C18 UNL     1      10.273  31.802  23.108  1.00  0.00     0.117 C
BRANCH  25  26
HETATM   26  C19 UNL     1      10.730  30.635  22.332  1.00  0.00     0.172 C
HETATM   27  O2  UNL     1      11.492  30.837  21.337  1.00  0.00    -0.648 OA
HETATM   28  O3  UNL     1      10.368  29.328  22.636  1.00  0.00    -0.648 OA
ENDBRANCH  25  26
ENDBRANCH  22  25
ENDBRANCH   6  19
TORSDOF 6
ENDMDL