MODEL 3
REMARK VINA RESULT: -8.830937016      3.909      6.236
REMARK  6 active torsions:
REMARK  status: ('A' for Active; 'I' for Inactive)
REMARK    1  A    between atoms: C4_4  and  C5_5
REMARK    2  A    between atoms: C5_5  and  C6_6
REMARK    3  A    between atoms: C11_15  and  C22_28
REMARK    4  A    between atoms: C18_22  and  C19_23
REMARK    5  A    between atoms: C19_23  and  C20_24
REMARK    6  A    between atoms: C20_24  and  O1_25
ROOT
HETATM    1  C1  UNL     1       4.567  30.422  24.777  1.00  0.00     0.015 C
HETATM    2  C2  UNL     1       5.210  31.433  23.939  1.00  0.00    -0.039 C
HETATM    3  C3  UNL     1       4.750  30.944  22.524  1.00  0.00     0.015 C
HETATM    4  C4  UNL     1       6.693  31.454  23.850  1.00  0.00     0.000 C
HETATM    5  C10 UNL     1       7.049  32.943  23.680  1.00  0.00     0.016 C
HETATM    6  C11 UNL     1       6.049  33.629  24.571  1.00  0.00    -0.030 C
HETATM    7  C12 UNL     1       6.286  33.144  25.950  1.00  0.00     0.011 C
HETATM    8  C13 UNL     1       5.182  33.787  26.606  1.00  0.00     0.012 C
HETATM    9  C14 UNL     1       4.375  34.920  25.977  1.00  0.00    -0.015 C
HETATM   10  C15 UNL     1       3.171  34.221  25.701  1.00  0.00     0.012 C
HETATM   11  C16 UNL     1       3.573  32.972  24.879  1.00  0.00     0.007 C
HETATM   12  C17 UNL     1       4.779  32.888  24.133  1.00  0.00     0.003 C
HETATM   13  C18 UNL     1       4.964  36.009  26.672  1.00  0.00    -0.002 C
HETATM   14  C21 UNL     1       6.293  35.844  25.927  1.00  0.00     0.012 C
HETATM   15  C22 UNL     1       6.008  35.076  24.596  1.00  0.00     0.019 C
HETATM   16  C23 UNL     1       4.613  35.472  24.611  1.00  0.00     0.046 C
HETATM   17  C24 UNL     1       4.760  36.911  24.329  1.00  0.00     0.034 C
HETATM   18 CL1  UNL     1       3.404  35.215  23.378  1.00  0.00    -0.118 Cl
ENDROOT
BRANCH   4  19
HETATM   19  C5  UNL     1       7.271  30.746  22.648  1.00  0.00     0.064 C
BRANCH  19  20
HETATM   20  C6  UNL     1       8.763  30.780  22.656  1.00  0.00     0.025 A
HETATM   21  C7  UNL     1       9.543  30.213  23.628  1.00  0.00     0.112 A
HETATM   22  N1  UNL     1      10.903  30.294  23.550  1.00  0.00    -0.372 N
HETATM   23  C8  UNL     1      11.527  30.917  22.540  1.00  0.00     0.104 A
ATOM     24  H1  UNL     1      11.465  29.864  24.286  1.00  0.00     0.164 HD
HETATM   25  C9  UNL     1      10.759  31.486  21.566  1.00  0.00     0.105 A
HETATM   26  N2  UNL     1       9.425  31.409  21.638  1.00  0.00    -0.367 N
ATOM     27  H2  UNL     1       8.874  31.842  20.897  1.00  0.00     0.165 HD
ENDBRANCH  19  20
ENDBRANCH   4  19
BRANCH  13  28
HETATM   28  C19 UNL     1       4.372  37.225  27.085  1.00  0.00     0.031 C
BRANCH  28  29
HETATM   29  C20 UNL     1       4.428  37.355  28.627  1.00  0.00     0.164 C
BRANCH  29  30
HETATM   30  O1  UNL     1       4.883  36.187  29.196  1.00  0.00    -0.401 OA
ATOM     31  H1  UNL     1       5.732  36.321  29.600  1.00  0.00     0.209 HD
ENDBRANCH  29  30
ENDBRANCH  28  29
ENDBRANCH  13  28
TORSDOF 6
ENDMDL