MODEL 4
REMARK VINA RESULT: -8.658877959      2.707      4.649
REMARK  5 active torsions:
REMARK  status: ('A' for Active; 'I' for Inactive)
REMARK    1  A    between atoms: C2_2  and  C4_4
REMARK    2  A    between atoms: C2_2  and  C5_7
REMARK    3  A    between atoms: C4_4  and  O1_5
REMARK       I    between atoms: N3_13  and  C7_15
REMARK    4  A    between atoms: C7_15  and  C8_17
REMARK    5  A    between atoms: C17_27  and  C18_28
ROOT
HETATM    1  C5  UNL     1       2.805  33.001  25.342  1.00  0.00     0.043 A
HETATM    2  N1  UNL     1       1.925  34.024  25.223  1.00  0.00    -0.302 N
ATOM      3  H1  UNL     1       0.934  33.809  25.112  1.00  0.00     0.186 HD
HETATM    4  N2  UNL     1       2.296  35.273  25.243  1.00  0.00    -0.284 N
ATOM      5  H2  UNL     1       1.594  36.006  25.141  1.00  0.00     0.188 HD
HETATM    6  C6  UNL     1       3.569  35.607  25.393  1.00  0.00     0.133 A
HETATM    7  N3  UNL     1       3.947  36.787  25.403  1.00  0.00    -0.311 N
ATOM      8  H3  UNL     1       4.956  36.875  25.527  1.00  0.00     0.170 HD
HETATM    9  C7  UNL     1       3.326  37.991  25.287  1.00  0.00     0.227 C
HETATM   10  O2  UNL     1       2.316  38.291  24.570  1.00  0.00    -0.273 OA
HETATM   11  C11 UNL     1       4.640  34.607  25.545  1.00  0.00     0.023 A
HETATM   12  C12 UNL     1       5.925  35.136  25.868  1.00  0.00    -0.032 C
HETATM   13  C13 UNL     1       6.732  34.713  27.059  1.00  0.00     0.038 C
HETATM   14  C14 UNL     1       8.131  35.203  26.743  1.00  0.00     0.007 C
HETATM   15  C15 UNL     1       7.893  36.375  25.767  1.00  0.00     0.042 C
HETATM   16  C16 UNL     1       6.885  35.649  24.840  1.00  0.00     0.200 C
HETATM   17  F1  UNL     1       6.463  36.576  23.957  1.00  0.00    -0.245 F
HETATM   18  C17 UNL     1       4.204  33.335  25.494  1.00  0.00    -0.015 A
ENDROOT
BRANCH   9  19
HETATM   19  C8  UNL     1       3.871  39.144  26.085  1.00  0.00     0.078 A
HETATM   20  C9  UNL     1       4.388  38.803  27.452  1.00  0.00     0.015 A
HETATM   21  C10 UNL     1       5.318  39.176  26.300  1.00  0.00     0.015 A
ENDBRANCH   9  19
BRANCH  18  22
HETATM   22  C18 UNL     1       5.018  32.210  25.250  1.00  0.00     0.021 C
HETATM   23  C19 UNL     1       5.398  32.453  23.695  1.00  0.00     0.009 C
HETATM   24  C20 UNL     1       5.659  31.109  23.051  1.00  0.00     0.001 C
HETATM   25  C21 UNL     1       7.057  30.750  23.502  1.00  0.00     0.000 C
HETATM   26  C22 UNL     1       6.859  30.538  24.982  1.00  0.00     0.001 C
HETATM   27  C23 UNL     1       6.389  31.868  25.643  1.00  0.00     0.009 C
ENDBRANCH  18  22
BRANCH   1  28
HETATM   28  C2  UNL     1       2.231  31.723  25.394  1.00  0.00     0.018 C
HETATM   29  C1  UNL     1       1.531  31.527  26.730  1.00  0.00     0.024 C
HETATM   30  C3  UNL     1       2.751  30.444  25.012  1.00  0.00     0.024 C
BRANCH  28  31
HETATM   31  C4  UNL     1       0.868  31.807  24.515  1.00  0.00     0.179 C
BRANCH  31  32
HETATM   32  O1  UNL     1      -0.149  31.954  25.417  1.00  0.00    -0.400 OA
ATOM     33  H1  UNL     1      -0.909  31.548  25.018  1.00  0.00     0.209 HD
ENDBRANCH  31  32
ENDBRANCH  28  31
ENDBRANCH   1  28
TORSDOF 5
ENDMDL