MODEL 5
REMARK VINA RESULT: -7.899151434      1.494      1.825
REMARK  8 active torsions:
REMARK  status: ('A' for Active; 'I' for Inactive)
REMARK    1  A    between atoms: C2_2  and  C4_4
REMARK    2  A    between atoms: C9_9  and  C10_10
REMARK    3  A    between atoms: C13_13  and  O1_14
REMARK    4  A    between atoms: C15_17  and  C16_18
REMARK    5  A    between atoms: C16_18  and  C17_19
REMARK    6  A    between atoms: C16_18  and  O3_23
REMARK    7  A    between atoms: C17_19  and  C18_20
REMARK    8  A    between atoms: C18_20  and  O2_21
ROOT
HETATM    1  C10 UNL     1       2.189  32.511  24.974  1.00  0.00     0.004 C
HETATM    2  C11 UNL     1       3.311  31.962  24.684  1.00  0.00    -0.069 C
HETATM    3  C12 UNL     1       3.205  30.532  24.180  1.00  0.00     0.066 C
HETATM    4  C13 UNL     1       4.201  30.272  23.084  1.00  0.00     0.122 C
HETATM    5  C14 UNL     1       5.551  30.826  23.406  1.00  0.00     0.040 C
HETATM    6  C15 UNL     1       5.584  31.300  24.873  1.00  0.00     0.031 C
HETATM    7  C19 UNL     1       4.649  32.552  24.775  1.00  0.00    -0.018 C
HETATM    8  C20 UNL     1       4.897  33.576  25.807  1.00  0.00     0.020 C
HETATM    9  C21 UNL     1       4.955  33.304  23.441  1.00  0.00     0.020 C
ENDROOT
BRANCH   1  10
HETATM   10  C9  UNL     1       1.760  33.790  25.463  1.00  0.00     0.003 C
HETATM   11  C8  UNL     1       1.379  34.795  24.655  1.00  0.00    -0.075 C
HETATM   12  C7  UNL     1       1.331  34.785  23.204  1.00  0.00     0.019 C
HETATM   13  C22 UNL     1       0.915  36.117  25.114  1.00  0.00     0.035 C
HETATM   14  C6  UNL     1      -0.077  34.743  22.649  1.00  0.00     0.010 C
HETATM   15  C24 UNL     1       1.808  36.214  22.872  1.00  0.00     0.002 C
HETATM   16  C5  UNL     1      -0.296  36.019  21.876  1.00  0.00     0.010 C
HETATM   17  C4  UNL     1       1.106  36.443  21.559  1.00  0.00     0.018 C
HETATM   18  C23 UNL     1       1.309  37.043  24.001  1.00  0.00     0.010 C
BRANCH  17  19
HETATM   19  C2  UNL     1       1.221  37.825  21.062  1.00  0.00    -0.089 C
HETATM   20  C1  UNL     1       2.362  38.327  20.644  1.00  0.00     0.014 C
HETATM   21  C3  UNL     1      -0.014  38.656  21.043  1.00  0.00     0.043 C
ENDBRANCH  17  19
ENDBRANCH   1  10
BRANCH   4  22
HETATM   22  O1  UNL     1       4.256  28.888  22.902  1.00  0.00    -0.395 OA
ATOM     23  H1  UNL     1       4.079  28.721  21.983  1.00  0.00     0.210 HD
ENDBRANCH   4  22
BRANCH   6  24
HETATM   24  C16 UNL     1       7.004  31.674  25.204  1.00  0.00     0.152 C
BRANCH  24  25
HETATM   25  C17 UNL     1       7.738  32.321  24.091  1.00  0.00     0.060 C
BRANCH  25  26
HETATM   26  C18 UNL     1       8.509  33.553  24.338  1.00  0.00     0.166 C
BRANCH  26  27
HETATM   27  O2  UNL     1       9.886  33.445  24.217  1.00  0.00    -0.401 OA
ATOM     28  H2  UNL     1      10.371  34.262  24.212  1.00  0.00     0.209 HD
ENDBRANCH  26  27
ENDBRANCH  25  26
ENDBRANCH  24  25
BRANCH  24  29
HETATM   29  O3  UNL     1       7.762  30.473  25.411  1.00  0.00    -0.278 OA
HETATM   30 CL1  UNL     1       8.795  30.079  24.158  1.00  0.00     0.062 Cl
ENDBRANCH  24  29
ENDBRANCH   6  24
TORSDOF 8
ENDMDL