MODEL 3
REMARK VINA RESULT: -7.763172005      3.489      7.705
REMARK  8 active torsions:
REMARK  status: ('A' for Active; 'I' for Inactive)
REMARK    1  A    between atoms: C3_4  and  N2_5
REMARK    2  A    between atoms: N2_5  and  C4_7
REMARK    3  A    between atoms: C4_7  and  N3_9
REMARK    4  A    between atoms: N3_9  and  C5_11
REMARK    5  A    between atoms: N4_14  and  C8_15
REMARK    6  A    between atoms: C8_15  and  C9_16
REMARK    7  A    between atoms: C9_16  and  C10_17
REMARK    8  A    between atoms: C17_24  and  C18_25
ROOT
HETATM    1  C4  UNL     1       4.400  36.715  25.310  1.00  0.00     0.172 C
HETATM    2  S1  UNL     1       4.034  37.708  26.613  1.00  0.00    -0.041 SA
ENDROOT
BRANCH   1   3
HETATM    3  N2  UNL     1       3.375  36.534  24.382  1.00  0.00    -0.332 N
ATOM      4  H2  UNL     1       3.346  37.237  23.644  1.00  0.00     0.168 HD
BRANCH   3   5
HETATM    5  C3  UNL     1       2.374  35.553  24.288  1.00  0.00     0.051 A
HETATM    6  C2  UNL     1       1.297  35.423  23.473  1.00  0.00     0.120 A
HETATM    7  N1  UNL     1       0.630  34.276  23.801  1.00  0.00    -0.361 N
HETATM    8  C1  UNL     1      -0.569  33.807  23.138  1.00  0.00     0.155 C
HETATM    9  C17 UNL     1       1.245  33.671  24.797  1.00  0.00     0.037 A
HETATM   10  C16 UNL     1       2.336  34.425  25.137  1.00  0.00     0.058 A
BRANCH   9  11
HETATM   11  C18 UNL     1       0.907  32.395  25.497  1.00  0.00     0.079 A
HETATM   12 CL1  UNL     1      -0.750  32.315  26.204  1.00  0.00    -0.112 Cl
HETATM   13  C19 UNL     1       1.899  31.452  26.002  1.00  0.00     0.034 A
HETATM   14  C20 UNL     1       1.283  31.151  24.678  1.00  0.00     0.034 A
ENDBRANCH   9  11
ENDBRANCH   3   5
ENDBRANCH   1   3
BRANCH   1  15
HETATM   15  N3  UNL     1       5.711  36.239  25.315  1.00  0.00    -0.362 N
ATOM     16  H3  UNL     1       6.463  36.886  25.553  1.00  0.00     0.162 HD
BRANCH  15  17
HETATM   17  C5  UNL     1       6.059  34.835  24.988  1.00  0.00     0.093 C
HETATM   18  C6  UNL     1       7.407  34.838  24.339  1.00  0.00     0.070 C
HETATM   19  C7  UNL     1       8.204  33.588  24.632  1.00  0.00     0.065 C
HETATM   20  N4  UNL     1       7.394  32.557  25.078  1.00  0.00    -0.374 N
HETATM   21  C14 UNL     1       6.663  32.745  26.265  1.00  0.00     0.065 C
HETATM   22  C15 UNL     1       5.937  34.046  26.241  1.00  0.00     0.070 C
BRANCH  20  23
HETATM   23  C8  UNL     1       7.596  31.219  24.612  1.00  0.00     0.128 C
BRANCH  23  24
HETATM   24  C9  UNL     1       6.407  30.341  24.674  1.00  0.00     0.028 C
BRANCH  24  25
HETATM   25  C10 UNL     1       5.514  30.459  23.468  1.00  0.00    -0.050 C
HETATM   26  C11 UNL     1       6.364  30.491  22.177  1.00  0.00     0.014 C
HETATM   27  C12 UNL     1       4.664  31.697  23.445  1.00  0.00     0.014 C
HETATM   28  C13 UNL     1       4.588  29.243  23.315  1.00  0.00     0.014 C
ENDBRANCH  24  25
ENDBRANCH  23  24
ENDBRANCH  20  23
ENDBRANCH  15  17
ENDBRANCH   1  15
TORSDOF 8
ENDMDL