MODEL 3
REMARK VINA RESULT: -8.279122995      2.424      6.474
REMARK  5 active torsions:
REMARK  status: ('A' for Active; 'I' for Inactive)
REMARK    1  A    between atoms: C2_2  and  N1_4
REMARK       I    between atoms: C4_6  and  N2_7
REMARK       I    between atoms: C4_6  and  N4_21
REMARK    2  A    between atoms: N2_7  and  C5_9
REMARK    3  A    between atoms: C10_15  and  N3_16
REMARK    4  A    between atoms: N4_21  and  C15_23
REMARK    5  A    between atoms: N5_26  and  C18_27
ROOT
HETATM    1  N1  UNL     1       3.390  31.579  24.385  1.00  0.00    -0.222 N
ATOM      2  H1  UNL     1       2.888  31.183  23.591  1.00  0.00     0.178 HD
HETATM    3  C4  UNL     1       3.043  32.752  24.784  1.00  0.00     0.675 C
HETATM    4  N2  UNL     1       2.005  33.523  24.186  1.00  0.00    -0.190 N
ATOM      5  H2  UNL     1       2.204  34.185  23.436  1.00  0.00     0.184 HD
HETATM    6  N4  UNL     1       3.731  33.313  25.886  1.00  0.00    -0.222 N
ATOM      7  H4  UNL     1       3.784  32.785  26.758  1.00  0.00     0.178 HD
ENDROOT
BRANCH   1   8
HETATM    8  C2  UNL     1       4.425  30.793  24.970  1.00  0.00     0.091 C
HETATM    9  C1  UNL     1       5.813  31.353  24.679  1.00  0.00     0.032 C
HETATM   10  C3  UNL     1       4.343  29.328  24.646  1.00  0.00     0.032 C
ENDBRANCH   1   8
BRANCH   4  11
HETATM   11  C5  UNL     1       0.700  33.338  24.667  1.00  0.00     0.077 A
HETATM   12  C6  UNL     1       0.437  32.633  25.835  1.00  0.00     0.056 A
HETATM   13  C7  UNL     1      -0.814  32.438  26.355  1.00  0.00     0.036 A
HETATM   14 CL1  UNL     1      -1.069  31.528  27.847  1.00  0.00    -0.084 Cl
HETATM   15  C8  UNL     1      -1.889  32.968  25.684  1.00  0.00     0.026 A
HETATM   16  C9  UNL     1      -1.666  33.674  24.522  1.00  0.00     0.033 A
HETATM   17  C10 UNL     1      -0.369  33.863  24.005  1.00  0.00     0.058 A
BRANCH  17  18
HETATM   18  N3  UNL     1      -0.260  34.586  22.802  1.00  0.00    -0.379 N
HETATM   19  C11 UNL     1      -0.971  34.440  21.548  1.00  0.00     0.123 C
HETATM   20  C12 UNL     1      -1.156  35.838  21.004  1.00  0.00     0.021 C
HETATM   21  C13 UNL     1      -0.409  36.700  21.992  1.00  0.00     0.021 C
HETATM   22  C14 UNL     1       0.630  35.727  22.511  1.00  0.00     0.123 C
ENDBRANCH  17  18
ENDBRANCH   4  11
BRANCH   6  23
HETATM   23  C15 UNL     1       4.361  34.611  25.816  1.00  0.00     0.102 C
HETATM   24  C16 UNL     1       5.603  34.647  26.644  1.00  0.00     0.056 C
HETATM   25  C17 UNL     1       6.870  34.655  25.824  1.00  0.00     0.275 C
HETATM   26  N5  UNL     1       6.887  35.665  24.811  1.00  0.00     0.092 N
HETATM   27  C21 UNL     1       5.613  36.183  24.450  1.00  0.00     0.275 C
HETATM   28  C22 UNL     1       4.628  35.036  24.388  1.00  0.00     0.056 C
BRANCH  26  29
HETATM   29  C18 UNL     1       7.891  36.682  25.024  1.00  0.00     0.215 C
HETATM   30  C19 UNL     1       7.149  38.025  25.076  1.00  0.00     0.042 C
HETATM   31  C20 UNL     1       8.634  36.527  26.308  1.00  0.00     0.042 C
ENDBRANCH  26  29
ENDBRANCH   6  23
TORSDOF 5
ENDMDL