MODEL 2
REMARK VINA RESULT: -9.180473267      3.432      7.692
REMARK  6 active torsions:
REMARK  status: ('A' for Active; 'I' for Inactive)
REMARK    1  A    between atoms: C2_2  and  C3_3
REMARK       I    between atoms: C3_3  and  N1_5
REMARK    2  A    between atoms: C4_7  and  C5_8
REMARK    3  A    between atoms: C4_7  and  N2_20
REMARK    4  A    between atoms: C5_8  and  C6_9
REMARK    5  A    between atoms: C6_9  and  C7_10
REMARK       I    between atoms: N2_20  and  C16_22
REMARK       I    between atoms: C16_22  and  N3_24
REMARK    6  A    between atoms: N3_24  and  C17_26
ROOT
HETATM    1  C3  UNL     1      -0.099  32.217  27.116  1.00  0.00     0.245 C
HETATM    2  O1  UNL     1       1.067  32.270  27.566  1.00  0.00    -0.268 OA
HETATM    3  N1  UNL     1      -0.424  32.972  25.978  1.00  0.00    -0.313 N
ATOM      4  H1  UNL     1      -0.975  33.822  26.093  1.00  0.00     0.170 HD
HETATM    5  C4  UNL     1      -0.042  32.621  24.772  1.00  0.00     0.087 C
ENDROOT
BRANCH   5   6
HETATM    6  C5  UNL     1      -0.472  33.531  23.690  1.00  0.00     0.077 C
BRANCH   6   7
HETATM    7  C6  UNL     1      -0.061  34.952  24.061  1.00  0.00     0.014 C
BRANCH   7   8
HETATM    8  C7  UNL     1       0.547  35.621  22.855  1.00  0.00     0.015 C
HETATM    9  C8  UNL     1      -0.507  35.682  21.787  1.00  0.00     0.173 C
HETATM   10  O2  UNL     1      -0.202  36.569  20.769  1.00  0.00    -0.385 OA
HETATM   11  C9  UNL     1       0.233  37.801  21.161  1.00  0.00     0.129 C
HETATM   12  C10 UNL     1      -0.600  38.424  22.256  1.00  0.00     0.033 C
HETATM   13  C13 UNL     1       1.573  37.638  21.873  1.00  0.00    -0.017 C
HETATM   14  C11 UNL     1      -0.008  37.894  23.562  1.00  0.00     0.008 C
HETATM   15  C12 UNL     1       1.115  36.967  23.158  1.00  0.00     0.002 C
HETATM   16  C14 UNL     1       2.476  36.742  21.067  1.00  0.00     0.018 C
HETATM   17  C15 UNL     1       2.162  38.983  22.135  1.00  0.00     0.018 C
ENDBRANCH   7   8
ENDBRANCH   6   7
ENDBRANCH   5   6
BRANCH   5  18
HETATM   18  N2  UNL     1       0.721  31.450  24.587  1.00  0.00    -0.298 N
HETATM   19  C16 UNL     1       2.136  31.499  24.444  1.00  0.00     0.326 C
HETATM   20  O3  UNL     1       2.695  32.607  24.487  1.00  0.00    -0.247 OA
HETATM   21  N3  UNL     1       2.905  30.329  24.257  1.00  0.00    -0.309 N
ATOM     22  H3  UNL     1       2.419  29.432  24.240  1.00  0.00     0.170 HD
ATOM     23  H2  UNL     1       0.248  30.546  24.555  1.00  0.00     0.172 HD
BRANCH  21  24
HETATM   24  C17 UNL     1       4.289  30.328  24.096  1.00  0.00     0.036 A
HETATM   25  C18 UNL     1       4.760  30.379  22.775  1.00  0.00     0.032 A
HETATM   26  C19 UNL     1       6.076  30.409  22.431  1.00  0.00     0.044 A
HETATM   27  C20 UNL     1       7.032  30.388  23.424  1.00  0.00     0.116 A
HETATM   28  F1  UNL     1       8.351  30.416  23.088  1.00  0.00    -0.206 F
HETATM   29  C21 UNL     1       6.626  30.339  24.726  1.00  0.00     0.044 A
HETATM   30  C22 UNL     1       5.264  30.310  25.056  1.00  0.00     0.032 A
ENDBRANCH  21  24
ENDBRANCH   5  18
BRANCH   1  31
HETATM   31  C2  UNL     1      -1.064  31.360  27.811  1.00  0.00     0.064 C
HETATM   32  C1  UNL     1      -2.356  31.404  27.536  1.00  0.00     0.017 C
ENDBRANCH   1  31
TORSDOF 6
ENDMDL