MODEL 3
REMARK VINA RESULT: -7.958952565      2.936      4.308
REMARK  7 active torsions:
REMARK  status: ('A' for Active; 'I' for Inactive)
REMARK    1  A    between atoms: N1_1  and  C1_5
REMARK    2  A    between atoms: C1_5  and  C2_6
REMARK    3  A    between atoms: C2_6  and  N2_7
REMARK    4  A    between atoms: C15_21  and  C16_22
REMARK    5  A    between atoms: C16_22  and  O1_23
REMARK    6  A    between atoms: C16_22  and  C17_25
REMARK    7  A    between atoms: C17_25  and  C18_27
ROOT
HETATM    1  N2  UNL     1       4.978  34.841  26.478  1.00  0.00    -0.283 NA
HETATM    2  C3  UNL     1       4.319  33.763  25.814  1.00  0.00     0.095 C
HETATM    3  C4  UNL     1       2.816  33.896  25.711  1.00  0.00     0.015 C
HETATM    4  C5  UNL     1       2.288  33.080  24.518  1.00  0.00     0.001 C
HETATM    5  C6  UNL     1       2.266  31.648  24.944  1.00  0.00     0.000 C
HETATM    6  C7  UNL     1       3.177  30.749  24.133  1.00  0.00     0.000 C
HETATM    7  C8  UNL     1       4.082  29.914  25.006  1.00  0.00     0.000 C
HETATM    8  C9  UNL     1       5.399  29.577  24.395  1.00  0.00     0.000 C
HETATM    9  C10 UNL     1       6.531  30.497  24.822  1.00  0.00     0.002 C
HETATM   10  C11 UNL     1       6.954  31.300  23.649  1.00  0.00     0.024 C
HETATM   11  C12 UNL     1       7.495  32.677  23.956  1.00  0.00     0.105 C
HETATM   12 CL1  UNL     1       9.159  32.712  23.244  1.00  0.00    -0.121 Cl
HETATM   13  C13 UNL     1       7.647  32.963  25.379  1.00  0.00    -0.005 C
HETATM   14  C14 UNL     1       7.196  33.888  26.161  1.00  0.00     0.020 C
HETATM   15  C15 UNL     1       6.343  35.053  25.988  1.00  0.00     0.024 C
ENDROOT
BRANCH  15  16
HETATM   16  C16 UNL     1       6.398  35.774  24.685  1.00  0.00     0.232 C
BRANCH  16  17
HETATM   17  O1  UNL     1       7.744  36.142  24.459  1.00  0.00    -0.382 OA
ATOM     18  H1  UNL     1       8.013  35.750  23.637  1.00  0.00     0.211 HD
ENDBRANCH  16  17
BRANCH  16  19
HETATM   19  C17 UNL     1       5.678  37.076  24.746  1.00  0.00     0.165 C
HETATM   20  O2  UNL     1       6.107  37.949  25.479  1.00  0.00    -0.294 OA
BRANCH  19  21
HETATM   21  C18 UNL     1       4.475  37.383  23.971  1.00  0.00     0.058 C
HETATM   22  C19 UNL     1       3.307  37.819  24.831  1.00  0.00     0.012 C
HETATM   23  C20 UNL     1       2.199  37.860  23.798  1.00  0.00     0.001 C
HETATM   24  C21 UNL     1       2.435  36.556  23.065  1.00  0.00     0.001 C
HETATM   25  C22 UNL     1       3.886  36.177  23.283  1.00  0.00     0.012 C
ENDBRANCH  19  21
ENDBRANCH  16  19
ENDBRANCH  15  16
BRANCH   1  26
HETATM   26  C2  UNL     1       5.027  34.746  27.902  1.00  0.00     0.122 C
BRANCH  26  27
HETATM   27  C1  UNL     1       5.131  35.941  28.731  1.00  0.00     0.244 C
BRANCH  27  28
HETATM   28  N1  UNL     1       4.488  37.091  28.125  1.00  0.00    -0.078 N
ATOM     29  H13 UNL     1       5.139  37.608  27.535  1.00  0.00     0.274 HD
ATOM     30  H12 UNL     1       3.815  36.804  27.415  1.00  0.00     0.274 HD
ATOM     31  H11 UNL     1       4.054  37.704  28.817  1.00  0.00     0.274 HD
ENDBRANCH  27  28
ENDBRANCH  26  27
ENDBRANCH   1  26
TORSDOF 7
ENDMDL