MODEL 2
REMARK VINA RESULT: -7.113862450      2.491      4.536
REMARK  6 active torsions:
REMARK  status: ('A' for Active; 'I' for Inactive)
REMARK    1  A    between atoms: C2_2  and  C3_3
REMARK    2  A    between atoms: C3_3  and  C4_4
REMARK    3  A    between atoms: C4_4  and  C5_5
REMARK    4  A    between atoms: C5_5  and  C6_6
REMARK    5  A    between atoms: C20_24  and  C21_25
REMARK    6  A    between atoms: C21_25  and  C22_26
ROOT
HETATM    1  C5  UNL     1      70.063  35.107  24.603  1.00  0.00     0.083 C
HETATM    2  C9  UNL     1      70.050  33.587  24.341  1.00  0.00     0.044 C
HETATM    3  C10 UNL     1      71.259  32.929  24.919  1.00  0.00     0.030 C
HETATM    4  C11 UNL     1      71.275  31.477  24.855  1.00  0.00    -0.024 C
HETATM    5  C12 UNL     1      72.412  30.816  24.755  1.00  0.00    -0.087 C
HETATM    6  C13 UNL     1      72.380  29.316  24.692  1.00  0.00     0.043 C
HETATM    7  C14 UNL     1      73.714  31.488  24.695  1.00  0.00     0.033 C
HETATM    8  C15 UNL     1      74.174  32.125  25.973  1.00  0.00     0.006 C
HETATM    9  C16 UNL     1      75.000  33.370  25.645  1.00  0.00     0.025 C
HETATM   10  C17 UNL     1      74.391  34.620  26.311  1.00  0.00     0.080 C
HETATM   11  C18 UNL     1      75.496  35.185  27.188  1.00  0.00     0.032 C
HETATM   12  N1  UNL     1      73.948  35.533  25.307  1.00  0.00    -0.355 N
ATOM     13  H1  UNL     1      74.455  35.460  24.424  1.00  0.00     0.162 HD
HETATM   14  C19 UNL     1      72.956  36.501  25.311  1.00  0.00     0.247 C
HETATM   15  O1  UNL     1      73.270  37.617  24.742  1.00  0.00    -0.271 OA
HETATM   16  C20 UNL     1      71.569  36.400  25.897  1.00  0.00     0.224 C
HETATM   17  O4  UNL     1      70.916  35.250  25.695  1.00  0.00    -0.363 OA
ENDROOT
BRANCH   1  18
HETATM   18  C4  UNL     1      70.635  35.764  23.422  1.00  0.00     0.040 C
BRANCH  18  19
HETATM   19  C3  UNL     1      69.832  36.748  22.659  1.00  0.00     0.003 C
BRANCH  19  20
HETATM   20  C2  UNL     1      70.534  38.127  22.742  1.00  0.00    -0.004 C
HETATM   21  C1  UNL     1      69.481  39.211  22.816  1.00  0.00     0.005 C
ENDBRANCH  19  20
ENDBRANCH  18  19
ENDBRANCH   1  18
BRANCH   1  22
HETATM   22  C6  UNL     1      68.615  35.414  24.911  1.00  0.00     0.061 C
HETATM   23  C7  UNL     1      68.001  34.309  25.744  1.00  0.00     0.035 C
HETATM   24  C8  UNL     1      68.332  36.757  25.458  1.00  0.00     0.035 C
HETATM   25 CL1  UNL     1      67.638  35.306  23.381  1.00  0.00    -0.117 Cl
ENDBRANCH   1  22
BRANCH  16  26
HETATM   26  C21 UNL     1      71.782  36.830  27.345  1.00  0.00     0.154 C
BRANCH  26  27
HETATM   27  C22 UNL     1      71.426  38.224  27.648  1.00  0.00     0.175 C
HETATM   28  O2  UNL     1      71.581  38.747  28.784  1.00  0.00    -0.648 OA
HETATM   29  O3  UNL     1      70.884  39.037  26.650  1.00  0.00    -0.648 OA
ENDBRANCH  26  27
ENDBRANCH  16  26
TORSDOF 6
ENDMDL