MODEL 3
REMARK VINA RESULT: -8.466330522      1.939      6.821
REMARK  8 active torsions:
REMARK  status: ('A' for Active; 'I' for Inactive)
REMARK    1  A    between atoms: C2_2  and  C3_3
REMARK    2  A    between atoms: C3_3  and  C5_5
REMARK    3  A    between atoms: C7_9  and  N2_10
REMARK    4  A    between atoms: N2_10  and  C8_12
REMARK    5  A    between atoms: C8_12  and  O1_13
REMARK    6  A    between atoms: C8_12  and  C9_15
REMARK    7  A    between atoms: C9_15  and  C10_16
REMARK    8  A    between atoms: C18_25  and  C19_26
ROOT
HETATM    1  N2  UNL     1      68.240  33.349  26.200  1.00  0.00    -0.322 N
ATOM      2  H2  UNL     1      67.864  33.349  27.148  1.00  0.00     0.169 HD
ENDROOT
BRANCH   1   3
HETATM    3  C7  UNL     1      68.026  34.495  25.341  1.00  0.00     0.124 A
HETATM    4  N1  UNL     1      69.037  35.400  25.206  1.00  0.00    -0.351 N
HETATM    5  C6  UNL     1      68.915  36.485  24.429  1.00  0.00     0.097 A
ATOM      6  H1  UNL     1      69.910  35.247  25.710  1.00  0.00     0.166 HD
HETATM    7  C5  UNL     1      67.754  36.742  23.722  1.00  0.00    -0.038 A
HETATM    8  C20 UNL     1      66.723  35.854  23.837  1.00  0.00     0.031 A
HETATM    9  C18 UNL     1      66.872  34.709  24.666  1.00  0.00     0.085 A
BRANCH   7  10
HETATM   10  C3  UNL     1      67.634  37.943  22.869  1.00  0.00     0.015 C
HETATM   11  C4  UNL     1      67.089  39.139  23.651  1.00  0.00     0.015 C
BRANCH  10  12
HETATM   12  C2  UNL     1      66.766  37.679  21.668  1.00  0.00     0.004 C
HETATM   13  C1  UNL     1      67.588  37.357  20.464  1.00  0.00     0.006 C
ENDBRANCH  10  12
ENDBRANCH   7  10
BRANCH   9  14
HETATM   14  C19 UNL     1      65.747  33.814  24.741  1.00  0.00     0.213 C
HETATM   15  O2  UNL     1      65.503  32.920  25.565  1.00  0.00    -0.644 OA
HETATM   16  O3  UNL     1      64.725  33.923  23.749  1.00  0.00    -0.644 OA
ENDBRANCH   9  14
ENDBRANCH   1   3
BRANCH   1  17
HETATM   17  C8  UNL     1      68.956  32.246  25.739  1.00  0.00     0.141 C
BRANCH  17  18
HETATM   18  O1  UNL     1      68.256  31.350  25.096  1.00  0.00    -0.346 OA
ATOM     19  H1  UNL     1      68.577  30.458  25.159  1.00  0.00     0.219 HD
ENDBRANCH  17  18
BRANCH  17  20
HETATM   20  C9  UNL     1      70.327  31.954  25.862  1.00  0.00     0.060 C
BRANCH  20  21
HETATM   21  C10 UNL     1      71.317  32.087  25.026  1.00  0.00    -0.057 C
HETATM   22  C11 UNL     1      71.524  33.050  23.957  1.00  0.00     0.087 C
HETATM   23 BR1  UNL     1      72.312  34.717  24.558  1.00  0.00    -0.086 Br
HETATM   24  C12 UNL     1      72.558  32.446  22.982  1.00  0.00     0.021 C
HETATM   25  C13 UNL     1      73.877  32.325  23.665  1.00  0.00     0.006 C
HETATM   26  C14 UNL     1      73.780  31.560  24.964  1.00  0.00    -0.011 C
HETATM   27  C15 UNL     1      74.285  32.328  26.156  1.00  0.00     0.010 C
HETATM   28  C16 UNL     1      72.418  31.041  25.241  1.00  0.00     0.015 C
HETATM   29  C17 UNL     1      72.098  29.755  24.560  1.00  0.00     0.015 C
ENDBRANCH  20  21
ENDBRANCH  17  20
ENDBRANCH   1  17
TORSDOF 8
ENDMDL