MODEL 4
REMARK VINA RESULT: -9.153599073      0.479      1.599
REMARK  5 active torsions:
REMARK  status: ('A' for Active; 'I' for Inactive)
REMARK    1  A    between atoms: C1_2  and  C2_3
REMARK       I    between atoms: C1_2  and  N2_16
REMARK    2  A    between atoms: C2_3  and  N1_4
REMARK    3  A    between atoms: N1_4  and  C3_6
REMARK    4  A    between atoms: N2_16  and  C13_18
REMARK    5  A    between atoms: C16_22  and  C17_23
ROOT
HETATM    1  O1  UNL     1      70.914  35.719  23.358  1.00  0.00    -0.272 OA
HETATM    2  C1  UNL     1      70.656  36.165  24.506  1.00  0.00     0.236 C
HETATM    3  N2  UNL     1      70.754  35.342  25.677  1.00  0.00    -0.319 N
ATOM      4  H2  UNL     1      70.543  35.705  26.606  1.00  0.00     0.169 HD
ENDROOT
BRANCH   2   5
HETATM    5  C2  UNL     1      70.242  37.573  24.634  1.00  0.00     0.212 C
BRANCH   5   6
HETATM    6  N1  UNL     1      68.819  37.653  24.630  1.00  0.00    -0.210 NA
HETATM    7 CL1  UNL     1      68.195  38.225  26.139  1.00  0.00    -0.021 Cl
BRANCH   6   8
HETATM    8  C3  UNL     1      68.315  38.443  23.545  1.00  0.00     0.030 C
HETATM    9  C4  UNL     1      67.164  39.297  23.959  1.00  0.00     0.031 C
HETATM   10  C5  UNL     1      66.696  40.157  22.794  1.00  0.00    -0.012 C
HETATM   11  C6  UNL     1      67.806  41.105  22.449  1.00  0.00     0.009 C
HETATM   12  C10 UNL     1      66.320  39.237  21.676  1.00  0.00     0.009 C
HETATM   13  C7  UNL     1      69.013  40.290  22.027  1.00  0.00    -0.012 C
HETATM   14  C8  UNL     1      68.603  39.506  20.796  1.00  0.00     0.009 C
HETATM   15  C12 UNL     1      69.461  39.377  23.138  1.00  0.00     0.031 C
HETATM   16  C9  UNL     1      67.555  38.499  21.216  1.00  0.00    -0.012 C
HETATM   17  C11 UNL     1      68.017  37.604  22.322  1.00  0.00     0.031 C
ENDBRANCH   6   8
ENDBRANCH   5   6
ENDBRANCH   2   5
BRANCH   3  18
HETATM   18  C13 UNL     1      71.163  33.984  25.473  1.00  0.00     0.094 A
HETATM   19  S1  UNL     1      70.110  32.659  25.105  1.00  0.00    -0.075 SA
HETATM   20  C14 UNL     1      71.268  31.426  25.004  1.00  0.00    -0.008 A
HETATM   21  C15 UNL     1      72.430  32.058  25.253  1.00  0.00    -0.025 A
HETATM   22  C21 UNL     1      71.064  29.978  24.710  1.00  0.00     0.047 C
HETATM   23  C16 UNL     1      72.398  33.391  25.501  1.00  0.00     0.082 A
HETATM   24  C18 UNL     1      73.670  31.188  25.206  1.00  0.00     0.041 C
HETATM   25  C19 UNL     1      73.445  29.836  24.716  1.00  0.00     0.005 C
HETATM   26  C20 UNL     1      72.262  29.599  23.823  1.00  0.00     0.005 C
BRANCH  23  27
HETATM   27  C17 UNL     1      73.577  34.223  25.804  1.00  0.00     0.212 C
HETATM   28  O2  UNL     1      73.987  35.144  25.093  1.00  0.00    -0.644 OA
HETATM   29  O3  UNL     1      74.284  33.973  26.959  1.00  0.00    -0.644 OA
ENDBRANCH  23  27
ENDBRANCH   3  18
TORSDOF 5
ENDMDL