MODEL 4
REMARK VINA RESULT: -8.497691925      2.093      5.562
REMARK  10 active torsions:
REMARK  status: ('A' for Active; 'I' for Inactive)
REMARK    1  A    between atoms: C1_2  and  C2_3
REMARK       I    between atoms: C1_2  and  N1_10
REMARK    2  A    between atoms: C3_4  and  C4_5
REMARK    3  A    between atoms: N1_10  and  C9_11
REMARK    4  A    between atoms: N1_10  and  C15_23
REMARK    5  A    between atoms: C9_11  and  C10_12
REMARK    6  A    between atoms: C11_13  and  C12_14
REMARK    7  A    between atoms: C12_14  and  C13_15
REMARK    8  A    between atoms: C13_15  and  C14_16
REMARK    9  A    between atoms: C14_16  and  O2_17
REMARK   10  A    between atoms: N2_19  and  O3_21
ROOT
HETATM    1  O1  UNL     1      71.341  34.563  23.226  1.00  0.00    -0.268 OA
HETATM    2  C1  UNL     1      70.739  34.733  24.290  1.00  0.00     0.248 C
HETATM    3  N1  UNL     1      69.801  35.825  24.280  1.00  0.00    -0.302 N
ENDROOT
BRANCH   3   4
HETATM    4  C9  UNL     1      68.944  36.028  25.400  1.00  0.00     0.226 C
BRANCH   4   5
HETATM    5  C10 UNL     1      67.758  35.159  25.238  1.00  0.00    -0.086 C
HETATM    6  C11 UNL     1      66.798  34.460  25.129  1.00  0.00    -0.104 C
BRANCH   6   7
HETATM    7  C12 UNL     1      65.619  33.601  25.023  1.00  0.00     0.102 C
BRANCH   7   8
HETATM    8  C13 UNL     1      65.943  32.319  25.764  1.00  0.00     0.098 C
BRANCH   8   9
HETATM    9  C14 UNL     1      65.055  32.238  26.952  1.00  0.00     0.136 C
HETATM   10  N2  UNL     1      64.053  31.438  27.050  1.00  0.00    -0.251 N
ATOM     11  H2  UNL     1      63.513  31.471  27.914  1.00  0.00     0.196 HD
BRANCH   9  12
HETATM   12  O2  UNL     1      65.328  33.079  28.016  1.00  0.00    -0.348 OA
ATOM     13  H2  UNL     1      66.211  33.420  28.093  1.00  0.00     0.219 HD
ENDBRANCH   9  12
BRANCH  10  14
HETATM   14  O3  UNL     1      63.651  30.556  26.105  1.00  0.00    -0.288 OA
ATOM     15  H3  UNL     1      62.914  30.671  25.516  1.00  0.00     0.244 HD
ENDBRANCH  10  14
ENDBRANCH   8   9
ENDBRANCH   7   8
ENDBRANCH   6   7
ENDBRANCH   4   5
ENDBRANCH   3   4
BRANCH   3  16
HETATM   16  C15 UNL     1      69.687  36.689  23.165  1.00  0.00     0.056 A
HETATM   17  C16 UNL     1      68.720  36.494  22.191  1.00  0.00     0.031 A
HETATM   18  C17 UNL     1      68.560  37.300  21.089  1.00  0.00     0.002 A
HETATM   19  C18 UNL     1      69.406  38.376  20.921  1.00  0.00     0.002 A
HETATM   20  C19 UNL     1      70.374  38.597  21.868  1.00  0.00     0.021 A
HETATM   21  C20 UNL     1      70.525  37.782  22.969  1.00  0.00     0.037 A
HETATM   22 BR1  UNL     1      71.891  38.161  24.245  1.00  0.00    -0.049 Br
ENDBRANCH   3  16
BRANCH   2  23
HETATM   23  C2  UNL     1      70.937  33.930  25.459  1.00  0.00     0.071 C
HETATM   24  C3  UNL     1      71.298  32.714  25.577  1.00  0.00    -0.017 C
BRANCH  24  25
HETATM   25  C4  UNL     1      71.670  31.558  24.832  1.00  0.00     0.008 C
HETATM   26  C5  UNL     1      73.084  31.109  25.245  1.00  0.00     0.008 C
HETATM   27  C6  UNL     1      73.315  29.955  24.290  1.00  0.00     0.001 C
HETATM   28  C7  UNL     1      71.960  29.337  24.071  1.00  0.00     0.001 C
HETATM   29  C8  UNL     1      70.966  30.275  24.850  1.00  0.00     0.008 C
ENDBRANCH  24  25
ENDBRANCH   2  23
TORSDOF 10
ENDMDL