MODEL 1
REMARK VINA RESULT: -7.971068960      0.000      0.000
REMARK  5 active torsions:
REMARK  status: ('A' for Active; 'I' for Inactive)
REMARK    1  A    between atoms: C2_2  and  O1_3
REMARK    2  A    between atoms: O1_3  and  C3_4
REMARK    3  A    between atoms: C5_6  and  N1_7
REMARK    4  A    between atoms: C14_17  and  C15_18
REMARK       I    between atoms: C15_18  and  N2_20
REMARK    5  A    between atoms: N2_20  and  C16_22
ROOT
HETATM    1  C3  UNL     1      70.932  35.772  23.907  1.00  0.00     0.086 A
HETATM    2  C4  UNL     1      71.594  34.573  24.024  1.00  0.00     0.069 A
HETATM    3  C5  UNL     1      70.944  33.358  24.339  1.00  0.00     0.054 A
HETATM    4  C12 UNL     1      69.589  33.397  24.534  1.00  0.00     0.061 A
HETATM    5 CL1  UNL     1      68.692  31.934  25.002  1.00  0.00    -0.082 Cl
HETATM    6  C13 UNL     1      68.932  34.592  24.414  1.00  0.00     0.046 A
HETATM    7  C14 UNL     1      69.568  35.791  24.105  1.00  0.00     0.067 A
ENDROOT
BRANCH   7   8
HETATM    8  C15 UNL     1      68.837  37.029  24.111  1.00  0.00     0.254 C
HETATM    9  O2  UNL     1      67.821  37.065  24.915  1.00  0.00    -0.268 OA
HETATM   10  N2  UNL     1      69.043  38.174  23.381  1.00  0.00    -0.351 N
ATOM     11  H2  UNL     1      69.853  38.205  22.761  1.00  0.00     0.163 HD
BRANCH  10  12
HETATM   12  C16 UNL     1      68.180  39.350  23.431  1.00  0.00     0.093 C
HETATM   13  C17 UNL     1      67.484  39.637  22.138  1.00  0.00     0.013 C
HETATM   14  C18 UNL     1      66.350  40.581  22.465  1.00  0.00     0.039 C
HETATM   15  C24 UNL     1      68.355  40.389  21.136  1.00  0.00     0.039 C
HETATM   16  C19 UNL     1      66.967  41.843  23.074  1.00  0.00     0.187 C
HETATM   17  C20 UNL     1      67.742  41.522  24.338  1.00  0.00     0.039 C
HETATM   18  N3  UNL     1      67.792  42.527  22.123  1.00  0.00    -0.067 N
HETATM   19  C21 UNL     1      68.902  40.591  23.932  1.00  0.00     0.013 C
HETATM   20  C22 UNL     1      69.709  41.305  22.922  1.00  0.00     0.039 C
HETATM   21  C23 UNL     1      68.871  41.663  21.713  1.00  0.00     0.187 C
ATOM     22  H32 UNL     1      67.256  42.877  21.329  1.00  0.00     0.278 HD
ATOM     23  H31 UNL     1      68.128  43.422  22.478  1.00  0.00     0.278 HD
ENDBRANCH  10  12
ENDBRANCH   7   8
BRANCH   1  24
HETATM   24  O1  UNL     1      71.639  36.921  23.588  1.00  0.00    -0.350 OA
BRANCH  24  25
HETATM   25  C2  UNL     1      72.564  37.613  24.344  1.00  0.00     0.171 C
HETATM   26  C1  UNL     1      72.008  38.231  25.605  1.00  0.00     0.034 C
ENDBRANCH  24  25
ENDBRANCH   1  24
BRANCH   3  27
HETATM   27  N1  UNL     1      71.703  32.184  24.416  1.00  0.00    -0.379 N
HETATM   28  C6  UNL     1      72.268  31.785  25.674  1.00  0.00     0.123 C
HETATM   29  C7  UNL     1      73.657  31.194  25.464  1.00  0.00     0.020 C
HETATM   30  C8  UNL     1      73.647  29.848  24.819  1.00  0.00     0.002 C
HETATM   31  C9  UNL     1      72.321  29.238  24.560  1.00  0.00     0.002 C
HETATM   32  C10 UNL     1      71.379  29.970  23.682  1.00  0.00     0.020 C
HETATM   33  C11 UNL     1      71.849  31.336  23.214  1.00  0.00     0.123 C
ENDBRANCH   3  27
TORSDOF 5
ENDMDL