MODEL 3
REMARK VINA RESULT: -8.038864975      1.590      2.874
REMARK  5 active torsions:
REMARK  status: ('A' for Active; 'I' for Inactive)
REMARK    1  A    between atoms: N1_2  and  C2_5
REMARK    2  A    between atoms: N2_9  and  C6_10
REMARK    3  A    between atoms: C6_10  and  C7_11
REMARK    4  A    between atoms: C10_14  and  N3_15
REMARK       I    between atoms: N3_15  and  C11_17
REMARK    5  A    between atoms: C11_17  and  C12_19
ROOT
HETATM    1  C7  UNL     1      73.293  38.818  25.878  1.00  0.00    -0.028 A
HETATM    2  C8  UNL     1      74.307  38.086  25.312  1.00  0.00     0.011 A
HETATM    3  C9  UNL     1      74.081  36.756  24.939  1.00  0.00     0.032 A
HETATM    4  C10 UNL     1      72.879  36.112  25.106  1.00  0.00     0.056 A
HETATM    5  C22 UNL     1      71.857  36.889  25.691  1.00  0.00     0.061 A
HETATM    6 CL1  UNL     1      70.311  36.120  25.925  1.00  0.00    -0.082 Cl
HETATM    7  C23 UNL     1      72.078  38.195  26.056  1.00  0.00     0.035 A
ENDROOT
BRANCH   4   8
HETATM    8  N3  UNL     1      72.628  34.777  24.743  1.00  0.00    -0.325 N
HETATM    9  C11 UNL     1      73.002  33.635  25.481  1.00  0.00     0.231 C
HETATM   10  O1  UNL     1      73.612  33.589  26.565  1.00  0.00    -0.272 OA
ATOM     11  H3  UNL     1      72.131  34.620  23.866  1.00  0.00     0.169 HD
BRANCH   9  12
HETATM   12  C12 UNL     1      72.644  32.257  24.934  1.00  0.00     0.042 C
HETATM   13  C13 UNL     1      72.526  32.469  23.423  1.00  0.00     0.024 C
HETATM   14  C14 UNL     1      72.186  31.168  22.774  1.00  0.00    -0.013 C
HETATM   15  C15 UNL     1      73.255  30.140  23.062  1.00  0.00     0.009 C
HETATM   16  C19 UNL     1      70.876  30.680  23.317  1.00  0.00     0.009 C
HETATM   17  C16 UNL     1      73.400  29.983  24.541  1.00  0.00    -0.013 C
HETATM   18  C17 UNL     1      72.100  29.499  25.133  1.00  0.00     0.009 C
HETATM   19  C21 UNL     1      73.749  31.290  25.217  1.00  0.00     0.024 C
HETATM   20  C18 UNL     1      70.990  30.480  24.813  1.00  0.00    -0.013 C
HETATM   21  C20 UNL     1      71.312  31.802  25.429  1.00  0.00     0.024 C
ENDBRANCH   9  12
ENDBRANCH   4   8
BRANCH   1  22
HETATM   22  C6  UNL     1      73.517  40.213  26.271  1.00  0.00     0.311 C
BRANCH  22  23
HETATM   23  N2  UNL     1      72.413  40.803  26.999  1.00  0.00     0.094 N
HETATM   24  C5  UNL     1      72.870  41.861  27.882  1.00  0.00     0.273 C
HETATM   25  C4  UNL     1      71.708  42.638  28.460  1.00  0.00     0.032 C
HETATM   26  C3  UNL     1      70.382  41.988  28.138  1.00  0.00     0.036 C
HETATM   27  C2  UNL     1      70.239  41.756  26.667  1.00  0.00     0.213 C
HETATM   28  C24 UNL     1      71.570  41.481  26.002  1.00  0.00     0.305 C
BRANCH  27  29
HETATM   29  N1  UNL     1      69.402  40.609  26.423  1.00  0.00    -0.073 N
HETATM   30  C1  UNL     1      69.114  40.379  25.035  1.00  0.00     0.267 C
ATOM     31  H12 UNL     1      68.538  40.675  26.962  1.00  0.00     0.277 HD
ATOM     32  H11 UNL     1      69.807  39.775  26.848  1.00  0.00     0.277 HD
ENDBRANCH  27  29
ENDBRANCH  22  23
ENDBRANCH   1  22
TORSDOF 5
ENDMDL