MODEL 1
REMARK VINA RESULT: -8.440454175      0.000      0.000
REMARK  6 active torsions:
REMARK  status: ('A' for Active; 'I' for Inactive)
REMARK    1  A    between atoms: C2_2  and  C3_3
REMARK    2  A    between atoms: C8_8  and  C9_9
REMARK    3  A    between atoms: N1_14  and  C12_15
REMARK    4  A    between atoms: C12_15  and  C13_16
REMARK    5  A    between atoms: C13_16  and  C15_18
REMARK    6  A    between atoms: C25_29  and  O3_30
ROOT
HETATM    1  C3  UNL     1      68.266  38.139  21.817  1.00  0.00     0.025 C
HETATM    2  C4  UNL     1      67.636  39.448  22.255  1.00  0.00    -0.012 C
HETATM    3  C5  UNL     1      66.709  39.993  21.203  1.00  0.00     0.010 C
HETATM    4  C6  UNL     1      66.990  39.200  23.585  1.00  0.00     0.006 C
HETATM    5  C7  UNL     1      66.753  37.790  23.952  1.00  0.00     0.024 C
HETATM    6  C8  UNL     1      67.980  36.867  23.845  1.00  0.00     0.081 C
HETATM    7  C10 UNL     1      68.430  36.423  25.192  1.00  0.00     0.043 C
HETATM    8  C11 UNL     1      69.756  36.771  25.704  1.00  0.00     0.123 C
HETATM    9  N1  UNL     1      70.894  36.271  25.025  1.00  0.00    -0.393 N
HETATM   10  C23 UNL     1      71.225  36.699  23.763  1.00  0.00     0.061 C
HETATM   11  C24 UNL     1      70.121  36.682  22.722  1.00  0.00     0.083 C
HETATM   12  C25 UNL     1      68.981  37.568  22.994  1.00  0.00     0.084 C
ENDROOT
BRANCH   9  13
HETATM   13  C12 UNL     1      71.974  36.189  25.950  1.00  0.00     0.131 C
BRANCH  13  14
HETATM   14  C13 UNL     1      71.816  35.041  26.886  1.00  0.00     0.033 C
HETATM   15  C14 UNL     1      72.774  35.304  28.069  1.00  0.00     0.017 C
BRANCH  14  16
HETATM   16  C15 UNL     1      72.182  33.711  26.274  1.00  0.00    -0.044 A
HETATM   17  C16 UNL     1      73.491  33.347  26.039  1.00  0.00     0.051 A
HETATM   18  C17 UNL     1      73.822  32.096  25.499  1.00  0.00     0.122 A
HETATM   19  F1  UNL     1      75.122  31.777  25.283  1.00  0.00    -0.206 F
HETATM   20  C18 UNL     1      72.853  31.173  25.180  1.00  0.00    -0.023 A
HETATM   21  C19 UNL     1      73.167  29.834  24.598  1.00  0.00     0.051 C
HETATM   22  C20 UNL     1      71.552  31.541  25.418  1.00  0.00     0.017 A
HETATM   23  C21 UNL     1      71.212  32.789  25.954  1.00  0.00    -0.055 A
HETATM   24  C22 UNL     1      69.771  33.123  26.141  1.00  0.00     0.049 C
ENDBRANCH  14  16
ENDBRANCH  13  14
ENDBRANCH   9  13
BRANCH   6  25
HETATM   25  C9  UNL     1      67.401  35.635  23.212  1.00  0.00     0.185 C
HETATM   26  O1  UNL     1      66.754  35.517  22.184  1.00  0.00    -0.647 OA
HETATM   27  O2  UNL     1      67.632  34.417  23.902  1.00  0.00    -0.647 OA
ENDBRANCH   6  25
BRANCH  12  28
HETATM   28  O3  UNL     1      69.516  38.667  23.677  1.00  0.00    -0.388 OA
ATOM     29  H3  UNL     1      69.119  38.648  24.540  1.00  0.00     0.210 HD
ENDBRANCH  12  28
BRANCH   1  30
HETATM   30  C2  UNL     1      68.959  38.208  20.518  1.00  0.00     0.003 C
HETATM   31  C1  UNL     1      68.450  37.389  19.396  1.00  0.00     0.005 C
ENDBRANCH   1  30
TORSDOF 6
ENDMDL