MODEL 3
REMARK VINA RESULT: -9.299510116      2.328      6.365
REMARK  6 active torsions:
REMARK  status: ('A' for Active; 'I' for Inactive)
REMARK    1  A    between atoms: C3_3  and  C4_4
REMARK    2  A    between atoms: C7_9  and  O2_10
REMARK    3  A    between atoms: O2_10  and  C8_11
REMARK    4  A    between atoms: C13_17  and  N2_18
REMARK       I    between atoms: N2_18  and  C14_20
REMARK       I    between atoms: C14_20  and  N3_22
REMARK    5  A    between atoms: N3_22  and  C15_23
REMARK    6  A    between atoms: N3_22  and  C22_30
ROOT
HETATM    1  C1  UNL     1      70.251  31.016  24.385  1.00  0.00     0.052 C
HETATM    2  C2  UNL     1      71.349  31.798  25.007  1.00  0.00    -0.017 A
HETATM    3  C3  UNL     1      72.650  31.344  25.016  1.00  0.00     0.037 A
HETATM    4  C5  UNL     1      73.657  32.110  25.612  1.00  0.00     0.020 A
HETATM    5  C6  UNL     1      73.393  33.319  26.198  1.00  0.00     0.040 A
HETATM    6  C7  UNL     1      72.100  33.782  26.196  1.00  0.00     0.096 A
HETATM    7  C13 UNL     1      71.100  33.017  25.602  1.00  0.00     0.076 A
ENDROOT
BRANCH   7   8
HETATM    8  N2  UNL     1      69.751  33.482  25.591  1.00  0.00    -0.306 N
HETATM    9  C14 UNL     1      69.273  34.408  24.646  1.00  0.00     0.323 C
HETATM   10  O3  UNL     1      70.102  34.837  23.769  1.00  0.00    -0.247 OA
HETATM   11  N3  UNL     1      67.955  34.912  24.573  1.00  0.00    -0.325 N
ATOM     12  H2  UNL     1      69.106  33.128  26.298  1.00  0.00     0.171 HD
BRANCH  11  13
HETATM   13  C15 UNL     1      67.606  35.871  23.533  1.00  0.00     0.089 C
HETATM   14  C16 UNL     1      66.340  35.486  22.806  1.00  0.00     0.025 C
HETATM   15  C17 UNL     1      66.481  35.690  21.320  1.00  0.00     0.002 C
HETATM   16  C18 UNL     1      66.917  37.051  20.931  1.00  0.00     0.000 C
HETATM   17  C19 UNL     1      66.685  38.117  21.939  1.00  0.00     0.000 C
HETATM   18  C20 UNL     1      67.767  38.229  22.982  1.00  0.00     0.002 C
HETATM   19  C21 UNL     1      67.380  37.256  24.103  1.00  0.00     0.025 C
ENDBRANCH  11  13
BRANCH  11  20
HETATM   20  C22 UNL     1      66.957  34.479  25.529  1.00  0.00     0.089 A
HETATM   21  C23 UNL     1      65.650  33.952  25.066  1.00  0.00     0.027 A
HETATM   22  C24 UNL     1      66.653  32.975  25.499  1.00  0.00     0.027 A
ENDBRANCH  11  20
ENDBRANCH   7   8
BRANCH   6  23
HETATM   23  O2  UNL     1      71.728  34.956  26.743  1.00  0.00    -0.344 OA
BRANCH  23  24
HETATM   24  C8  UNL     1      71.944  36.269  26.442  1.00  0.00     0.131 C
HETATM   25  C9  UNL     1      70.746  37.168  26.376  1.00  0.00     0.035 C
HETATM   26  C10 UNL     1      71.369  38.444  25.805  1.00  0.00     0.040 C
HETATM   27  C11 UNL     1      72.196  37.873  24.673  1.00  0.00     0.172 C
HETATM   28  F1  UNL     1      71.317  37.683  23.603  1.00  0.00    -0.249 F
HETATM   29  C12 UNL     1      72.736  36.555  25.185  1.00  0.00     0.069 C
ENDBRANCH  23  24
ENDBRANCH   6  23
BRANCH   3  30
HETATM   30  C4  UNL     1      72.996  30.065  24.409  1.00  0.00     0.265 C
HETATM   31  N1  UNL     1      73.298  29.964  23.011  1.00  0.00    -0.057 NA
HETATM   32  O1  UNL     1      73.048  29.005  25.059  1.00  0.00    -0.271 OA
ENDBRANCH   3  30
TORSDOF 6
ENDMDL