MODEL 1
REMARK VINA RESULT: -10.245606629      0.000      0.000
REMARK  5 active torsions:
REMARK  status: ('A' for Active; 'I' for Inactive)
REMARK    1  A    between atoms: C1_2  and  C2_3
REMARK       I    between atoms: C1_2  and  N2_24
REMARK    2  A    between atoms: C2_3  and  C3_4
REMARK    3  A    between atoms: C8_9  and  N1_10
REMARK       I    between atoms: N1_10  and  C9_12
REMARK    4  A    between atoms: C9_12  and  C10_14
REMARK    5  A    between atoms: N2_24  and  C18_26
ROOT
HETATM    1  C3  UNL     1      67.410  36.706  23.633  1.00  0.00     0.017 C
HETATM    2  C4  UNL     1      67.176  38.073  22.989  1.00  0.00     0.007 C
HETATM    3  C5  UNL     1      67.953  39.086  23.823  1.00  0.00     0.001 C
HETATM    4  C6  UNL     1      67.925  38.733  25.288  1.00  0.00     0.002 C
HETATM    5  C7  UNL     1      68.630  37.428  25.584  1.00  0.00     0.025 C
HETATM    6  C8  UNL     1      68.767  36.738  24.216  1.00  0.00     0.089 C
ENDROOT
BRANCH   6   7
HETATM    7  N1  UNL     1      69.483  35.512  24.311  1.00  0.00    -0.350 N
HETATM    8  C9  UNL     1      70.862  35.392  23.984  1.00  0.00     0.277 C
HETATM    9  O2  UNL     1      71.453  36.456  23.619  1.00  0.00    -0.265 OA
ATOM     10  H1  UNL     1      68.984  34.680  24.627  1.00  0.00     0.163 HD
BRANCH   8  11
HETATM   11  C10 UNL     1      71.636  34.174  24.040  1.00  0.00     0.165 A
HETATM   12  O3  UNL     1      71.876  33.379  23.022  1.00  0.00    -0.307 OA
HETATM   13  C11 UNL     1      72.591  32.348  23.339  1.00  0.00     0.062 A
HETATM   14  C12 UNL     1      72.882  32.418  24.695  1.00  0.00    -0.004 A
HETATM   15  C17 UNL     1      73.140  31.174  22.599  1.00  0.00     0.066 C
HETATM   16  C13 UNL     1      72.273  33.579  25.132  1.00  0.00     0.082 A
HETATM   17  C14 UNL     1      73.661  31.337  25.339  1.00  0.00     0.043 C
HETATM   18 CL1  UNL     1      72.273  34.190  26.766  1.00  0.00    -0.081 Cl
HETATM   19  C15 UNL     1      73.339  29.960  24.806  1.00  0.00     0.005 C
HETATM   20  C16 UNL     1      72.994  29.900  23.362  1.00  0.00     0.007 C
ENDBRANCH   8  11
ENDBRANCH   6   7
BRANCH   1  21
HETATM   21  C2  UNL     1      67.098  35.554  22.742  1.00  0.00     0.109 C
BRANCH  21  22
HETATM   22  C1  UNL     1      66.481  34.422  23.474  1.00  0.00     0.218 C
HETATM   23  O1  UNL     1      65.330  33.996  23.274  1.00  0.00    -0.274 OA
HETATM   24  N2  UNL     1      67.221  33.735  24.500  1.00  0.00    -0.356 N
ATOM     25  H2  UNL     1      68.175  34.025  24.718  1.00  0.00     0.162 HD
BRANCH  24  26
HETATM   26  C18 UNL     1      66.613  32.624  25.232  1.00  0.00     0.084 C
HETATM   27  C19 UNL     1      65.697  33.245  26.284  1.00  0.00     0.025 C
HETATM   28  C20 UNL     1      65.471  32.354  27.456  1.00  0.00     0.002 C
HETATM   29  C21 UNL     1      66.752  32.076  28.199  1.00  0.00     0.000 C
HETATM   30  C22 UNL     1      67.945  32.078  27.283  1.00  0.00     0.002 C
HETATM   31  C23 UNL     1      67.589  31.700  25.859  1.00  0.00     0.025 C
ENDBRANCH  24  26
ENDBRANCH  21  22
ENDBRANCH   1  21
TORSDOF 5
ENDMDL