MODEL 2
REMARK VINA RESULT: -7.938592359      1.326      1.638
REMARK  7 active torsions:
REMARK  status: ('A' for Active; 'I' for Inactive)
REMARK    1  A    between atoms: C2_2  and  C3_3
REMARK    2  A    between atoms: C3_3  and  C4_4
REMARK    3  A    between atoms: C4_4  and  C5_5
REMARK    4  A    between atoms: C5_5  and  C6_6
REMARK    5  A    between atoms: C11_12  and  O1_13
REMARK    6  A    between atoms: C19_23  and  C21_25
REMARK    7  A    between atoms: C21_25  and  O3_26
ROOT
HETATM    1  C6  UNL     1      71.611  34.081  26.265  1.00  0.00     0.111 C
HETATM    2  F1  UNL     1      71.924  34.111  27.645  1.00  0.00    -0.242 F
HETATM    3  C7  UNL     1      70.280  33.358  26.219  1.00  0.00     0.045 C
HETATM    4  C8  UNL     1      69.426  34.260  25.360  1.00  0.00     0.009 C
HETATM    5  C9  UNL     1      69.934  35.628  25.787  1.00  0.00     0.004 C
HETATM    6  C10 UNL     1      69.359  36.715  24.969  1.00  0.00     0.024 C
HETATM    7  C11 UNL     1      69.509  38.082  25.541  1.00  0.00     0.123 C
HETATM    8  C12 UNL     1      68.716  39.027  24.688  1.00  0.00     0.042 C
HETATM    9  C13 UNL     1      69.110  39.023  23.232  1.00  0.00    -0.021 C
HETATM   10  C14 UNL     1      70.476  39.727  23.171  1.00  0.00     0.017 C
HETATM   11  C15 UNL     1      69.197  37.655  22.629  1.00  0.00    -0.000 C
HETATM   12  C16 UNL     1      67.949  37.176  21.947  1.00  0.00     0.013 C
HETATM   13  C17 UNL     1      66.692  37.859  22.363  1.00  0.00     0.079 C
HETATM   14  C18 UNL     1      66.861  39.298  22.184  1.00  0.00     0.138 C
HETATM   15  O2  UNL     1      65.947  39.967  21.750  1.00  0.00    -0.297 OA
HETATM   16  C19 UNL     1      68.155  39.940  22.536  1.00  0.00     0.046 C
HETATM   17  C20 UNL     1      67.758  41.075  23.501  1.00  0.00     0.026 C
HETATM   18  C22 UNL     1      69.757  36.588  23.538  1.00  0.00    -0.003 C
HETATM   19  C23 UNL     1      71.209  36.332  23.307  1.00  0.00     0.006 C
HETATM   20  C24 UNL     1      72.010  35.746  24.384  1.00  0.00     0.013 C
HETATM   21  C25 UNL     1      71.440  35.446  25.696  1.00  0.00    -0.004 C
HETATM   22  C26 UNL     1      72.021  36.405  26.738  1.00  0.00     0.019 C
ENDROOT
BRANCH   1  23
HETATM   23  C5  UNL     1      72.658  33.198  25.684  1.00  0.00     0.044 C
BRANCH  23  24
HETATM   24  C4  UNL     1      72.205  31.775  25.461  1.00  0.00     0.007 C
BRANCH  24  25
HETATM   25  C3  UNL     1      73.318  30.850  25.083  1.00  0.00     0.026 C
BRANCH  25  26
HETATM   26  C2  UNL     1      72.772  29.550  24.668  1.00  0.00    -0.037 C
HETATM   27  C1  UNL     1      71.969  29.457  23.622  1.00  0.00     0.007 C
ENDBRANCH  25  26
ENDBRANCH  24  25
ENDBRANCH  23  24
ENDBRANCH   1  23
BRANCH   7  28
HETATM   28  O1  UNL     1      68.912  38.088  26.807  1.00  0.00    -0.395 OA
ATOM     29  H1  UNL     1      68.939  37.202  27.148  1.00  0.00     0.210 HD
ENDBRANCH   7  28
BRANCH  16  30
HETATM   30  C21 UNL     1      68.696  40.620  21.316  1.00  0.00     0.181 C
BRANCH  30  31
HETATM   31  O3  UNL     1      68.507  39.950  20.136  1.00  0.00    -0.400 OA
ATOM     32  H3  UNL     1      67.625  39.979  19.787  1.00  0.00     0.209 HD
ENDBRANCH  30  31
ENDBRANCH  16  30
TORSDOF 7
ENDMDL