MODEL 1
REMARK VINA RESULT: -6.569532603      0.000      0.000
REMARK  6 active torsions:
REMARK  status: ('A' for Active; 'I' for Inactive)
REMARK    1  A    between atoms: N1_8  and  O1_10
REMARK    2  A    between atoms: C18_22  and  O2_23
REMARK    3  A    between atoms: C18_22  and  C19_25
REMARK    4  A    between atoms: C19_25  and  C21_27
REMARK    5  A    between atoms: C21_27  and  C23_29
REMARK    6  A    between atoms: C24_31  and  C25_32
ROOT
HETATM    1  C1  UNL     1      66.710  38.530  24.505  1.00  0.00     0.044 C
HETATM    2  C2  UNL     1      68.159  38.572  24.762  1.00  0.00    -0.071 C
HETATM    3  C3  UNL     1      68.706  39.764  25.059  1.00  0.00    -0.023 C
HETATM    4  C4  UNL     1      70.042  40.266  25.376  1.00  0.00     0.033 C
HETATM    5  C5  UNL     1      71.069  39.356  26.019  1.00  0.00    -0.001 C
HETATM    6  C6  UNL     1      71.018  39.410  27.526  1.00  0.00     0.059 C
HETATM    7  C7  UNL     1      69.551  39.288  27.710  1.00  0.00     0.010 C
HETATM    8  N1  UNL     1      68.920  40.150  28.358  1.00  0.00    -0.277 N
ATOM      9  H1  UNL     1      67.911  40.053  28.477  1.00  0.00     0.193 HD
HETATM   10  C8  UNL     1      68.947  38.115  27.101  1.00  0.00     0.061 C
HETATM   11  C9  UNL     1      69.690  37.454  25.959  1.00  0.00     0.015 C
HETATM   12  C10 UNL     1      70.955  38.043  25.491  1.00  0.00    -0.004 C
HETATM   13  C11 UNL     1      71.821  36.875  25.411  1.00  0.00     0.006 C
HETATM   14  C12 UNL     1      71.165  35.547  25.251  1.00  0.00     0.013 C
HETATM   15  C13 UNL     1      69.930  35.113  24.668  1.00  0.00    -0.007 C
HETATM   16  C14 UNL     1      70.240  34.691  23.210  1.00  0.00     0.019 C
HETATM   17  C15 UNL     1      68.670  35.996  24.598  1.00  0.00     0.017 C
HETATM   18  C16 UNL     1      67.728  35.423  25.641  1.00  0.00     0.010 C
HETATM   19  C17 UNL     1      67.951  33.947  25.562  1.00  0.00     0.039 C
HETATM   20  C18 UNL     1      69.458  33.861  25.338  1.00  0.00     0.069 C
HETATM   21  C24 UNL     1      68.941  37.380  24.649  1.00  0.00     0.044 C
ENDROOT
BRANCH  20  22
HETATM   22  O2  UNL     1      69.938  33.744  26.693  1.00  0.00    -0.389 OA
ATOM     23  H2  UNL     1      69.272  33.964  27.335  1.00  0.00     0.210 HD
ENDBRANCH  20  22
BRANCH  20  24
HETATM   24  C19 UNL     1      69.780  32.502  24.840  1.00  0.00     0.027 C
HETATM   25  C20 UNL     1      68.547  31.571  25.131  1.00  0.00     0.014 C
BRANCH  24  26
HETATM   26  C21 UNL     1      70.885  31.750  25.529  1.00  0.00     0.050 C
HETATM   27  C22 UNL     1      71.019  30.309  25.161  1.00  0.00     0.017 C
BRANCH  26  28
HETATM   28  C23 UNL     1      72.223  32.380  25.200  1.00  0.00     0.235 C
HETATM   29  O3  UNL     1      72.901  32.840  26.088  1.00  0.00    -0.306 OA
ENDBRANCH  26  28
ENDBRANCH  24  26
ENDBRANCH  20  24
BRANCH  21  30
HETATM   30  C25 UNL     1      69.554  37.640  23.333  1.00  0.00     0.246 C
HETATM   31  O4  UNL     1      69.018  37.636  22.234  1.00  0.00    -0.306 OA
ENDBRANCH  21  30
BRANCH   8  32
HETATM   32  O1  UNL     1      69.567  41.224  28.912  1.00  0.00    -0.290 OA
ATOM     33  H1  UNL     1      69.081  41.903  29.366  1.00  0.00     0.244 HD
ENDBRANCH   8  32
TORSDOF 6
ENDMDL