MODEL 1
REMARK VINA RESULT: -8.398497764      0.000      0.000
REMARK  5 active torsions:
REMARK  status: ('A' for Active; 'I' for Inactive)
REMARK    1  A    between atoms: C2_2  and  C4_4
REMARK    2  A    between atoms: C6_6  and  C7_7
REMARK    3  A    between atoms: C7_7  and  O1_8
REMARK    4  A    between atoms: C7_7  and  N1_10
REMARK    5  A    between atoms: N1_10  and  N2_12
ROOT
HETATM    1  N2  UNL     1      67.736  33.967  25.261  1.00  0.00    -0.310 N
ATOM      2  H2  UNL     1      67.060  33.853  24.507  1.00  0.00     0.186 HD
HETATM    3  C8  UNL     1      68.400  35.052  25.278  1.00  0.00     0.015 C
HETATM    4  C9  UNL     1      69.427  35.403  26.286  1.00  0.00     0.068 C
HETATM    5  C10 UNL     1      70.178  36.590  25.732  1.00  0.00    -0.017 C
HETATM    6  C11 UNL     1      71.644  36.534  25.989  1.00  0.00     0.020 C
HETATM    7  C12 UNL     1      69.649  37.900  26.167  1.00  0.00    -0.020 C
HETATM    8  C13 UNL     1      68.423  38.223  25.838  1.00  0.00    -0.017 C
HETATM    9  C14 UNL     1      67.603  37.290  25.053  1.00  0.00     0.092 C
HETATM   10  C15 UNL     1      66.651  38.019  24.153  1.00  0.00     0.135 C
HETATM   11  O2  UNL     1      65.616  38.531  24.611  1.00  0.00    -0.297 OA
HETATM   12  C16 UNL     1      66.843  38.192  22.697  1.00  0.00     0.079 C
HETATM   13  C17 UNL     1      67.760  37.139  22.192  1.00  0.00     0.013 C
HETATM   14  C18 UNL     1      67.767  35.867  23.014  1.00  0.00    -0.003 C
HETATM   15  C19 UNL     1      66.421  35.236  23.103  1.00  0.00     0.011 C
HETATM   16  C20 UNL     1      68.357  36.219  24.359  1.00  0.00     0.021 C
HETATM   17  C21 UNL     1      69.850  36.467  24.232  1.00  0.00     0.009 C
HETATM   18  C22 UNL     1      70.588  35.275  23.740  1.00  0.00     0.012 C
ENDROOT
BRANCH   1  19
HETATM   19  N1  UNL     1      67.842  32.935  26.160  1.00  0.00    -0.305 N
ATOM     20  H1  UNL     1      67.267  32.961  27.002  1.00  0.00     0.183 HD
BRANCH  19  21
HETATM   21  C7  UNL     1      68.736  31.807  25.966  1.00  0.00     0.261 C
BRANCH  21  22
HETATM   22  C6  UNL     1      69.798  32.130  24.939  1.00  0.00     0.173 C
HETATM   23  C5  UNL     1      71.119  32.436  25.616  1.00  0.00     0.048 C
HETATM   24  C4  UNL     1      71.841  31.114  25.427  1.00  0.00     0.050 C
HETATM   25  C23 UNL     1      71.342  30.759  24.036  1.00  0.00     0.062 C
HETATM   26  O3  UNL     1      69.982  31.036  24.137  1.00  0.00    -0.370 OA
HETATM   27  C24 UNL     1      71.464  29.278  23.775  1.00  0.00     0.046 C
HETATM   28  C25 UNL     1      71.925  31.614  22.961  1.00  0.00     0.046 C
BRANCH  24  29
HETATM   29  C2  UNL     1      73.306  31.334  25.484  1.00  0.00    -0.086 C
HETATM   30  C1  UNL     1      73.771  32.439  26.032  1.00  0.00     0.014 C
HETATM   31  C3  UNL     1      74.274  30.348  24.934  1.00  0.00     0.043 C
ENDBRANCH  24  29
ENDBRANCH  21  22
BRANCH  21  32
HETATM   32  O1  UNL     1      68.002  30.711  25.522  1.00  0.00    -0.373 OA
ATOM     33  H1  UNL     1      67.932  30.082  26.230  1.00  0.00     0.212 HD
ENDBRANCH  21  32
ENDBRANCH  19  21
ENDBRANCH   1  19
TORSDOF 5
ENDMDL