MODEL 3
REMARK VINA RESULT: -6.345944362      3.061      7.533
REMARK  6 active torsions:
REMARK  status: ('A' for Active; 'I' for Inactive)
REMARK    1  A    between atoms: C2_2  and  C4_4
REMARK    2  A    between atoms: C4_4  and  C5_5
REMARK    3  A    between atoms: C4_4  and  C7_10
REMARK    4  A    between atoms: C5_5  and  C6_7
REMARK    5  A    between atoms: C6_7  and  O2_8
REMARK    6  A    between atoms: C15_20  and  O4_21
ROOT
HETATM    1  C7  UNL     1      70.242  35.844  25.490  1.00  0.00     0.109 C
HETATM    2  C8  UNL     1      70.043  36.273  24.120  1.00  0.00     0.195 C
HETATM    3  O3  UNL     1      69.784  35.721  23.120  1.00  0.00    -0.285 OA
HETATM    4  S1  UNL     1      70.296  38.071  24.203  1.00  0.00    -0.086 SA
HETATM    5  C9  UNL     1      70.882  38.093  25.958  1.00  0.00     0.069 C
HETATM    6  C10 UNL     1      71.887  39.154  26.111  1.00  0.00     0.009 C
HETATM    7  C11 UNL     1      71.782  39.988  27.366  1.00  0.00     0.033 C
HETATM    8  C12 UNL     1      72.569  41.219  27.088  1.00  0.00    -0.023 C
HETATM    9  C13 UNL     1      73.637  41.190  26.333  1.00  0.00    -0.072 C
HETATM   10  C14 UNL     1      74.373  42.461  26.100  1.00  0.00     0.066 C
HETATM   11  C15 UNL     1      75.819  42.252  26.487  1.00  0.00     0.122 C
HETATM   12  C16 UNL     1      76.394  40.968  25.981  1.00  0.00     0.033 C
HETATM   13  C17 UNL     1      75.555  39.757  26.276  1.00  0.00     0.016 C
HETATM   14  C18 UNL     1      74.142  39.960  25.704  1.00  0.00    -0.017 C
HETATM   15  C19 UNL     1      74.350  40.144  24.212  1.00  0.00     0.020 C
HETATM   16  C20 UNL     1      73.321  38.737  25.977  1.00  0.00     0.003 C
HETATM   17  C21 UNL     1      73.385  37.733  24.851  1.00  0.00     0.007 C
HETATM   18  C22 UNL     1      72.657  36.486  25.254  1.00  0.00     0.012 C
HETATM   19  C23 UNL     1      71.414  36.668  26.038  1.00  0.00    -0.016 C
HETATM   20  C24 UNL     1      71.543  36.328  27.501  1.00  0.00     0.018 C
ENDROOT
BRANCH   1  21
HETATM   21  C4  UNL     1      70.245  34.419  25.851  1.00  0.00    -0.012 C
BRANCH  21  22
HETATM   22  C2  UNL     1      71.015  33.427  25.101  1.00  0.00     0.011 C
HETATM   23  C1  UNL     1      72.255  32.943  25.859  1.00  0.00     0.014 C
HETATM   24  C3  UNL     1      70.266  32.121  24.783  1.00  0.00     0.014 C
ENDBRANCH  21  22
BRANCH  21  25
HETATM   25  C5  UNL     1      68.881  33.906  26.179  1.00  0.00     0.197 C
HETATM   26  O1  UNL     1      68.856  33.083  27.105  1.00  0.00    -0.286 OA
BRANCH  25  27
HETATM   27  C6  UNL     1      67.638  34.279  25.541  1.00  0.00     0.186 C
BRANCH  27  28
HETATM   28  O2  UNL     1      67.519  33.943  24.204  1.00  0.00    -0.369 OA
ATOM     29  H2  UNL     1      67.882  34.565  23.585  1.00  0.00     0.216 HD
ENDBRANCH  27  28
ENDBRANCH  25  27
ENDBRANCH  21  25
ENDBRANCH   1  21
BRANCH  11  30
HETATM   30  O4  UNL     1      76.541  43.308  25.917  1.00  0.00    -0.395 OA
ATOM     31  H4  UNL     1      77.099  43.654  26.602  1.00  0.00     0.210 HD
ENDBRANCH  11  30
TORSDOF 6
ENDMDL