MODEL 5
REMARK VINA RESULT: -7.916083101      1.992      7.943
REMARK  8 active torsions:
REMARK  status: ('A' for Active; 'I' for Inactive)
REMARK    1  A    between atoms: C2_2  and  C3_3
REMARK    2  A    between atoms: C6_6  and  O1_7
REMARK    3  A    between atoms: O1_7  and  C7_8
REMARK    4  A    between atoms: C7_8  and  C8_10
REMARK    5  A    between atoms: C8_10  and  C9_11
REMARK    6  A    between atoms: C9_11  and  C10_12
REMARK    7  A    between atoms: C10_12  and  O4_14
REMARK    8  A    between atoms: C20_24  and  O5_25
ROOT
HETATM    1  C3  UNL     1      68.765  32.884  25.425  1.00  0.00    -0.027 C
HETATM    2  C4  UNL     1      68.865  32.114  24.091  1.00  0.00     0.013 C
HETATM    3  C5  UNL     1      69.832  31.016  24.488  1.00  0.00     0.034 C
HETATM    4  C6  UNL     1      70.680  31.555  25.620  1.00  0.00     0.141 C
HETATM    5  C12 UNL     1      70.209  33.012  25.744  1.00  0.00    -0.009 C
HETATM    6  C13 UNL     1      70.564  33.492  27.100  1.00  0.00     0.018 C
HETATM    7  C14 UNL     1      70.982  33.776  24.699  1.00  0.00     0.013 C
HETATM    8  C15 UNL     1      70.308  35.029  24.254  1.00  0.00     0.006 C
HETATM    9  C16 UNL     1      68.841  34.932  24.045  1.00  0.00    -0.005 C
HETATM   10  C17 UNL     1      68.284  36.363  24.065  1.00  0.00     0.001 C
HETATM   11  C18 UNL     1      68.844  37.199  22.959  1.00  0.00     0.008 C
HETATM   12  C19 UNL     1      68.005  36.843  21.753  1.00  0.00     0.033 C
HETATM   13  C20 UNL     1      66.784  36.114  22.274  1.00  0.00     0.126 C
HETATM   14  C21 UNL     1      66.803  36.355  23.746  1.00  0.00    -0.014 C
HETATM   15  C22 UNL     1      66.287  37.754  24.029  1.00  0.00     0.018 C
HETATM   16  C23 UNL     1      66.026  35.377  24.554  1.00  0.00     0.012 C
HETATM   17  C24 UNL     1      66.687  34.021  24.696  1.00  0.00     0.007 C
HETATM   18  C25 UNL     1      68.100  34.195  25.136  1.00  0.00    -0.001 C
ENDROOT
BRANCH   4  19
HETATM   19  O1  UNL     1      72.043  31.552  25.260  1.00  0.00    -0.315 OA
BRANCH  19  20
HETATM   20  C7  UNL     1      72.671  30.462  24.674  1.00  0.00     0.259 C
HETATM   21  O2  UNL     1      72.225  29.327  24.976  1.00  0.00    -0.265 OA
BRANCH  20  22
HETATM   22  C8  UNL     1      73.812  30.602  23.735  1.00  0.00     0.121 C
BRANCH  22  23
HETATM   23  C9  UNL     1      75.075  30.292  24.470  1.00  0.00     0.121 C
BRANCH  23  24
HETATM   24  C10 UNL     1      76.273  30.346  23.616  1.00  0.00     0.258 C
HETATM   25  O3  UNL     1      76.290  29.729  22.522  1.00  0.00    -0.265 OA
BRANCH  24  26
HETATM   26  O4  UNL     1      77.386  31.059  23.990  1.00  0.00    -0.326 OA
HETATM   27  C11 UNL     1      78.080  31.960  23.181  1.00  0.00     0.213 C
ENDBRANCH  24  26
ENDBRANCH  23  24
ENDBRANCH  22  23
ENDBRANCH  20  22
ENDBRANCH  19  20
ENDBRANCH   4  19
BRANCH   1  28
HETATM   28  C2  UNL     1      68.031  31.994  26.343  1.00  0.00     0.006 C
HETATM   29  C1  UNL     1      67.339  32.604  27.503  1.00  0.00     0.006 C
ENDBRANCH   1  28
BRANCH  13  30
HETATM   30  O5  UNL     1      65.642  36.717  21.753  1.00  0.00    -0.395 OA
ATOM     31  H5  UNL     1      65.582  37.604  22.088  1.00  0.00     0.210 HD
ENDBRANCH  13  30
TORSDOF 8
ENDMDL