MODEL 1
REMARK VINA RESULT: -6.122198707      0.000      0.000
REMARK  6 active torsions:
REMARK  status: ('A' for Active; 'I' for Inactive)
REMARK    1  A    between atoms: O1_2  and  C2_3
REMARK    2  A    between atoms: C2_3  and  C3_4
REMARK    3  A    between atoms: C6_7  and  O2_8
REMARK    4  A    between atoms: C15_18  and  O3_19
REMARK    5  A    between atoms: C18_23  and  C20_25
REMARK    6  A    between atoms: C21_26  and  N1_27
ROOT
HETATM    1  C3  UNL     1      70.214  38.377  26.637  1.00  0.00    -0.012 C
HETATM    2  C4  UNL     1      71.185  37.394  27.309  1.00  0.00     0.018 C
HETATM    3  C5  UNL     1      71.192  39.535  26.290  1.00  0.00     0.044 C
HETATM    4  C6  UNL     1      72.321  39.131  25.423  1.00  0.00     0.122 C
HETATM    5  C7  UNL     1      71.888  38.328  24.197  1.00  0.00     0.066 C
HETATM    6  C8  UNL     1      70.864  37.342  24.631  1.00  0.00    -0.072 C
HETATM    7  C9  UNL     1      71.076  36.093  24.358  1.00  0.00    -0.000 C
HETATM    8  C10 UNL     1      70.446  34.796  24.538  1.00  0.00    -0.016 C
HETATM    9  C11 UNL     1      69.233  34.618  25.306  1.00  0.00    -0.016 C
HETATM   10  C12 UNL     1      69.600  33.933  26.627  1.00  0.00     0.020 C
HETATM   11  C13 UNL     1      68.365  33.567  24.603  1.00  0.00     0.022 C
HETATM   12  C14 UNL     1      68.801  32.156  24.831  1.00  0.00     0.014 C
HETATM   13  C15 UNL     1      67.037  33.782  25.276  1.00  0.00     0.123 C
HETATM   14  C16 UNL     1      66.943  35.296  25.380  1.00  0.00     0.039 C
HETATM   15  C17 UNL     1      68.379  35.760  25.678  1.00  0.00     0.013 C
HETATM   16  C18 UNL     1      68.544  37.087  25.071  1.00  0.00    -0.012 C
HETATM   17  C19 UNL     1      67.238  37.869  25.358  1.00  0.00     0.021 C
HETATM   18  C25 UNL     1      69.679  37.936  25.377  1.00  0.00     0.037 C
ENDROOT
BRANCH  16  19
HETATM   19  C20 UNL     1      68.506  36.975  23.584  1.00  0.00     0.001 C
HETATM   20  C21 UNL     1      67.728  37.754  22.873  1.00  0.00     0.094 C
BRANCH  20  21
HETATM   21  N1  UNL     1      67.671  37.670  21.452  1.00  0.00    -0.328 N
HETATM   22  C22 UNL     1      68.592  37.997  20.532  1.00  0.00     0.114 A
HETATM   23  C23 UNL     1      68.109  37.750  19.270  1.00  0.00     0.106 A
HETATM   24  N2  UNL     1      66.875  37.265  19.420  1.00  0.00    -0.360 N
HETATM   25  C24 UNL     1      66.620  37.220  20.765  1.00  0.00     0.187 A
ATOM     26  H2  UNL     1      66.241  36.981  18.674  1.00  0.00     0.166 HD
ENDBRANCH  20  21
ENDBRANCH  16  19
BRANCH   1  27
HETATM   27  C2  UNL     1      69.393  38.964  27.718  1.00  0.00     0.176 C
BRANCH  27  28
HETATM   28  O1  UNL     1      69.859  40.156  28.246  1.00  0.00    -0.395 OA
HETATM   29  C1  UNL     1      69.885  40.178  29.615  1.00  0.00     0.201 C
ENDBRANCH  27  28
ENDBRANCH   1  27
BRANCH  13  30
HETATM   30  O3  UNL     1      66.933  33.170  26.515  1.00  0.00    -0.395 OA
ATOM     31  H3  UNL     1      66.044  33.125  26.847  1.00  0.00     0.210 HD
ENDBRANCH  13  30
BRANCH   4  32
HETATM   32  O2  UNL     1      72.901  40.298  24.923  1.00  0.00    -0.395 OA
ATOM     33  H2  UNL     1      73.655  40.042  24.404  1.00  0.00     0.210 HD
ENDBRANCH   4  32
TORSDOF 6
ENDMDL