MODEL 2
REMARK VINA RESULT: -7.020729883      1.130      1.239
REMARK  7 active torsions:
REMARK  status: ('A' for Active; 'I' for Inactive)
REMARK    1  A    between atoms: C2_2  and  O2_4
REMARK    2  A    between atoms: O2_4  and  C3_5
REMARK    3  A    between atoms: C3_5  and  C5_7
REMARK    4  A    between atoms: C5_7  and  O3_8
REMARK    5  A    between atoms: N1_19  and  C15_21
REMARK    6  A    between atoms: C15_21  and  C16_22
REMARK    7  A    between atoms: C16_22  and  O4_23
ROOT
HETATM    1  C5  UNL     1      67.067  35.398  24.344  1.00  0.00     0.091 C
HETATM    2  C6  UNL     1      66.055  36.537  24.142  1.00  0.00     0.042 C
HETATM    3  C7  UNL     1      66.761  37.817  24.596  1.00  0.00     0.009 C
HETATM    4  C8  UNL     1      67.813  37.299  25.488  1.00  0.00     0.001 C
HETATM    5  C9  UNL     1      68.864  38.185  25.963  1.00  0.00    -0.005 C
HETATM    6  C10 UNL     1      68.776  39.632  25.469  1.00  0.00     0.006 C
HETATM    7  C11 UNL     1      70.087  40.344  25.717  1.00  0.00     0.006 C
HETATM    8  C12 UNL     1      70.787  39.778  26.936  1.00  0.00    -0.001 C
HETATM    9  C13 UNL     1      71.866  40.716  27.417  1.00  0.00     0.057 C
HETATM   10  C14 UNL     1      73.122  40.599  26.655  1.00  0.00    -0.018 C
HETATM   11  N1  UNL     1      74.030  41.462  26.787  1.00  0.00    -0.394 N
ATOM     12  H1  UNL     1      74.889  41.355  26.247  1.00  0.00     0.159 HD
HETATM   13  C17 UNL     1      73.279  39.446  25.736  1.00  0.00     0.053 C
HETATM   14  C18 UNL     1      72.616  38.198  26.234  1.00  0.00     0.015 C
HETATM   15  C19 UNL     1      71.232  38.375  26.747  1.00  0.00    -0.036 C
HETATM   16  C20 UNL     1      71.074  37.668  28.099  1.00  0.00     0.016 C
HETATM   17  C21 UNL     1      70.286  37.731  25.714  1.00  0.00    -0.002 C
HETATM   18  C22 UNL     1      70.494  36.267  25.771  1.00  0.00     0.007 C
HETATM   19  C23 UNL     1      69.300  35.405  25.534  1.00  0.00     0.013 C
HETATM   20  C24 UNL     1      68.291  36.075  24.699  1.00  0.00    -0.006 C
HETATM   21  C25 UNL     1      68.986  36.540  23.411  1.00  0.00     0.019 C
ENDROOT
BRANCH   1  22
HETATM   22  C3  UNL     1      66.441  34.390  25.206  1.00  0.00     0.163 C
HETATM   23  C4  UNL     1      64.907  34.370  25.159  1.00  0.00     0.043 C
BRANCH  22  24
HETATM   24  O2  UNL     1      66.856  33.079  25.147  1.00  0.00    -0.314 OA
BRANCH  24  25
HETATM   25  C2  UNL     1      67.586  32.388  26.104  1.00  0.00     0.255 C
HETATM   26  C1  UNL     1      68.379  31.170  25.776  1.00  0.00     0.126 C
HETATM   27  O1  UNL     1      67.554  32.836  27.279  1.00  0.00    -0.266 OA
ENDBRANCH  24  25
ENDBRANCH  22  24
ENDBRANCH   1  22
BRANCH   1  28
HETATM   28  O3  UNL     1      67.138  34.769  23.070  1.00  0.00    -0.386 OA
ATOM     29  H3  UNL     1      66.230  34.618  22.834  1.00  0.00     0.210 HD
ENDBRANCH   1  28
BRANCH  11  30
HETATM   30  C15 UNL     1      73.910  42.582  27.660  1.00  0.00     0.145 C
BRANCH  30  31
HETATM   31  C16 UNL     1      75.253  42.873  28.284  1.00  0.00     0.183 C
BRANCH  31  32
HETATM   32  O4  UNL     1      76.047  41.723  28.199  1.00  0.00    -0.399 OA
ATOM     33  H4  UNL     1      75.758  41.207  27.456  1.00  0.00     0.209 HD
ENDBRANCH  31  32
ENDBRANCH  30  31
ENDBRANCH  11  30
TORSDOF 7
ENDMDL