MODEL 2
REMARK VINA RESULT: -7.233922368      1.820      4.110
REMARK  6 active torsions:
REMARK  status: ('A' for Active; 'I' for Inactive)
REMARK    1  A    between atoms: C2_2  and  C3_3
REMARK    2  A    between atoms: C3_3  and  N1_6
REMARK       I    between atoms: N1_6  and  C6_8
REMARK    3  A    between atoms: C6_8  and  O2_10
REMARK    4  A    between atoms: O2_10  and  C7_11
REMARK    5  A    between atoms: C13_17  and  O3_18
REMARK    6  A    between atoms: C20_26  and  C21_27
ROOT
HETATM    1  C7  UNL     1      69.306  34.275  25.369  1.00  0.00     0.134 C
HETATM    2  C8  UNL     1      70.046  34.442  24.094  1.00  0.00     0.033 C
HETATM    3  C9  UNL     1      70.737  35.754  24.131  1.00  0.00     0.013 C
HETATM    4  C10 UNL     1      70.377  36.443  25.434  1.00  0.00    -0.025 C
HETATM    5  C11 UNL     1      69.809  35.318  26.306  1.00  0.00     0.043 C
HETATM    6  C12 UNL     1      69.215  37.320  25.168  1.00  0.00     0.029 C
HETATM    7  C13 UNL     1      69.157  38.511  24.386  1.00  0.00     0.131 C
HETATM    8  C14 UNL     1      68.193  39.085  25.446  1.00  0.00    -0.017 C
HETATM    9  C15 UNL     1      66.786  38.699  25.117  1.00  0.00     0.018 C
HETATM   10  C16 UNL     1      68.416  40.532  25.750  1.00  0.00     0.018 C
HETATM   11  C17 UNL     1      68.849  38.118  26.425  1.00  0.00     0.003 C
HETATM   12  C18 UNL     1      70.025  38.636  27.164  1.00  0.00     0.006 C
HETATM   13  C19 UNL     1      71.087  37.564  27.457  1.00  0.00     0.009 C
HETATM   14  C20 UNL     1      71.543  37.109  26.076  1.00  0.00     0.031 C
ENDROOT
BRANCH  14  15
HETATM   15  C21 UNL     1      72.838  36.422  26.021  1.00  0.00     0.088 A
HETATM   16  C22 UNL     1      73.109  35.074  26.636  1.00  0.00     0.049 C
HETATM   17  O4  UNL     1      73.869  37.351  26.591  1.00  0.00    -0.370 OA
HETATM   18  C23 UNL     1      74.007  36.992  25.259  1.00  0.00     0.153 A
HETATM   19  C24 UNL     1      73.807  38.143  24.306  1.00  0.00     0.042 C
ENDBRANCH  14  15
BRANCH   1  20
HETATM   20  O2  UNL     1      69.375  32.971  25.899  1.00  0.00    -0.299 OA
BRANCH  20  21
HETATM   21  C6  UNL     1      70.033  31.906  25.253  1.00  0.00     0.361 C
HETATM   22  N1  UNL     1      71.429  31.890  25.221  1.00  0.00    -0.328 N
ATOM     23  H1  UNL     1      71.857  32.697  25.675  1.00  0.00     0.165 HD
HETATM   24  O1  UNL     1      69.240  31.068  24.768  1.00  0.00    -0.238 OA
BRANCH  22  25
HETATM   25  C3  UNL     1      72.373  30.975  24.683  1.00  0.00     0.027 C
HETATM   26  C4  UNL     1      72.450  31.158  23.136  1.00  0.00     0.038 C
HETATM   27  C5  UNL     1      71.886  29.524  24.834  1.00  0.00     0.038 C
BRANCH  25  28
HETATM   28  C2  UNL     1      73.747  31.046  25.244  1.00  0.00     0.026 C
HETATM   29  C1  UNL     1      74.793  30.411  24.422  1.00  0.00     0.007 C
ENDBRANCH  25  28
ENDBRANCH  22  25
ENDBRANCH  20  21
ENDBRANCH   1  20
BRANCH   7  30
HETATM   30  O3  UNL     1      70.156  39.399  24.182  1.00  0.00    -0.394 OA
ATOM     31  H3  UNL     1      70.758  39.422  23.447  1.00  0.00     0.210 HD
ENDBRANCH   7  30
TORSDOF 6
ENDMDL