MODEL 3
REMARK VINA RESULT: -7.021046797      2.466      3.186
REMARK  6 active torsions:
REMARK  status: ('A' for Active; 'I' for Inactive)
REMARK    1  A    between atoms: C2_2  and  C3_3
REMARK    2  A    between atoms: C3_3  and  C4_4
REMARK    3  A    between atoms: C4_4  and  O2_6
REMARK    4  A    between atoms: O2_6  and  C5_7
REMARK    5  A    between atoms: C16_18  and  O3_19
REMARK    6  A    between atoms: C22_26  and  C24_28
ROOT
HETATM    1  C5  UNL     1      72.087  32.266  24.506  1.00  0.00     0.132 C
HETATM    2  C6  UNL     1      70.607  32.561  24.399  1.00  0.00     0.033 C
HETATM    3  C7  UNL     1      70.267  33.992  24.476  1.00  0.00     0.012 C
HETATM    4  C8  UNL     1      70.886  34.748  25.635  1.00  0.00    -0.036 C
HETATM    5  C9  UNL     1      70.066  34.330  26.860  1.00  0.00     0.016 C
HETATM    6  C10 UNL     1      72.307  34.328  25.752  1.00  0.00    -0.004 C
HETATM    7  C11 UNL     1      72.885  34.923  27.008  1.00  0.00     0.006 C
HETATM    8  C12 UNL     1      72.882  36.387  26.880  1.00  0.00     0.006 C
HETATM    9  C13 UNL     1      72.063  36.983  25.774  1.00  0.00    -0.005 C
HETATM   10  C14 UNL     1      70.821  36.237  25.415  1.00  0.00     0.001 C
HETATM   11  C15 UNL     1      69.583  36.819  26.059  1.00  0.00     0.038 C
HETATM   12  C16 UNL     1      69.395  38.268  25.864  1.00  0.00     0.128 C
HETATM   13  C17 UNL     1      70.624  39.025  25.472  1.00  0.00     0.002 C
HETATM   14  C18 UNL     1      70.807  39.012  23.963  1.00  0.00     0.019 C
HETATM   15  C19 UNL     1      71.766  38.402  26.197  1.00  0.00     0.002 C
HETATM   16  C20 UNL     1      72.878  39.347  26.019  1.00  0.00     0.007 C
HETATM   17  C21 UNL     1      72.229  40.667  25.714  1.00  0.00     0.020 C
HETATM   18  C22 UNL     1      70.713  40.433  25.888  1.00  0.00     0.045 C
HETATM   19  C23 UNL     1      70.074  41.400  24.884  1.00  0.00     0.026 C
HETATM   20  C25 UNL     1      72.527  32.841  25.836  1.00  0.00     0.038 C
ENDROOT
BRANCH   1  21
HETATM   21  O2  UNL     1      72.243  30.862  24.468  1.00  0.00    -0.316 OA
BRANCH  21  22
HETATM   22  C4  UNL     1      73.334  30.294  23.825  1.00  0.00     0.259 C
HETATM   23  O1  UNL     1      73.120  29.745  22.714  1.00  0.00    -0.265 OA
BRANCH  22  24
HETATM   24  C3  UNL     1      74.705  30.327  24.412  1.00  0.00     0.111 C
BRANCH  24  25
HETATM   25  C2  UNL     1      75.692  30.612  23.303  1.00  0.00     0.005 C
HETATM   26  C1  UNL     1      76.920  29.761  23.416  1.00  0.00     0.005 C
ENDBRANCH  24  25
ENDBRANCH  22  24
ENDBRANCH  21  22
ENDBRANCH   1  21
BRANCH  12  27
HETATM   27  O3  UNL     1      68.830  38.785  27.025  1.00  0.00    -0.395 OA
ATOM     28  H3  UNL     1      68.864  38.110  27.692  1.00  0.00     0.210 HD
ENDBRANCH  12  27
BRANCH  18  29
HETATM   29  C24 UNL     1      70.276  40.846  27.205  1.00  0.00     0.240 C
HETATM   30  N1  UNL     1      70.799  40.426  28.457  1.00  0.00    -0.061 NA
HETATM   31  O4  UNL     1      69.313  41.686  27.330  1.00  0.00    -0.276 OA
ENDBRANCH  18  29
TORSDOF 6
ENDMDL