MODEL 2
REMARK VINA RESULT: -7.147787647      1.713      2.475
REMARK  7 active torsions:
REMARK  status: ('A' for Active; 'I' for Inactive)
REMARK    1  A    between atoms: C2_2  and  O2_4
REMARK    2  A    between atoms: O2_4  and  C3_5
REMARK    3  A    between atoms: C5_7  and  C6_8
REMARK    4  A    between atoms: C6_8  and  C7_9
REMARK    5  A    between atoms: C7_9  and  O3_10
REMARK    6  A    between atoms: C14_18  and  O4_20
REMARK    7  A    between atoms: C16_22  and  C17_23
ROOT
HETATM    1  C3  UNL     1      69.371  31.275  25.310  1.00  0.00     0.060 C
HETATM    2  C4  UNL     1      69.425  32.579  25.502  1.00  0.00    -0.041 C
HETATM    3  C5  UNL     1      70.101  33.898  25.307  1.00  0.00     0.025 C
HETATM    4  C8  UNL     1      69.005  34.893  25.369  1.00  0.00     0.011 C
HETATM    5  C9  UNL     1      67.741  34.065  25.341  1.00  0.00    -0.032 C
HETATM    6  C10 UNL     1      67.419  33.460  24.013  1.00  0.00     0.016 C
HETATM    7  C11 UNL     1      66.576  34.873  25.843  1.00  0.00     0.011 C
HETATM    8  C12 UNL     1      66.511  36.120  24.943  1.00  0.00     0.009 C
HETATM    9  C13 UNL     1      67.784  36.876  24.939  1.00  0.00     0.029 C
HETATM   10  C14 UNL     1      67.662  38.184  24.212  1.00  0.00     0.069 C
HETATM   11  C15 UNL     1      66.404  38.861  24.671  1.00  0.00     0.047 C
HETATM   12  C16 UNL     1      68.852  39.024  24.398  1.00  0.00     0.089 C
HETATM   13  C19 UNL     1      70.165  38.295  24.245  1.00  0.00     0.016 C
HETATM   14  C20 UNL     1      70.201  36.945  24.857  1.00  0.00     0.011 C
HETATM   15  C21 UNL     1      68.998  36.066  24.490  1.00  0.00    -0.033 C
HETATM   16  C22 UNL     1      69.080  35.828  23.037  1.00  0.00     0.016 C
HETATM   17  C23 UNL     1      68.194  32.976  26.293  1.00  0.00     0.026 C
HETATM   18  C24 UNL     1      67.336  31.803  26.403  1.00  0.00     0.016 C
HETATM   19  C25 UNL     1      68.174  30.666  25.957  1.00  0.00     0.066 C
ENDROOT
BRANCH   1  20
HETATM   20  O2  UNL     1      70.348  30.574  24.574  1.00  0.00    -0.283 OA
BRANCH  20  21
HETATM   21  C2  UNL     1      71.630  31.019  24.382  1.00  0.00     0.259 C
HETATM   22  C1  UNL     1      72.040  31.684  23.106  1.00  0.00     0.126 C
HETATM   23  O1  UNL     1      72.509  30.889  25.265  1.00  0.00    -0.265 OA
ENDBRANCH  20  21
ENDBRANCH   1  20
BRANCH   3  24
HETATM   24  C6  UNL     1      71.076  34.037  26.451  1.00  0.00     0.035 C
BRANCH  24  25
HETATM   25  C7  UNL     1      72.441  34.357  25.960  1.00  0.00     0.165 C
BRANCH  25  26
HETATM   26  O3  UNL     1      73.386  33.401  26.379  1.00  0.00    -0.401 OA
ATOM     27  H3  UNL     1      73.872  33.694  27.140  1.00  0.00     0.209 HD
ENDBRANCH  25  26
ENDBRANCH  24  25
ENDBRANCH   3  24
BRANCH  10  28
HETATM   28  O4  UNL     1      67.428  37.900  22.830  1.00  0.00    -0.389 OA
ATOM     29  H4  UNL     1      66.886  37.122  22.777  1.00  0.00     0.210 HD
ENDBRANCH  10  28
BRANCH  12  30
HETATM   30  C17 UNL     1      68.857  39.834  25.618  1.00  0.00     0.130 C
HETATM   31  C18 UNL     1      69.033  39.396  27.015  1.00  0.00     0.091 C
HETATM   32  O5  UNL     1      68.691  41.048  25.466  1.00  0.00    -0.298 OA
ENDBRANCH  12  30
TORSDOF 7
ENDMDL