MODEL 3
REMARK VINA RESULT: -6.853912486      0.753      1.393
REMARK  6 active torsions:
REMARK  status: ('A' for Active; 'I' for Inactive)
REMARK    1  A    between atoms: C2_2  and  C3_4
REMARK    2  A    between atoms: C3_4  and  C4_5
REMARK    3  A    between atoms: C3_4  and  C26_30
REMARK    4  A    between atoms: C5_6  and  C6_7
REMARK    5  A    between atoms: C6_7  and  O2_8
REMARK    6  A    between atoms: C26_30  and  O4_31
ROOT
HETATM    1  C6  UNL     1      70.426  39.589  27.759  1.00  0.00     0.076 C
HETATM    2  C7  UNL     1      69.221  39.905  26.873  1.00  0.00     0.043 C
HETATM    3  C8  UNL     1      69.538  39.408  25.498  1.00  0.00     0.012 C
HETATM    4  C9  UNL     1      69.432  37.876  25.534  1.00  0.00    -0.040 C
HETATM    5  C10 UNL     1      67.949  37.573  25.718  1.00  0.00     0.015 C
HETATM    6  C11 UNL     1      69.926  37.393  24.214  1.00  0.00     0.010 C
HETATM    7  C12 UNL     1      70.043  35.901  24.085  1.00  0.00     0.007 C
HETATM    8  C13 UNL     1      70.174  35.203  25.406  1.00  0.00     0.003 C
HETATM    9  C14 UNL     1      70.883  36.042  26.446  1.00  0.00    -0.001 C
HETATM   10  C15 UNL     1      72.342  36.139  26.056  1.00  0.00     0.033 C
HETATM   11  C16 UNL     1      72.881  34.760  26.174  1.00  0.00    -0.022 C
HETATM   12  C17 UNL     1      72.151  33.728  25.856  1.00  0.00    -0.068 C
HETATM   13  C18 UNL     1      72.730  32.371  25.990  1.00  0.00     0.113 C
HETATM   14  C19 UNL     1      72.490  31.678  24.697  1.00  0.00     0.130 C
HETATM   15  O3  UNL     1      73.377  31.020  24.201  1.00  0.00    -0.298 OA
HETATM   16  C20 UNL     1      71.193  31.793  24.030  1.00  0.00     0.079 C
HETATM   17  C21 UNL     1      70.653  33.201  23.980  1.00  0.00     0.021 C
HETATM   18  C22 UNL     1      70.770  33.843  25.366  1.00  0.00    -0.016 C
HETATM   19  C23 UNL     1      69.943  32.896  26.260  1.00  0.00     0.020 C
HETATM   20  C24 UNL     1      70.234  37.355  26.703  1.00  0.00     0.001 C
HETATM   21  C25 UNL     1      71.215  38.420  27.153  1.00  0.00     0.048 C
ENDROOT
BRANCH   1  22
HETATM   22  C5  UNL     1      71.261  40.816  27.808  1.00  0.00     0.007 C
HETATM   23  C4  UNL     1      72.446  40.899  27.204  1.00  0.00    -0.014 C
BRANCH  23  24
HETATM   24  C3  UNL     1      73.303  42.085  27.224  1.00  0.00     0.101 C
BRANCH  24  25
HETATM   25  C2  UNL     1      72.945  42.961  26.088  1.00  0.00     0.132 C
HETATM   26  C1  UNL     1      72.822  42.321  24.744  1.00  0.00     0.091 C
HETATM   27  O1  UNL     1      72.748  44.150  26.174  1.00  0.00    -0.298 OA
ENDBRANCH  24  25
BRANCH  24  28
HETATM   28  C26 UNL     1      74.776  41.756  27.258  1.00  0.00     0.180 C
BRANCH  28  29
HETATM   29  O4  UNL     1      75.015  40.397  27.163  1.00  0.00    -0.400 OA
ATOM     30  H4  UNL     1      75.602  40.182  26.447  1.00  0.00     0.209 HD
ENDBRANCH  28  29
ENDBRANCH  24  28
ENDBRANCH  23  24
ENDBRANCH   1  22
BRANCH   1  31
HETATM   31  O2  UNL     1      69.968  39.273  29.022  1.00  0.00    -0.386 OA
ATOM     32  H2  UNL     1      70.479  38.560  29.388  1.00  0.00     0.211 HD
ENDBRANCH   1  31
TORSDOF 6
ENDMDL