MODEL 5
REMARK VINA RESULT: -8.096355172      2.437      5.605
REMARK  5 active torsions:
REMARK  status: ('A' for Active; 'I' for Inactive)
REMARK    1  A    between atoms: C2_2  and  O1_3
REMARK    2  A    between atoms: O1_3  and  C3_4
REMARK    3  A    between atoms: C8_9  and  O2_10
REMARK    4  A    between atoms: C13_15  and  O3_16
REMARK    5  A    between atoms: C13_15  and  C14_18
ROOT
HETATM    1  C3  UNL     1      72.479  33.864  26.324  1.00  0.00     0.102 A
HETATM    2  C4  UNL     1      71.129  33.642  26.454  1.00  0.00     0.050 A
HETATM    3  C5  UNL     1      70.468  32.543  25.917  1.00  0.00    -0.015 A
HETATM    4  C6  UNL     1      71.190  31.610  25.211  1.00  0.00    -0.046 A
HETATM    5  C7  UNL     1      72.559  31.832  25.078  1.00  0.00     0.047 A
HETATM    6  C8  UNL     1      73.198  32.922  25.615  1.00  0.00     0.102 A
HETATM    7  C10 UNL     1      70.576  30.381  24.594  1.00  0.00     0.039 C
HETATM    8  C11 UNL     1      69.102  30.507  24.498  1.00  0.00     0.008 C
HETATM    9  C12 UNL     1      68.460  31.113  25.722  1.00  0.00     0.043 C
HETATM   10  C13 UNL     1      68.982  32.426  26.137  1.00  0.00     0.089 C
ENDROOT
BRANCH  10  11
HETATM   11  O3  UNL     1      68.810  32.540  27.528  1.00  0.00    -0.385 OA
ATOM     12  H3  UNL     1      68.560  31.670  27.817  1.00  0.00     0.211 HD
ENDBRANCH  10  11
BRANCH  10  13
HETATM   13  C14 UNL     1      68.255  33.636  25.563  1.00  0.00     0.028 C
HETATM   14  C15 UNL     1      67.030  33.177  24.850  1.00  0.00     0.008 C
HETATM   15  C16 UNL     1      66.009  34.256  24.615  1.00  0.00     0.001 C
HETATM   16  C17 UNL     1      65.668  34.353  23.150  1.00  0.00     0.000 C
HETATM   17  C18 UNL     1      66.606  35.120  22.311  1.00  0.00     0.004 C
HETATM   18  C19 UNL     1      67.798  35.715  22.997  1.00  0.00    -0.018 C
HETATM   19  C20 UNL     1      68.385  36.713  21.978  1.00  0.00     0.010 C
HETATM   20  C21 UNL     1      68.851  34.742  23.365  1.00  0.00     0.009 C
HETATM   21  C22 UNL     1      69.129  34.588  24.835  1.00  0.00    -0.011 C
HETATM   22  C23 UNL     1      69.284  35.933  25.531  1.00  0.00     0.010 C
ENDBRANCH  10  13
BRANCH   1  23
HETATM   23  O1  UNL     1      73.107  34.983  26.880  1.00  0.00    -0.349 OA
BRANCH  23  24
HETATM   24  C2  UNL     1      72.878  36.227  26.267  1.00  0.00     0.171 C
HETATM   25  C1  UNL     1      73.980  36.614  25.310  1.00  0.00     0.034 C
ENDBRANCH  23  24
ENDBRANCH   1  23
BRANCH   6  26
HETATM   26  O2  UNL     1      74.570  33.104  25.457  1.00  0.00    -0.353 OA
HETATM   27  C9  UNL     1      75.193  33.035  24.188  1.00  0.00     0.210 C
ENDBRANCH   6  26
TORSDOF 5
ENDMDL