MODEL 5
REMARK VINA RESULT: -6.463775969      0.384      2.499
REMARK  9 active torsions:
REMARK  status: ('A' for Active; 'I' for Inactive)
REMARK    1  A    between atoms: C3_5  and  O1_6
REMARK    2  A    between atoms: C4_8  and  N2_9
REMARK    3  A    between atoms: N3_11  and  C5_13
REMARK    4  A    between atoms: C5_13  and  N4_15
REMARK    5  A    between atoms: N4_15  and  C6_16
REMARK    6  A    between atoms: N4_15  and  C10_20
REMARK    7  A    between atoms: C10_20  and  C13_23
REMARK    8  A    between atoms: C16_26  and  C17_27
REMARK    9  A    between atoms: C17_27  and  O2_29
ROOT
HETATM    1  N2  UNL     1      73.870  32.966  26.560  1.00  0.00    -0.294 N
ATOM      2  H2  UNL     1      74.389  32.686  27.392  1.00  0.00     0.187 HD
HETATM    3  N3  UNL     1      73.333  32.052  25.944  1.00  0.00    -0.276 N
ATOM      4  H3  UNL     1      73.462  31.116  26.329  1.00  0.00     0.189 HD
ENDROOT
BRANCH   1   5
HETATM    5  C4  UNL     1      73.873  34.361  26.283  1.00  0.00     0.100 A
HETATM    6  C3  UNL     1      74.829  34.946  25.606  1.00  0.00     0.169 A
HETATM    7  N1  UNL     1      74.814  36.325  25.344  1.00  0.00    -0.335 N
HETATM    8  C2  UNL     1      73.720  37.163  25.824  1.00  0.00     0.037 A
ATOM      9  H1  UNL     1      75.576  36.745  24.813  1.00  0.00     0.168 HD
HETATM   10  C1  UNL     1      73.770  38.433  25.545  1.00  0.00     0.044 C
HETATM   11  C16 UNL     1      72.677  36.488  26.571  1.00  0.00     0.021 A
HETATM   12  C15 UNL     1      72.778  35.151  26.774  1.00  0.00     0.051 A
BRANCH   6  13
HETATM   13  O1  UNL     1      75.900  34.202  25.122  1.00  0.00    -0.344 OA
ATOM     14  H1  UNL     1      75.716  33.505  24.504  1.00  0.00     0.219 HD
ENDBRANCH   6  13
BRANCH  11  15
HETATM   15  C17 UNL     1      71.535  37.138  27.117  1.00  0.00     0.052 C
HETATM   16  C18 UNL     1      70.343  37.623  26.427  1.00  0.00     0.077 C
BRANCH  15  17
HETATM   17  O2  UNL     1      71.570  37.320  28.409  1.00  0.00    -0.364 OA
ATOM     18  H2  UNL     1      71.273  38.173  28.701  1.00  0.00     0.217 HD
ENDBRANCH  15  17
ENDBRANCH  11  15
ENDBRANCH   1   5
BRANCH   3  19
HETATM   19  C5  UNL     1      72.552  32.137  24.760  1.00  0.00     0.190 C
HETATM   20  S1  UNL     1      73.307  32.486  23.341  1.00  0.00    -0.039 SA
BRANCH  19  21
HETATM   21  N4  UNL     1      71.121  31.910  24.742  1.00  0.00    -0.340 N
BRANCH  21  22
HETATM   22  C6  UNL     1      70.316  33.068  24.899  1.00  0.00     0.025 C
HETATM   23  C7  UNL     1      70.257  33.387  26.407  1.00  0.00     0.037 C
HETATM   24  C8  UNL     1      68.866  32.986  24.503  1.00  0.00     0.037 C
HETATM   25  C9  UNL     1      70.960  34.258  24.216  1.00  0.00     0.037 C
ENDBRANCH  21  22
BRANCH  21  26
HETATM   26  C10 UNL     1      70.742  30.538  24.568  1.00  0.00     0.028 C
HETATM   27  C11 UNL     1      69.499  30.231  25.420  1.00  0.00     0.038 C
HETATM   28  C12 UNL     1      71.741  29.498  25.040  1.00  0.00     0.038 C
BRANCH  26  29
HETATM   29  C13 UNL     1      70.435  30.255  23.139  1.00  0.00     0.026 C
HETATM   30  C14 UNL     1      71.384  29.230  22.537  1.00  0.00     0.007 C
ENDBRANCH  26  29
ENDBRANCH  21  26
ENDBRANCH  19  21
ENDBRANCH   3  19
TORSDOF 9
ENDMDL