MODEL 3
REMARK VINA RESULT: -8.084815572      2.236      4.660
REMARK  7 active torsions:
REMARK  status: ('A' for Active; 'I' for Inactive)
REMARK    1  A    between atoms: C3_3  and  C4_4
REMARK    2  A    between atoms: C4_4  and  O2_6
REMARK    3  A    between atoms: O2_6  and  C5_7
REMARK    4  A    between atoms: C6_8  and  C7_9
REMARK    5  A    between atoms: C7_9  and  C8_10
REMARK    6  A    between atoms: C15_17  and  O3_18
REMARK    7  A    between atoms: C16_20  and  O4_21
ROOT
HETATM    1  C5  UNL     1      70.594  33.109  25.271  1.00  0.00     0.144 C
HETATM    2  C6  UNL     1      70.147  34.497  24.899  1.00  0.00     0.020 C
HETATM    3  C12 UNL     1      70.911  35.390  25.865  1.00  0.00     0.019 C
HETATM    4  C13 UNL     1      72.362  35.341  25.567  1.00  0.00    -0.011 C
HETATM    5  C14 UNL     1      72.671  36.643  24.800  1.00  0.00     0.018 C
HETATM    6  C15 UNL     1      73.098  35.527  26.903  1.00  0.00     0.155 C
HETATM    7  C16 UNL     1      74.545  35.815  26.662  1.00  0.00     0.147 C
HETATM    8  C17 UNL     1      75.135  34.847  25.669  1.00  0.00     0.035 C
HETATM    9  C18 UNL     1      74.222  33.700  25.376  1.00  0.00     0.009 C
HETATM   10  C19 UNL     1      72.863  34.172  24.833  1.00  0.00     0.007 C
HETATM   11  C20 UNL     1      72.012  32.983  24.705  1.00  0.00    -0.016 C
HETATM   12  C21 UNL     1      71.815  32.546  23.256  1.00  0.00     0.018 C
HETATM   13  C22 UNL     1      72.590  31.750  25.417  1.00  0.00     0.018 C
ENDROOT
BRANCH   1  14
HETATM   14  O2  UNL     1      69.785  32.123  24.661  1.00  0.00    -0.311 OA
BRANCH  14  15
HETATM   15  C4  UNL     1      69.116  31.112  25.289  1.00  0.00     0.282 C
HETATM   16  O1  UNL     1      69.658  29.977  25.319  1.00  0.00    -0.260 OA
BRANCH  15  17
HETATM   17  C3  UNL     1      67.799  31.337  25.915  1.00  0.00     0.077 C
HETATM   18  C2  UNL     1      67.740  31.838  27.123  1.00  0.00    -0.025 C
HETATM   19  C1  UNL     1      66.432  32.075  27.775  1.00  0.00     0.036 C
ENDBRANCH  15  17
ENDBRANCH  14  15
ENDBRANCH   1  14
BRANCH   2  20
HETATM   20  C7  UNL     1      68.672  34.732  24.971  1.00  0.00     0.034 C
BRANCH  20  21
HETATM   21  C8  UNL     1      67.972  34.835  23.695  1.00  0.00    -0.024 C
HETATM   22  C9  UNL     1      66.664  34.591  23.568  1.00  0.00    -0.091 C
HETATM   23  C10 UNL     1      66.019  34.716  22.231  1.00  0.00     0.042 C
HETATM   24  C11 UNL     1      65.808  34.196  24.708  1.00  0.00     0.042 C
ENDBRANCH  20  21
ENDBRANCH   2  20
BRANCH   6  25
HETATM   25  O3  UNL     1      72.844  34.515  27.789  1.00  0.00    -0.392 OA
ATOM     26  H3  UNL     1      73.186  33.678  27.496  1.00  0.00     0.210 HD
ENDBRANCH   6  25
BRANCH   7  27
HETATM   27  O4  UNL     1      75.225  35.820  27.867  1.00  0.00    -0.393 OA
ATOM     28  H4  UNL     1      76.158  35.892  27.707  1.00  0.00     0.210 HD
ENDBRANCH   7  27
TORSDOF 7
ENDMDL