MODEL 5
REMARK VINA RESULT: -7.605832069      3.224      6.683
REMARK  6 active torsions:
REMARK  status: ('A' for Active; 'I' for Inactive)
REMARK    1  A    between atoms: C12_12  and  O1_13
REMARK    2  A    between atoms: C12_12  and  C13_15
REMARK    3  A    between atoms: C13_15  and  C14_16
REMARK    4  A    between atoms: C14_16  and  C15_17
REMARK    5  A    between atoms: C15_17  and  O2_18
REMARK    6  A    between atoms: O2_18  and  C16_19
ROOT
HETATM    1  C1  UNL     1      71.908  35.906  28.377  1.00  0.00     0.015 C
HETATM    2  C2  UNL     1      72.833  35.796  27.469  1.00  0.00    -0.084 C
HETATM    3  C3  UNL     1      73.938  34.828  27.895  1.00  0.00     0.034 C
HETATM    4  C4  UNL     1      73.712  33.631  26.969  1.00  0.00     0.013 C
HETATM    5  C5  UNL     1      73.758  34.060  25.545  1.00  0.00    -0.043 C
HETATM    6  C6  UNL     1      73.340  32.852  24.696  1.00  0.00     0.015 C
HETATM    7  C7  UNL     1      75.211  34.329  25.175  1.00  0.00     0.015 C
HETATM    8  C8  UNL     1      72.873  35.196  25.165  1.00  0.00     0.002 C
HETATM    9  C9  UNL     1      71.435  34.772  25.198  1.00  0.00     0.006 C
HETATM   10  C10 UNL     1      70.460  35.900  25.207  1.00  0.00     0.009 C
HETATM   11  C11 UNL     1      71.109  37.242  24.847  1.00  0.00     0.029 C
HETATM   12  C12 UNL     1      70.105  38.329  24.692  1.00  0.00     0.062 C
HETATM   13  C18 UNL     1      70.487  39.613  25.385  1.00  0.00     0.038 C
HETATM   14  C19 UNL     1      70.852  39.267  26.804  1.00  0.00     0.004 C
HETATM   15  C20 UNL     1      72.211  38.623  26.690  1.00  0.00     0.010 C
HETATM   16  C21 UNL     1      72.339  37.557  25.660  1.00  0.00    -0.030 C
HETATM   17  C22 UNL     1      73.332  38.178  24.624  1.00  0.00     0.016 C
HETATM   18  C23 UNL     1      73.042  36.356  26.160  1.00  0.00     0.027 C
ENDROOT
BRANCH  12  19
HETATM   19  O1  UNL     1      70.014  38.732  23.325  1.00  0.00    -0.389 OA
ATOM     20  H1  UNL     1      69.864  37.978  22.767  1.00  0.00     0.210 HD
ENDBRANCH  12  19
BRANCH  12  21
HETATM   21  C13 UNL     1      68.721  37.981  25.080  1.00  0.00     0.040 C
BRANCH  21  22
HETATM   22  C14 UNL     1      67.625  38.889  24.596  1.00  0.00     0.030 C
BRANCH  22  23
HETATM   23  C15 UNL     1      66.620  38.083  23.742  1.00  0.00     0.178 C
BRANCH  23  24
HETATM   24  O2  UNL     1      67.123  38.103  22.416  1.00  0.00    -0.322 OA
BRANCH  24  25
HETATM   25  C16 UNL     1      67.398  36.930  21.728  1.00  0.00     0.254 C
HETATM   26  C17 UNL     1      66.382  36.230  20.923  1.00  0.00     0.126 C
HETATM   27  O3  UNL     1      68.594  36.497  21.839  1.00  0.00    -0.266 OA
ENDBRANCH  24  25
ENDBRANCH  23  24
ENDBRANCH  22  23
ENDBRANCH  21  22
ENDBRANCH  12  21
TORSDOF 6
ENDMDL