MODEL 2
REMARK VINA RESULT: -8.663843690      2.050      4.978
REMARK  8 active torsions:
REMARK  status: ('A' for Active; 'I' for Inactive)
REMARK    1  A    between atoms: C2_2  and  C3_3
REMARK    2  A    between atoms: C8_8  and  O1_9
REMARK    3  A    between atoms: N1_11  and  C9_12
REMARK    4  A    between atoms: C13_16  and  O2_17
REMARK    5  A    between atoms: N2_19  and  C14_20
REMARK    6  A    between atoms: C14_20  and  O3_21
REMARK    7  A    between atoms: C14_20  and  C15_23
REMARK    8  A    between atoms: C15_23  and  C16_24
ROOT
HETATM    1  C3  UNL     1      66.103  32.638  25.483  1.00  0.00     0.070 C
HETATM    2  C4  UNL     1      65.806  33.791  24.769  1.00  0.00    -0.172 C
HETATM    3  C5  UNL     1      65.728  35.076  24.147  1.00  0.00     0.125 C
HETATM    4  C6  UNL     1      67.004  35.795  24.653  1.00  0.00     0.034 A
HETATM    5  C7  UNL     1      68.092  35.223  25.292  1.00  0.00     0.099 A
HETATM    6  C8  UNL     1      68.954  36.259  25.584  1.00  0.00     0.173 A
HETATM    7  N1  UNL     1      68.408  37.395  25.140  1.00  0.00    -0.301 N
HETATM    8  C13 UNL     1      67.201  37.141  24.558  1.00  0.00     0.154 A
HETATM    9  N2  UNL     1      68.310  33.846  25.622  1.00  0.00    -0.326 N
HETATM   10  C22 UNL     1      67.461  32.853  26.226  1.00  0.00     0.147 C
ENDROOT
BRANCH   9  11
HETATM   11  C14 UNL     1      69.558  33.358  25.215  1.00  0.00     0.118 C
BRANCH  11  12
HETATM   12  O3  UNL     1      69.963  33.865  24.083  1.00  0.00    -0.349 OA
ATOM     13  H3  UNL     1      70.858  34.180  24.113  1.00  0.00     0.219 HD
ENDBRANCH  11  12
BRANCH  11  14
HETATM   14  C15 UNL     1      70.452  32.400  25.869  1.00  0.00     0.088 C
BRANCH  14  15
HETATM   15  C16 UNL     1      71.474  31.832  24.891  1.00  0.00    -0.007 C
HETATM   16  C17 UNL     1      71.176  30.434  24.463  1.00  0.00     0.005 C
HETATM   17  C18 UNL     1      72.369  29.513  24.598  1.00  0.00     0.000 C
HETATM   18  C19 UNL     1      73.629  30.137  24.047  1.00  0.00     0.000 C
HETATM   19  C20 UNL     1      73.880  31.523  24.538  1.00  0.00     0.000 C
HETATM   20  C21 UNL     1      72.838  31.981  25.514  1.00  0.00     0.005 C
ENDBRANCH  14  15
ENDBRANCH  11  14
ENDBRANCH   9  11
BRANCH   6  21
HETATM   21  O1  UNL     1      70.154  36.105  26.231  1.00  0.00    -0.344 OA
ATOM     22  H1  UNL     1      70.996  36.067  25.792  1.00  0.00     0.219 HD
ENDBRANCH   6  21
BRANCH   1  23
HETATM   23  C2  UNL     1      65.115  32.267  26.614  1.00  0.00     0.013 C
HETATM   24  C1  UNL     1      65.919  32.087  27.850  1.00  0.00     0.006 C
ENDBRANCH   1  23
BRANCH   8  25
HETATM   25  O2  UNL     1      66.357  38.097  23.987  1.00  0.00    -0.345 OA
ATOM     26  H2  UNL     1      65.620  37.957  23.404  1.00  0.00     0.219 HD
ENDBRANCH   8  25
BRANCH   7  27
HETATM   27  C9  UNL     1      68.964  38.713  25.233  1.00  0.00     0.094 C
HETATM   28  C10 UNL     1      70.447  38.814  24.965  1.00  0.00     0.026 C
HETATM   29  C11 UNL     1      70.507  39.786  26.152  1.00  0.00     0.004 C
HETATM   30  C12 UNL     1      69.268  39.056  26.675  1.00  0.00     0.026 C
ENDBRANCH   7  27
TORSDOF 8
ENDMDL