MODEL 3
REMARK VINA RESULT: -8.367847565      2.989      7.938
REMARK  6 active torsions:
REMARK  status: ('A' for Active; 'I' for Inactive)
REMARK    1  A    between atoms: C4_4  and  C5_5
REMARK    2  A    between atoms: C5_5  and  C6_6
REMARK    3  A    between atoms: C12_14  and  C14_16
REMARK    4  A    between atoms: C14_16  and  S1_17
REMARK    5  A    between atoms: S1_17  and  C15_18
REMARK    6  A    between atoms: C19_22  and  O3_23
ROOT
HETATM    1  C6  UNL     1      69.293  31.897  25.791  1.00  0.00    -0.017 A
HETATM    2  C7  UNL     1      70.232  31.100  25.163  1.00  0.00     0.021 A
HETATM    3  C8  UNL     1      71.410  31.626  24.679  1.00  0.00    -0.015 A
HETATM    4  C9  UNL     1      71.719  32.963  24.790  1.00  0.00     0.113 A
HETATM    5  C10 UNL     1      70.781  33.780  25.421  1.00  0.00     0.144 A
HETATM    6  C11 UNL     1      69.576  33.239  25.916  1.00  0.00     0.119 A
HETATM    7  O1  UNL     1      69.873  34.623  26.042  1.00  0.00    -0.301 OA
HETATM    8  O2  UNL     1      72.910  33.418  24.282  1.00  0.00    -0.334 OA
HETATM    9  C12 UNL     1      74.081  32.609  24.446  1.00  0.00     0.099 C
HETATM   10  C13 UNL     1      74.628  33.042  25.784  1.00  0.00     0.050 C
HETATM   11  C19 UNL     1      73.826  31.148  24.464  1.00  0.00     0.161 C
HETATM   12  C20 UNL     1      72.430  30.775  24.015  1.00  0.00     0.049 C
HETATM   13  C21 UNL     1      72.149  29.339  24.387  1.00  0.00     0.018 C
ENDROOT
BRANCH   9  14
HETATM   14  C14 UNL     1      74.967  33.017  23.287  1.00  0.00     0.115 C
BRANCH  14  15
HETATM   15  S1  UNL     1      75.685  31.805  22.271  1.00  0.00    -0.157 SA
BRANCH  15  16
HETATM   16  C15 UNL     1      77.114  30.902  22.722  1.00  0.00    -0.003 C
HETATM   17  C16 UNL     1      76.982  29.459  23.045  1.00  0.00     0.026 C
HETATM   18  C17 UNL     1      77.889  31.546  23.884  1.00  0.00     0.026 C
HETATM   19  C18 UNL     1      78.108  30.991  21.543  1.00  0.00     0.026 C
ENDBRANCH  15  16
ENDBRANCH  14  15
ENDBRANCH   9  14
BRANCH  11  20
HETATM   20  O3  UNL     1      74.061  30.510  25.670  1.00  0.00    -0.392 OA
ATOM     21  H3  UNL     1      73.360  29.951  25.986  1.00  0.00     0.210 HD
ENDBRANCH  11  20
BRANCH   1  22
HETATM   22  C5  UNL     1      68.014  31.347  26.317  1.00  0.00     0.068 C
BRANCH  22  23
HETATM   23  C4  UNL     1      66.882  32.073  25.723  1.00  0.00    -0.020 C
HETATM   24  C2  UNL     1      65.858  32.467  26.454  1.00  0.00    -0.091 C
HETATM   25  C1  UNL     1      64.728  33.200  25.817  1.00  0.00     0.042 C
HETATM   26  C3  UNL     1      65.865  32.164  27.908  1.00  0.00     0.042 C
ENDBRANCH  22  23
ENDBRANCH   1  22
TORSDOF 6
ENDMDL