MODEL 4
REMARK VINA RESULT: -8.745040624      2.875      6.916
REMARK  7 active torsions:
REMARK  status: ('A' for Active; 'I' for Inactive)
REMARK    1  A    between atoms: C2_2  and  O1_3
REMARK    2  A    between atoms: C2_2  and  C3_5
REMARK    3  A    between atoms: C2_2  and  C17_21
REMARK    4  A    between atoms: C3_5  and  O2_6
REMARK    5  A    between atoms: O2_6  and  C4_7
REMARK    6  A    between atoms: C4_7  and  C5_9
REMARK    7  A    between atoms: C22_26  and  N1_27
ROOT
HETATM    1  C3  UNL     1      69.250  37.356  24.599  1.00  0.00     0.216 C
ENDROOT
BRANCH   1   2
HETATM    2  C2  UNL     1      67.799  37.299  24.292  1.00  0.00     0.082 C
HETATM    3  C1  UNL     1      67.024  38.551  24.301  1.00  0.00     0.049 C
BRANCH   2   4
HETATM    4  O1  UNL     1      67.234  36.405  25.238  1.00  0.00    -0.388 OA
ATOM      5  H1  UNL     1      66.308  36.600  25.329  1.00  0.00     0.210 HD
ENDBRANCH   2   4
BRANCH   2   6
HETATM    6  C17 UNL     1      67.695  36.553  22.955  1.00  0.00     0.052 C
HETATM    7  C18 UNL     1      66.789  37.286  21.978  1.00  0.00     0.010 C
HETATM    8  C19 UNL     1      66.689  36.400  20.726  1.00  0.00     0.001 C
HETATM    9  C20 UNL     1      65.758  35.274  21.080  1.00  0.00     0.002 C
HETATM   10  C21 UNL     1      65.995  34.775  22.462  1.00  0.00     0.033 C
HETATM   11  C22 UNL     1      67.350  35.124  23.041  1.00  0.00     0.190 C
BRANCH  11  12
HETATM   12  N1  UNL     1      67.447  34.525  24.330  1.00  0.00    -0.075 N
ATOM     13  H13 UNL     1      66.571  34.653  24.835  1.00  0.00     0.274 HD
ATOM     14  H12 UNL     1      67.461  33.509  24.236  1.00  0.00     0.274 HD
ATOM     15  H11 UNL     1      68.229  34.827  24.912  1.00  0.00     0.274 HD
ENDBRANCH  11  12
ENDBRANCH   2   6
ENDBRANCH   1   2
BRANCH   1  16
HETATM   16  O2  UNL     1      70.046  36.266  24.476  1.00  0.00    -0.318 OA
BRANCH  16  17
HETATM   17  C4  UNL     1      71.300  35.915  24.794  1.00  0.00     0.263 C
HETATM   18  O3  UNL     1      72.175  36.807  24.740  1.00  0.00    -0.265 OA
BRANCH  17  19
HETATM   19  C5  UNL     1      71.747  34.547  25.209  1.00  0.00     0.085 C
HETATM   20  C6  UNL     1      70.734  34.089  26.229  1.00  0.00     0.014 C
HETATM   21  C7  UNL     1      70.341  32.640  26.088  1.00  0.00     0.001 C
HETATM   22  C8  UNL     1      69.774  32.256  24.782  1.00  0.00     0.000 C
HETATM   23  C9  UNL     1      70.525  31.187  24.021  1.00  0.00     0.000 C
HETATM   24  C10 UNL     1      70.920  30.001  24.804  1.00  0.00     0.000 C
HETATM   25  C11 UNL     1      72.230  29.398  24.528  1.00  0.00     0.000 C
HETATM   26  C12 UNL     1      73.368  30.267  24.164  1.00  0.00     0.000 C
HETATM   27  C13 UNL     1      73.962  31.056  25.302  1.00  0.00     0.000 C
HETATM   28  C14 UNL     1      74.131  32.532  24.951  1.00  0.00     0.000 C
HETATM   29  C15 UNL     1      73.839  33.440  26.099  1.00  0.00     0.001 C
HETATM   30  C16 UNL     1      73.131  34.698  25.758  1.00  0.00     0.014 C
ENDBRANCH  17  19
ENDBRANCH  16  17
ENDBRANCH   1  16
TORSDOF 7
ENDMDL