MODEL 1
REMARK VINA RESULT: -8.530843029      0.000      0.000
REMARK  5 active torsions:
REMARK  status: ('A' for Active; 'I' for Inactive)
REMARK       I    between atoms: N1_2  and  C2_4
REMARK    1  A    between atoms: C2_4  and  C3_6
REMARK    2  A    between atoms: C5_9  and  C6_10
REMARK    3  A    between atoms: C10_14  and  N2_15
REMARK       I    between atoms: N2_15  and  C11_17
REMARK    4  A    between atoms: C11_17  and  C12_19
REMARK    5  A    between atoms: C15_22  and  C16_23
ROOT
HETATM    1  C3  UNL     1      70.888  37.230  26.890  1.00  0.00     0.099 A
HETATM    2  S1  UNL     1      70.800  38.914  26.662  1.00  0.00    -0.094 SA
HETATM    3  C4  UNL     1      69.531  38.963  25.531  1.00  0.00     0.060 A
HETATM    4  C5  UNL     1      69.200  37.643  25.352  1.00  0.00    -0.016 A
HETATM    5  C10 UNL     1      69.913  36.731  26.070  1.00  0.00     0.065 A
ENDROOT
BRANCH   5   6
HETATM    6  N2  UNL     1      69.708  35.285  25.988  1.00  0.00    -0.319 N
HETATM    7  C11 UNL     1      70.539  34.428  25.259  1.00  0.00     0.280 C
HETATM    8  O2  UNL     1      71.516  34.888  24.623  1.00  0.00    -0.265 OA
ATOM      9  H2  UNL     1      68.917  34.880  26.490  1.00  0.00     0.169 HD
BRANCH   7  10
HETATM   10  C12 UNL     1      70.306  32.983  25.210  1.00  0.00     0.143 A
HETATM   11  C13 UNL     1      69.107  32.324  25.479  1.00  0.00     0.045 A
HETATM   12  C14 UNL     1      69.319  30.973  25.318  1.00  0.00     0.036 A
HETATM   13  C15 UNL     1      70.641  30.872  24.957  1.00  0.00     0.058 A
HETATM   14  O3  UNL     1      71.166  32.049  24.908  1.00  0.00    -0.309 OA
BRANCH  13  15
HETATM   15  C16 UNL     1      71.361  29.580  24.664  1.00  0.00     0.043 C
HETATM   16  C17 UNL     1      71.266  29.194  23.198  1.00  0.00     0.011 C
HETATM   17  C18 UNL     1      72.589  29.896  22.990  1.00  0.00     0.002 C
HETATM   18  C19 UNL     1      72.847  29.734  24.483  1.00  0.00     0.011 C
ENDBRANCH  13  15
ENDBRANCH   7  10
ENDBRANCH   5   6
BRANCH   1  19
HETATM   19  C2  UNL     1      71.825  36.481  27.751  1.00  0.00     0.260 C
HETATM   20  N1  UNL     1      73.010  35.990  27.151  1.00  0.00    -0.361 N
HETATM   21  C1  UNL     1      73.997  35.245  27.900  1.00  0.00     0.149 C
ATOM     22  H1  UNL     1      73.173  36.168  26.160  1.00  0.00     0.162 HD
HETATM   23  O1  UNL     1      71.586  36.298  28.926  1.00  0.00    -0.267 OA
ENDBRANCH   1  19
BRANCH   4  24
HETATM   24  C6  UNL     1      68.101  37.285  24.361  1.00  0.00    -0.021 C
HETATM   25  C7  UNL     1      67.174  38.492  24.192  1.00  0.00     0.019 C
HETATM   26  C8  UNL     1      67.314  36.083  24.777  1.00  0.00     0.019 C
HETATM   27  C9  UNL     1      68.689  37.004  22.995  1.00  0.00     0.019 C
ENDBRANCH   4  24
TORSDOF 5
ENDMDL