MODEL 4
REMARK VINA RESULT: -8.129385251      4.553      6.552
REMARK  5 active torsions:
REMARK  status: ('A' for Active; 'I' for Inactive)
REMARK    1  A    between atoms: C2_2  and  O1_3
REMARK    2  A    between atoms: O1_3  and  C3_4
REMARK    3  A    between atoms: C3_4  and  C4_6
REMARK    4  A    between atoms: C5_7  and  N1_8
REMARK       I    between atoms: N1_8  and  C6_10
REMARK       I    between atoms: C6_10  and  N2_12
REMARK    5  A    between atoms: N2_12  and  C7_14
ROOT
HETATM    1  N1  UNL     1      72.023  34.707  26.523  1.00  0.00    -0.302 N
ATOM      2  H1  UNL     1      72.211  34.867  27.513  1.00  0.00     0.171 HD
HETATM    3  C6  UNL     1      71.987  35.782  25.603  1.00  0.00     0.321 C
HETATM    4  O3  UNL     1      71.757  35.610  24.372  1.00  0.00    -0.247 OA
HETATM    5  N2  UNL     1      72.210  37.106  26.037  1.00  0.00    -0.337 N
ATOM      6  H2  UNL     1      72.397  37.275  27.026  1.00  0.00     0.164 HD
ENDROOT
BRANCH   1   7
HETATM    7  C5  UNL     1      71.786  33.381  26.019  1.00  0.00     0.095 A
HETATM    8  C4  UNL     1      70.645  32.652  25.879  1.00  0.00     0.080 A
HETATM    9  C18 UNL     1      70.776  31.399  25.354  1.00  0.00    -0.030 A
HETATM   10  C16 UNL     1      72.030  30.992  25.018  1.00  0.00    -0.012 A
HETATM   11  C19 UNL     1      69.599  30.450  25.134  1.00  0.00     0.050 C
HETATM   12  S1  UNL     1      73.014  32.309  25.417  1.00  0.00    -0.076 SA
HETATM   13  C17 UNL     1      72.441  29.659  24.421  1.00  0.00     0.057 C
BRANCH   8  14
HETATM   14  C3  UNL     1      69.315  33.212  26.284  1.00  0.00     0.296 C
HETATM   15  O2  UNL     1      68.591  32.652  27.120  1.00  0.00    -0.259 OA
BRANCH  14  16
HETATM   16  O1  UNL     1      68.817  34.385  25.750  1.00  0.00    -0.318 OA
BRANCH  16  17
HETATM   17  C2  UNL     1      68.322  34.564  24.453  1.00  0.00     0.174 C
HETATM   18  C1  UNL     1      67.011  33.924  24.163  1.00  0.00     0.034 C
ENDBRANCH  16  17
ENDBRANCH  14  16
ENDBRANCH   8  14
ENDBRANCH   1   7
BRANCH   5  19
HETATM   19  C7  UNL     1      72.184  38.236  25.128  1.00  0.00     0.095 C
HETATM   20  C8  UNL     1      71.071  39.167  25.570  1.00  0.00     0.031 C
HETATM   21  C9  UNL     1      71.775  40.465  25.921  1.00  0.00    -0.008 C
HETATM   22  C10 UNL     1      72.254  41.073  24.636  1.00  0.00     0.006 C
HETATM   23  C14 UNL     1      73.096  39.903  26.471  1.00  0.00    -0.004 C
HETATM   24  C11 UNL     1      73.350  40.125  24.158  1.00  0.00     0.012 C
HETATM   25  C12 UNL     1      73.435  39.080  25.220  1.00  0.00    -0.020 C
HETATM   26  C13 UNL     1      74.689  38.331  25.311  1.00  0.00     0.018 C
HETATM   27  C15 UNL     1      74.100  40.972  26.730  1.00  0.00     0.011 C
ENDBRANCH   5  19
TORSDOF 5
ENDMDL