MODEL 1
REMARK VINA RESULT: -7.842047495      0.000      0.000
REMARK  7 active torsions:
REMARK  status: ('A' for Active; 'I' for Inactive)
REMARK    1  A    between atoms: C2_2  and  C5_5
REMARK    2  A    between atoms: C7_8  and  C8_9
REMARK    3  A    between atoms: C8_9  and  N1_10
REMARK    4  A    between atoms: N1_10  and  N2_12
REMARK       I    between atoms: N2_12  and  C9_13
REMARK    5  A    between atoms: N2_12  and  C16_23
REMARK       I    between atoms: C9_13  and  N3_15
REMARK    6  A    between atoms: N3_15  and  C10_17
REMARK    7  A    between atoms: C19_26  and  O2_27
ROOT
HETATM    1  N1  UNL     1      71.002  36.216  24.555  1.00  0.00    -0.304 N
ATOM      2  H1  UNL     1      70.880  36.314  23.547  1.00  0.00     0.186 HD
ENDROOT
BRANCH   1   3
HETATM    3  C8  UNL     1      70.006  36.377  25.321  1.00  0.00     0.122 C
BRANCH   3   4
HETATM    4  C7  UNL     1      68.789  35.521  25.198  1.00  0.00     0.021 A
HETATM    5  C6  UNL     1      67.681  35.989  24.545  1.00  0.00     0.066 A
HETATM    6  S1  UNL     1      66.580  34.702  24.657  1.00  0.00    -0.102 SA
HETATM    7  C5  UNL     1      67.535  33.596  25.524  1.00  0.00     0.024 A
HETATM    8  C19 UNL     1      68.712  34.269  25.710  1.00  0.00     0.091 A
BRANCH   7   9
HETATM    9  C2  UNL     1      67.152  32.220  25.969  1.00  0.00    -0.015 C
HETATM   10  C1  UNL     1      65.645  32.137  25.930  1.00  0.00     0.020 C
HETATM   11  C3  UNL     1      67.638  31.981  27.355  1.00  0.00     0.020 C
HETATM   12  C4  UNL     1      67.785  31.239  24.996  1.00  0.00     0.020 C
ENDBRANCH   7   9
BRANCH   8  13
HETATM   13  O2  UNL     1      69.802  33.669  26.414  1.00  0.00    -0.359 OA
ATOM     14  H2  UNL     1      70.144  34.056  27.211  1.00  0.00     0.217 HD
ENDBRANCH   8  13
ENDBRANCH   3   4
ENDBRANCH   1   3
BRANCH   1  15
HETATM   15  N2  UNL     1      72.262  35.908  25.066  1.00  0.00    -0.238 N
HETATM   16  C9  UNL     1      72.711  34.559  24.909  1.00  0.00     0.337 C
HETATM   17  O1  UNL     1      73.831  34.177  25.335  1.00  0.00    -0.245 OA
HETATM   18  N3  UNL     1      71.911  33.584  24.262  1.00  0.00    -0.337 N
ATOM     19  H3  UNL     1      70.995  33.849  23.900  1.00  0.00     0.164 HD
BRANCH  18  20
HETATM   20  C10 UNL     1      72.360  32.238  24.106  1.00  0.00     0.086 C
HETATM   21  C11 UNL     1      71.299  31.215  24.436  1.00  0.00     0.025 C
HETATM   22  C12 UNL     1      71.997  29.892  24.672  1.00  0.00     0.002 C
HETATM   23  C13 UNL     1      73.204  29.834  23.783  1.00  0.00     0.000 C
HETATM   24  C14 UNL     1      73.017  30.557  22.475  1.00  0.00     0.002 C
HETATM   25  C15 UNL     1      72.721  32.016  22.633  1.00  0.00     0.025 C
ENDBRANCH  18  20
BRANCH  15  26
HETATM   26  C16 UNL     1      73.044  36.912  25.709  1.00  0.00     0.113 A
HETATM   27  C17 UNL     1      74.232  37.522  25.007  1.00  0.00     0.029 A
HETATM   28  C18 UNL     1      73.011  38.342  25.370  1.00  0.00     0.029 A
ENDBRANCH  15  26
ENDBRANCH   1  15
TORSDOF 7
ENDMDL