MODEL 5
REMARK VINA RESULT: -9.077302739      2.153      8.450
REMARK  14 active torsions:
REMARK  status: ('A' for Active; 'I' for Inactive)
REMARK    1  A    between atoms: C2_2  and  O1_3
REMARK    2  A    between atoms: O1_3  and  C3_4
REMARK    3  A    between atoms: C3_4  and  C4_6
REMARK       I    between atoms: C4_6  and  N1_8
REMARK    4  A    between atoms: N1_8  and  N2_10
REMARK    5  A    between atoms: N2_10  and  C6_12
REMARK    6  A    between atoms: C7_15  and  N4_16
REMARK    7  A    between atoms: N4_16  and  N5_18
REMARK    8  A    between atoms: N5_18  and  C8_20
REMARK    9  A    between atoms: C8_20  and  C9_21
REMARK   10  A    between atoms: C10_26  and  N8_27
REMARK   11  A    between atoms: C11_32  and  O4_33
REMARK   12  A    between atoms: N10_35  and  N11_36
REMARK   13  A    between atoms: N11_36  and  C12_38
REMARK   14  A    between atoms: C12_38  and  O5_42
ROOT
HETATM    1  C6  UNL     1     -13.811  -5.831 -32.645  1.00  0.00     0.730 A
HETATM    2  N3  UNL     1     -12.568  -6.246 -32.353  1.00  0.00    -0.015 N
ATOM      3  H3  UNL     1     -11.853  -5.694 -31.880  1.00  0.00     0.203 HD
HETATM    4  C7  UNL     1     -12.422  -7.506 -32.786  1.00  0.00     0.748 A
HETATM    5  N10 UNL     1     -13.595  -7.900 -33.363  1.00  0.00    -0.001 N
HETATM    6  N13 UNL     1     -14.400  -6.870 -33.260  1.00  0.00    -0.093 N
ATOM      7  H13 UNL     1     -15.360  -6.860 -33.606  1.00  0.00     0.208 HD
ENDROOT
BRANCH   4   8
HETATM    8  N4  UNL     1     -11.354  -8.204 -32.666  1.00  0.00    -0.129 N
ATOM      9  H4  UNL     1     -10.618  -8.132 -33.369  1.00  0.00     0.205 HD
BRANCH   8  10
HETATM   10  N5  UNL     1     -11.197  -9.054 -31.587  1.00  0.00    -0.295 N
ATOM     11  H5  UNL     1     -10.500  -9.798 -31.628  1.00  0.00     0.186 HD
BRANCH  10  12
HETATM   12  C8  UNL     1     -11.927  -8.915 -30.519  1.00  0.00     0.143 C
BRANCH  12  13
HETATM   13  C9  UNL     1     -12.718 -10.017 -30.006  1.00  0.00     0.116 A
HETATM   14  N6  UNL     1     -13.746 -10.470 -30.732  1.00  0.00    -0.281 N
HETATM   15  N7  UNL     1     -14.499 -11.457 -30.329  1.00  0.00    -0.132 N
ATOM     16  H6  UNL     1     -13.947 -10.031 -31.630  1.00  0.00     0.188 HD
HETATM   17  C10 UNL     1     -14.268 -12.062 -29.155  1.00  0.00     0.692 A
ATOM     18  H7  UNL     1     -15.273 -11.771 -30.915  1.00  0.00     0.205 HD
HETATM   19  N9  UNL     1     -13.229 -11.619 -28.397  1.00  0.00    -0.167 N
HETATM   20  C11 UNL     1     -12.437 -10.603 -28.791  1.00  0.00     0.185 A
ATOM     21  H9  UNL     1     -13.043 -12.072 -27.502  1.00  0.00     0.186 HD
BRANCH  17  22
HETATM   22  N8  UNL     1     -15.013 -13.028 -28.768  1.00  0.00    -0.233 N
ATOM     23  H82 UNL     1     -15.048 -13.911 -29.277  1.00  0.00     0.174 HD
ATOM     24  H81 UNL     1     -15.591 -12.930 -27.933  1.00  0.00     0.174 HD
ENDBRANCH  17  22
BRANCH  20  25
HETATM   25  O4  UNL     1     -11.373 -10.134 -28.039  1.00  0.00    -0.344 OA
ATOM     26  H4  UNL     1     -10.712 -10.743 -27.736  1.00  0.00     0.219 HD
ENDBRANCH  20  25
ENDBRANCH  12  13
ENDBRANCH  10  12
ENDBRANCH   8  10
ENDBRANCH   4   8
BRANCH   5  27
HETATM   27  N11 UNL     1     -13.829  -9.159 -33.934  1.00  0.00    -0.229 N
ATOM     28  H11 UNL     1     -13.607 -10.004 -33.407  1.00  0.00     0.193 HD
BRANCH  27  29
HETATM   29  C12 UNL     1     -14.370  -9.265 -35.232  1.00  0.00     0.231 C
HETATM   30  N12 UNL     1     -13.833  -8.673 -36.244  1.00  0.00    -0.364 N
ATOM     31 2H12 UNL     1     -12.993  -8.119 -36.076  1.00  0.00     0.159 HD
ATOM     32 1H12 UNL     1     -14.224  -8.749 -37.183  1.00  0.00     0.159 HD
BRANCH  29  33
HETATM   33  O5  UNL     1     -15.513 -10.019 -35.461  1.00  0.00    -0.332 OA
ATOM     34  H5  UNL     1     -15.982  -9.947 -36.284  1.00  0.00     0.221 HD
ENDBRANCH  29  33
ENDBRANCH  27  29
ENDBRANCH   5  27
BRANCH   1  35
HETATM   35  N2  UNL     1     -14.403  -4.543 -32.364  1.00  0.00    -0.123 N
HETATM   36  C5  UNL     1     -14.644  -4.164 -30.987  1.00  0.00     0.197 C
BRANCH  35  37
HETATM   37  N1  UNL     1     -14.737  -3.676 -33.410  1.00  0.00    -0.245 N
HETATM   38  C4  UNL     1     -15.986  -3.780 -34.057  1.00  0.00     0.335 C
HETATM   39  O3  UNL     1     -16.831  -4.641 -33.722  1.00  0.00    -0.260 OA
ATOM     40  H1  UNL     1     -14.072  -2.962 -33.707  1.00  0.00     0.191 HD
BRANCH  38  41
HETATM   41  C3  UNL     1     -16.304  -2.866 -35.141  1.00  0.00     0.353 C
HETATM   42  O2  UNL     1     -17.474  -2.756 -35.605  1.00  0.00    -0.254 OA
BRANCH  41  43
HETATM   43  O1  UNL     1     -15.320  -2.090 -35.691  1.00  0.00    -0.314 OA
BRANCH  43  44
HETATM   44  C2  UNL     1     -15.280  -1.765 -37.072  1.00  0.00     0.175 C
HETATM   45  C1  UNL     1     -14.384  -2.776 -37.746  1.00  0.00     0.034 C
ENDBRANCH  43  44
ENDBRANCH  41  43
ENDBRANCH  38  41
ENDBRANCH  35  37
ENDBRANCH   1  35
TORSDOF 14
ENDMDL