MODEL 1
REMARK VINA RESULT: -9.010050053      0.000      0.000
REMARK  9 active torsions:
REMARK  status: ('A' for Active; 'I' for Inactive)
REMARK       I    between atoms: C1_4  and  N2_5
REMARK       I    between atoms: C1_4  and  N4_10
REMARK    1  A    between atoms: N2_5  and  N3_7
REMARK    2  A    between atoms: N4_10  and  C2_11
REMARK       I    between atoms: N4_10  and  C4_17
REMARK    3  A    between atoms: C2_11  and  C3_12
REMARK    4  A    between atoms: C3_12  and  N5_13
REMARK       I    between atoms: C4_17  and  N6_18
REMARK       I    between atoms: C4_17  and  N10_29
REMARK    5  A    between atoms: N6_18  and  C5_19
REMARK    6  A    between atoms: C6_25  and  N9_26
REMARK    7  A    between atoms: N10_29  and  C7_31
REMARK    8  A    between atoms: C8_32  and  O6_33
REMARK    9  A    between atoms: N13_41  and  N14_42
ROOT
HETATM    1  N1  UNL     1     -10.876  -9.682 -33.529  1.00  0.00    -0.233 N
ATOM      2  H11 UNL     1     -11.697 -10.270 -33.387  1.00  0.00     0.174 HD
ATOM      3  H12 UNL     1     -10.045 -10.040 -34.001  1.00  0.00     0.174 HD
HETATM    4  C1  UNL     1     -10.969  -8.480 -33.077  1.00  0.00     0.701 C
HETATM    5  N2  UNL     1      -9.828  -7.664 -33.274  1.00  0.00    -0.072 N
ATOM      6  H2  UNL     1      -9.954  -6.720 -33.637  1.00  0.00     0.212 HD
HETATM    7  N4  UNL     1     -12.123  -7.983 -32.422  1.00  0.00    -0.138 N
HETATM    8  C4  UNL     1     -13.265  -8.888 -32.351  1.00  0.00     0.275 C
HETATM    9  N6  UNL     1     -13.309  -9.578 -31.372  1.00  0.00    -0.346 NA
HETATM   10  N10 UNL     1     -14.193  -8.854 -33.411  1.00  0.00    -0.322 N
ATOM     11  H10 UNL     1     -15.149  -9.070 -33.130  1.00  0.00     0.166 HD
ENDROOT
BRANCH   7  12
HETATM   12  C2  UNL     1     -12.197  -6.679 -31.802  1.00  0.00     0.179 C
BRANCH  12  13
HETATM   13  C3  UNL     1     -13.561  -6.042 -31.977  1.00  0.00     0.250 C
BRANCH  13  14
HETATM   14  N5  UNL     1     -13.474  -4.730 -32.584  1.00  0.00    -0.078 N
ATOM     15  H53 UNL     1     -12.509  -4.401 -32.617  1.00  0.00     0.274 HD
ATOM     16  H52 UNL     1     -13.664  -4.772 -33.585  1.00  0.00     0.274 HD
ATOM     17  H51 UNL     1     -14.079  -4.053 -32.120  1.00  0.00     0.274 HD
ENDBRANCH  13  14
ENDBRANCH  12  13
ENDBRANCH   7  12
BRANCH   9  18
HETATM   18  C5  UNL     1     -13.364 -10.339 -30.299  1.00  0.00     0.257 A
HETATM   19  N7  UNL     1     -14.346 -11.313 -29.990  1.00  0.00    -0.210 N
HETATM   20  O3  UNL     1     -14.045 -11.857 -28.876  1.00  0.00    -0.152 OA
ATOM     21  H7  UNL     1     -15.159 -11.539 -30.563  1.00  0.00     0.199 HD
HETATM   22  N8  UNL     1     -12.974 -11.395 -28.356  1.00  0.00    -0.216 N
HETATM   23  C6  UNL     1     -12.520 -10.444 -29.217  1.00  0.00     0.255 A
ATOM     24  H8  UNL     1     -12.547 -11.679 -27.475  1.00  0.00     0.199 HD
BRANCH  23  25
HETATM   25  N9  UNL     1     -11.327  -9.685 -28.992  1.00  0.00    -0.091 N
HETATM   26  O4  UNL     1     -11.035  -9.338 -27.844  1.00  0.00    -0.530 OA
HETATM   27  O5  UNL     1     -10.485  -9.349 -30.024  1.00  0.00    -0.530 OA
ENDBRANCH  23  25
ENDBRANCH   9  18
BRANCH  10  28
HETATM   28  C7  UNL     1     -14.051  -8.578 -34.787  1.00  0.00     0.276 C
HETATM   29  C8  UNL     1     -13.861  -7.142 -35.187  1.00  0.00     0.279 C
HETATM   30  N11 UNL     1     -15.187  -6.595 -34.863  1.00  0.00    -0.195 N
HETATM   31  C9  UNL     1     -16.140  -7.622 -35.092  1.00  0.00     0.692 C
ATOM     32  H11 UNL     1     -15.386  -5.650 -34.533  1.00  0.00     0.180 HD
HETATM   33  N12 UNL     1     -17.420  -7.559 -34.952  1.00  0.00    -0.233 N
HETATM   34  N13 UNL     1     -15.369  -8.778 -35.471  1.00  0.00    -0.102 N
ATOM     35 2H12 UNL     1     -17.966  -6.740 -34.684  1.00  0.00     0.174 HD
ATOM     36 1H12 UNL     1     -18.105  -8.296 -35.117  1.00  0.00     0.174 HD
BRANCH  29  37
HETATM   37  O6  UNL     1     -13.791  -7.080 -36.585  1.00  0.00    -0.372 OA
ATOM     38  H6  UNL     1     -14.655  -7.262 -36.935  1.00  0.00     0.212 HD
ENDBRANCH  29  37
BRANCH  34  39
HETATM   39  N14 UNL     1     -15.722  -9.817 -36.249  1.00  0.00    -0.327 N
ATOM     40 2H14 UNL     1     -16.638 -10.058 -36.627  1.00  0.00     0.177 HD
ATOM     41 1H14 UNL     1     -15.109 -10.557 -36.592  1.00  0.00     0.177 HD
ENDBRANCH  34  39
ENDBRANCH  10  28
BRANCH   5  42
HETATM   42  N3  UNL     1      -8.550  -8.106 -32.990  1.00  0.00    -0.024 N
HETATM   43  O1  UNL     1      -7.634  -7.300 -32.795  1.00  0.00    -0.516 OA
HETATM   44  O2  UNL     1      -8.281  -9.444 -32.920  1.00  0.00    -0.516 OA
ENDBRANCH   5  42
TORSDOF 9
ENDMDL