MODEL 3
REMARK VINA RESULT: -9.777102959      2.474      5.808
REMARK  11 active torsions:
REMARK  status: ('A' for Active; 'I' for Inactive)
REMARK    1  A    between atoms: C2_3  and  N2_4
REMARK    2  A    between atoms: C2_3  and  C3_8
REMARK    3  A    between atoms: C3_8  and  O1_9
REMARK    4  A    between atoms: C3_8  and  C4_11
REMARK    5  A    between atoms: C4_11  and  O2_12
REMARK    6  A    between atoms: C4_11  and  C5_14
REMARK    7  A    between atoms: C5_14  and  O3_15
REMARK    8  A    between atoms: C5_14  and  C6_17
REMARK    9  A    between atoms: C8_21  and  C9_22
REMARK   10  A    between atoms: C10_25  and  N4_26
REMARK   11  A    between atoms: C13_31  and  N6_32
ROOT
HETATM    1  N1  UNL     1     -15.333  -5.382 -31.313  1.00  0.00    -0.195 NA
HETATM    2  C1  UNL     1     -15.141  -4.258 -31.498  1.00  0.00     0.095 C
HETATM    3  C2  UNL     1     -14.919  -2.814 -31.734  1.00  0.00     0.320 C
ENDROOT
BRANCH   3   4
HETATM    4  N2  UNL     1     -15.791  -2.107 -30.866  1.00  0.00    -0.060 N
ATOM      5  H23 UNL     1     -15.453  -1.173 -30.634  1.00  0.00     0.276 HD
ATOM      6  H22 UNL     1     -16.660  -1.824 -31.317  1.00  0.00     0.276 HD
ATOM      7  H21 UNL     1     -15.939  -2.693 -30.045  1.00  0.00     0.276 HD
ENDBRANCH   3   4
BRANCH   3   8
HETATM    8  C3  UNL     1     -15.075  -2.586 -33.192  1.00  0.00     0.193 C
BRANCH   8   9
HETATM    9  O1  UNL     1     -13.997  -3.049 -33.941  1.00  0.00    -0.390 OA
ATOM     10  H1  UNL     1     -13.193  -2.568 -33.782  1.00  0.00     0.210 HD
ENDBRANCH   8   9
BRANCH   8  11
HETATM   11  C4  UNL     1     -16.392  -2.958 -33.799  1.00  0.00     0.181 C
BRANCH  11  12
HETATM   12  O2  UNL     1     -17.108  -1.738 -33.886  1.00  0.00    -0.390 OA
ATOM     13  H2  UNL     1     -16.671  -1.156 -33.274  1.00  0.00     0.210 HD
ENDBRANCH  11  12
BRANCH  11  14
HETATM   14  C5  UNL     1     -16.339  -3.631 -35.118  1.00  0.00     0.180 C
BRANCH  14  15
HETATM   15  O3  UNL     1     -17.250  -3.236 -36.057  1.00  0.00    -0.390 OA
ATOM     16  H3  UNL     1     -17.645  -2.379 -35.945  1.00  0.00     0.210 HD
ENDBRANCH  14  15
BRANCH  14  17
HETATM   17  C6  UNL     1     -16.331  -5.124 -34.967  1.00  0.00     0.179 C
HETATM   18  C7  UNL     1     -17.255  -5.878 -35.868  1.00  0.00     0.155 C
HETATM   19  N3  UNL     1     -17.224  -7.259 -35.405  1.00  0.00    -0.378 N
HETATM   20  C8  UNL     1     -15.925  -7.850 -35.177  1.00  0.00     0.158 C
ATOM     21  H3  UNL     1     -18.083  -7.786 -35.249  1.00  0.00     0.160 HD
HETATM   22  C10 UNL     1     -14.890  -7.040 -35.118  1.00  0.00     0.186 C
HETATM   23  O6  UNL     1     -15.022  -5.642 -35.272  1.00  0.00    -0.324 OA
BRANCH  20  24
HETATM   24  C9  UNL     1     -15.822  -9.290 -35.026  1.00  0.00     0.231 C
HETATM   25  O4  UNL     1     -15.456 -10.117 -35.862  1.00  0.00    -0.643 OA
HETATM   26  O5  UNL     1     -16.184  -9.823 -33.762  1.00  0.00    -0.643 OA
ENDBRANCH  20  24
BRANCH  22  27
HETATM   27  N4  UNL     1     -13.592  -7.594 -34.894  1.00  0.00    -0.270 N
HETATM   28  C11 UNL     1     -12.713  -8.116 -35.783  1.00  0.00     0.193 A
HETATM   29  N5  UNL     1     -11.609  -8.552 -35.161  1.00  0.00    -0.346 N
HETATM   30  C12 UNL     1     -11.737  -8.324 -33.843  1.00  0.00     0.122 A
ATOM     31  H5  UNL     1     -10.805  -8.985 -35.613  1.00  0.00     0.167 HD
HETATM   32  C13 UNL     1     -10.944  -8.553 -32.734  1.00  0.00     0.131 A
HETATM   33  C15 UNL     1     -12.972  -7.729 -33.689  1.00  0.00     0.146 A
HETATM   34  N7  UNL     1     -11.338  -8.211 -31.494  1.00  0.00    -0.337 N
HETATM   35  C14 UNL     1     -12.544  -7.632 -31.357  1.00  0.00     0.183 A
ATOM     36  H7  UNL     1     -10.741  -8.386 -30.684  1.00  0.00     0.168 HD
HETATM   37  N8  UNL     1     -13.328  -7.402 -32.426  1.00  0.00    -0.336 N
ATOM     38  H8  UNL     1     -14.235  -6.961 -32.277  1.00  0.00     0.168 HD
BRANCH  32  39
HETATM   39  N6  UNL     1      -9.788  -9.108 -32.866  1.00  0.00    -0.383 N
ATOM     40  H62 UNL     1      -9.121  -9.007 -32.102  1.00  0.00     0.157 HD
ATOM     41  H61 UNL     1      -9.563  -9.629 -33.714  1.00  0.00     0.157 HD
ENDBRANCH  32  39
ENDBRANCH  22  27
ENDBRANCH  14  17
ENDBRANCH  11  14
ENDBRANCH   8  11
ENDBRANCH   3   8
TORSDOF 11
ENDMDL