MODEL 5
REMARK VINA RESULT: -10.354332343      3.182      9.052
REMARK  10 active torsions:
REMARK  status: ('A' for Active; 'I' for Inactive)
REMARK    1  A    between atoms: C2_2  and  C3_3
REMARK    2  A    between atoms: C2_2  and  N7_26
REMARK       I    between atoms: C3_3  and  N1_5
REMARK    3  A    between atoms: N1_5  and  N2_7
REMARK       I    between atoms: N2_7  and  C4_9
REMARK       I    between atoms: C4_9  and  N3_11
REMARK    4  A    between atoms: N3_11  and  N4_12
REMARK    5  A    between atoms: N3_11  and  C5_16
REMARK    6  A    between atoms: N4_12  and  O3_14
REMARK    7  A    between atoms: C7_20  and  C8_21
REMARK    8  A    between atoms: C8_21  and  O4_22
REMARK    9  A    between atoms: C9_31  and  N11_32
REMARK   10  A    between atoms: N12_34  and  N13_36
REMARK       I    between atoms: N13_36  and  C10_38
ROOT
HETATM    1  C3  UNL     1     -12.534  -8.847 -32.538  1.00  0.00     0.261 C
HETATM    2  O1  UNL     1     -11.347  -9.184 -32.223  1.00  0.00    -0.269 OA
HETATM    3  N1  UNL     1     -13.532  -9.118 -31.579  1.00  0.00    -0.264 N
ATOM      4  H1  UNL     1     -14.507  -8.882 -31.763  1.00  0.00     0.190 HD
ENDROOT
BRANCH   3   5
HETATM    5  N2  UNL     1     -13.158  -9.719 -30.363  1.00  0.00    -0.247 N
HETATM    6  C4  UNL     1     -13.793 -10.903 -29.953  1.00  0.00     0.364 C
HETATM    7  O2  UNL     1     -14.697 -11.396 -30.701  1.00  0.00    -0.243 OA
HETATM    8  N3  UNL     1     -13.429 -11.534 -28.730  1.00  0.00    -0.152 N
ATOM      9  H2  UNL     1     -12.431  -9.298 -29.783  1.00  0.00     0.192 HD
BRANCH   8  10
HETATM   10  N4  UNL     1     -12.441 -10.946 -27.946  1.00  0.00    -0.197 N
ATOM     11  H4  UNL     1     -12.633 -10.667 -26.984  1.00  0.00     0.216 HD
BRANCH  10  12
HETATM   12  O3  UNL     1     -11.311 -10.769 -28.453  1.00  0.00    -0.274 OA
ATOM     13  H3  UNL     1     -10.651 -10.325 -27.934  1.00  0.00     0.246 HD
ENDBRANCH  10  12
ENDBRANCH   8  10
BRANCH   8  14
HETATM   14  C5  UNL     1     -14.055 -12.758 -28.311  1.00  0.00     0.203 A
HETATM   15  N5  UNL     1     -13.495 -13.662 -27.581  1.00  0.00    -0.358 N
HETATM   16  C6  UNL     1     -14.392 -14.760 -27.341  1.00  0.00     0.150 A
ATOM     17  H5  UNL     1     -12.542 -13.605 -27.221  1.00  0.00     0.162 HD
HETATM   18  C7  UNL     1     -15.705 -14.369 -27.950  1.00  0.00     0.126 A
HETATM   19  N6  UNL     1     -15.384 -13.141 -28.643  1.00  0.00    -0.352 N
ATOM     20  H6  UNL     1     -16.010 -12.633 -29.269  1.00  0.00     0.163 HD
BRANCH  18  21
HETATM   21  C8  UNL     1     -16.254 -15.426 -28.875  1.00  0.00     0.191 C
BRANCH  21  22
HETATM   22  O4  UNL     1     -15.476 -15.470 -30.029  1.00  0.00    -0.399 OA
ATOM     23  H4  UNL     1     -15.764 -16.196 -30.570  1.00  0.00     0.209 HD
ENDBRANCH  21  22
ENDBRANCH  18  21
ENDBRANCH   8  14
ENDBRANCH   3   5
BRANCH   1  24
HETATM   24  C2  UNL     1     -12.702  -8.229 -33.853  1.00  0.00     0.213 C
HETATM   25  C1  UNL     1     -11.535  -8.785 -34.718  1.00  0.00     0.045 C
BRANCH  24  26
HETATM   26  N7  UNL     1     -13.937  -8.537 -34.500  1.00  0.00    -0.093 N
HETATM   27  N8  UNL     1     -14.454  -9.777 -34.825  1.00  0.00     0.010 NA
HETATM   28  N9  UNL     1     -15.459  -9.539 -35.760  1.00  0.00     0.007 NA
HETATM   29  N10 UNL     1     -15.823  -8.191 -35.662  1.00  0.00    -0.115 N
HETATM   30  C9  UNL     1     -14.945  -7.599 -34.933  1.00  0.00     0.726 C
ATOM     31  H10 UNL     1     -16.639  -7.756 -36.092  1.00  0.00     0.202 HD
BRANCH  30  32
HETATM   32  N11 UNL     1     -14.911  -6.238 -34.563  1.00  0.00    -0.115 N
HETATM   33  N12 UNL     1     -15.278  -5.337 -35.350  1.00  0.00    -0.225 N
ATOM     34  H12 UNL     1     -15.603  -5.626 -36.273  1.00  0.00     0.209 HD
ATOM     35  H11 UNL     1     -14.581  -5.982 -33.632  1.00  0.00     0.207 HD
BRANCH  33  36
HETATM   36  N13 UNL     1     -15.279  -3.985 -35.074  1.00  0.00    -0.239 N
HETATM   37  C10 UNL     1     -15.983  -3.486 -33.952  1.00  0.00     0.348 C
HETATM   38  N14 UNL     1     -15.987  -2.098 -33.666  1.00  0.00    -0.038 NA
HETATM   39  O5  UNL     1     -16.609  -4.312 -33.210  1.00  0.00    -0.249 OA
ATOM     40  H13 UNL     1     -14.770  -3.342 -35.680  1.00  0.00     0.193 HD
ENDBRANCH  33  36
ENDBRANCH  30  32
ENDBRANCH  24  26
ENDBRANCH   1  24
TORSDOF 10
ENDMDL