MODEL 2
REMARK VINA RESULT: -9.131233600      1.075      1.523
REMARK  11 active torsions:
REMARK  status: ('A' for Active; 'I' for Inactive)
REMARK    1  A    between atoms: C1_2  and  C2_4
REMARK    2  A    between atoms: C4_8  and  C5_9
REMARK    3  A    between atoms: N4_14  and  C7_16
REMARK    4  A    between atoms: C7_16  and  O2_17
REMARK    5  A    between atoms: C7_16  and  C8_19
REMARK    6  A    between atoms: C8_19  and  O3_20
REMARK    7  A    between atoms: C8_19  and  C9_22
REMARK    8  A    between atoms: C9_22  and  O4_23
REMARK    9  A    between atoms: C9_22  and  C10_25
REMARK   10  A    between atoms: C10_25  and  O5_26
REMARK   11  A    between atoms: C11_31  and  N6_32
REMARK       I    between atoms: N6_32  and  C12_34
REMARK       I    between atoms: C12_34  and  N7_35
REMARK       I    between atoms: C12_34  and  N8_39
ROOT
HETATM    1  C2  UNL     1     -17.689  -5.864 -36.460  1.00  0.00     0.112 A
HETATM    2  N2  UNL     1     -17.684  -7.001 -35.729  1.00  0.00    -0.358 N
ATOM      3  H2  UNL     1     -18.510  -7.600 -35.734  1.00  0.00     0.165 HD
HETATM    4  C3  UNL     1     -16.621  -7.358 -35.001  1.00  0.00     0.122 A
HETATM    5  C4  UNL     1     -15.518  -6.531 -35.012  1.00  0.00     0.103 A
HETATM    6  N5  UNL     1     -15.484  -5.394 -35.724  1.00  0.00    -0.336 N
ATOM      7  H5  UNL     1     -14.657  -4.797 -35.717  1.00  0.00     0.168 HD
HETATM    8  C11 UNL     1     -16.562  -5.062 -36.444  1.00  0.00     0.134 A
ENDROOT
BRANCH   5   9
HETATM    9  C5  UNL     1     -14.316  -6.866 -34.232  1.00  0.00     0.200 A
HETATM   10  N3  UNL     1     -13.787  -6.093 -33.285  1.00  0.00    -0.233 N
HETATM   11  O1  UNL     1     -12.749  -6.692 -32.816  1.00  0.00    -0.192 OA
ATOM     12  H3  UNL     1     -14.142  -5.186 -32.984  1.00  0.00     0.197 HD
HETATM   13  C6  UNL     1     -12.607  -7.823 -33.440  1.00  0.00     0.292 A
HETATM   14  N4  UNL     1     -11.703  -8.718 -33.276  1.00  0.00    -0.320 N
HETATM   15  O6  UNL     1     -13.581  -7.935 -34.323  1.00  0.00    -0.251 OA
ATOM     16  H4  UNL     1     -11.737  -9.557 -33.856  1.00  0.00     0.166 HD
BRANCH  14  17
HETATM   17  C7  UNL     1     -10.635  -8.592 -32.304  1.00  0.00     0.252 C
BRANCH  17  18
HETATM   18  O2  UNL     1      -9.503  -9.300 -32.691  1.00  0.00    -0.374 OA
ATOM     19  H2  UNL     1      -8.842  -9.303 -32.009  1.00  0.00     0.212 HD
ENDBRANCH  17  18
BRANCH  17  20
HETATM   20  C8  UNL     1     -11.197  -9.162 -30.994  1.00  0.00     0.197 C
BRANCH  20  21
HETATM   21  O3  UNL     1     -12.565  -9.264 -31.174  1.00  0.00    -0.389 OA
ATOM     22  H3  UNL     1     -12.711 -10.085 -31.628  1.00  0.00     0.210 HD
ENDBRANCH  20  21
BRANCH  20  23
HETATM   23  C9  UNL     1     -10.884  -8.130 -29.930  1.00  0.00     0.174 C
BRANCH  23  24
HETATM   24  O4  UNL     1      -9.915  -7.246 -30.385  1.00  0.00    -0.391 OA
ATOM     25  H4  UNL     1     -10.141  -6.923 -31.249  1.00  0.00     0.210 HD
ENDBRANCH  23  24
BRANCH  23  26
HETATM   26  C10 UNL     1     -10.482  -8.794 -28.632  1.00  0.00     0.198 C
BRANCH  26  27
HETATM   27  O5  UNL     1     -11.184 -10.005 -28.544  1.00  0.00    -0.398 OA
ATOM     28  H5  UNL     1     -11.009 -10.374 -27.686  1.00  0.00     0.209 HD
ENDBRANCH  26  27
ENDBRANCH  23  26
ENDBRANCH  20  23
ENDBRANCH  17  20
ENDBRANCH  14  17
ENDBRANCH   5   9
BRANCH   8  29
HETATM   29  N6  UNL     1     -16.584  -3.979 -37.148  1.00  0.00    -0.325 N
HETATM   30  C12 UNL     1     -16.425  -2.669 -36.575  1.00  0.00     0.481 C
HETATM   31  N7  UNL     1     -17.642  -2.195 -35.936  1.00  0.00    -0.033 N
HETATM   32  N8  UNL     1     -16.068  -1.706 -37.630  1.00  0.00    -0.033 N
ATOM     33  H73 UNL     1     -18.432  -2.222 -36.582  1.00  0.00     0.278 HD
ATOM     34  H72 UNL     1     -17.977  -2.863 -35.241  1.00  0.00     0.278 HD
ATOM     35  H71 UNL     1     -17.530  -1.266 -35.530  1.00  0.00     0.278 HD
ATOM     36  H83 UNL     1     -15.243  -1.999 -38.154  1.00  0.00     0.278 HD
ATOM     37  H82 UNL     1     -16.740  -1.712 -38.398  1.00  0.00     0.278 HD
ATOM     38  H81 UNL     1     -15.956  -0.777 -37.224  1.00  0.00     0.278 HD
ATOM     39  H6  UNL     1     -16.720  -4.056 -38.155  1.00  0.00     0.165 HD
ENDBRANCH   8  29
BRANCH   1  40
HETATM   40  C1  UNL     1     -18.870  -5.515 -37.239  1.00  0.00     0.143 C
HETATM   41  N1  UNL     1     -19.739  -4.466 -36.869  1.00  0.00    -0.087 NA
HETATM   42  S1  UNL     1     -19.195  -6.369 -38.580  1.00  0.00    -0.061 SA
ENDBRANCH   1  40
TORSDOF 11
ENDMDL