MODEL 4
REMARK VINA RESULT: -9.932973430      3.126      4.543
REMARK  9 active torsions:
REMARK  status: ('A' for Active; 'I' for Inactive)
REMARK    1  A    between atoms: C2_7  and  C3_8
REMARK    2  A    between atoms: C3_8  and  N4_9
REMARK    3  A    between atoms: C3_8  and  C7_21
REMARK       I    between atoms: N4_9  and  C4_11
REMARK       I    between atoms: C4_11  and  N6_15
REMARK    4  A    between atoms: N6_15  and  C5_17
REMARK    5  A    between atoms: C5_17  and  C6_18
REMARK    6  A    between atoms: C6_18  and  O1_19
REMARK    7  A    between atoms: C8_24  and  C9_25
REMARK       I    between atoms: C9_25  and  N8_27
REMARK    8  A    between atoms: N8_27  and  C10_29
REMARK    9  A    between atoms: C11_35  and  N11_36
ROOT
HETATM    1  C3  UNL     1     -15.800  -4.520 -33.840  1.00  0.00     0.245 C
ENDROOT
BRANCH   1   2
HETATM    2  C2  UNL     1     -15.608  -4.051 -35.250  1.00  0.00     0.145 A
HETATM    3  N3  UNL     1     -14.927  -4.644 -36.248  1.00  0.00    -0.270 N
HETATM    4  N2  UNL     1     -15.037  -3.863 -37.317  1.00  0.00    -0.225 N
ATOM      5  H3  UNL     1     -14.422  -5.527 -36.193  1.00  0.00     0.190 HD
HETATM    6  N1  UNL     1     -15.762  -2.804 -37.029  1.00  0.00    -0.223 N
ATOM      7  H2  UNL     1     -14.620  -4.058 -38.228  1.00  0.00     0.210 HD
HETATM    8  C1  UNL     1     -16.132  -1.697 -37.906  1.00  0.00     0.202 C
HETATM    9  N13 UNL     1     -16.109  -2.923 -35.758  1.00  0.00    -0.268 N
ATOM     10  H13 UNL     1     -16.676  -2.251 -35.240  1.00  0.00     0.190 HD
ENDBRANCH   1   2
BRANCH   1  11
HETATM   11  N4  UNL     1     -15.336  -3.511 -32.934  1.00  0.00    -0.208 N
HETATM   12  C4  UNL     1     -16.092  -3.120 -31.807  1.00  0.00     0.668 C
HETATM   13  N5  UNL     1     -16.947  -3.899 -31.263  1.00  0.00    -0.235 N
HETATM   14  N6  UNL     1     -15.889  -1.821 -31.263  1.00  0.00    -0.225 N
ATOM     15  H52 UNL     1     -17.093  -4.831 -31.653  1.00  0.00     0.174 HD
ATOM     16  H51 UNL     1     -17.492  -3.617 -30.449  1.00  0.00     0.174 HD
ATOM     17  H6  UNL     1     -14.942  -1.441 -31.277  1.00  0.00     0.177 HD
ATOM     18  H4  UNL     1     -14.437  -3.063 -33.108  1.00  0.00     0.179 HD
BRANCH  14  19
HETATM   19  C5  UNL     1     -16.922  -1.015 -30.699  1.00  0.00     0.164 C
BRANCH  19  20
HETATM   20  C6  UNL     1     -17.855  -0.515 -31.789  1.00  0.00     0.184 C
BRANCH  20  21
HETATM   21  O1  UNL     1     -18.949  -1.369 -31.822  1.00  0.00    -0.399 OA
ATOM     22  H1  UNL     1     -19.724  -0.833 -31.940  1.00  0.00     0.209 HD
ENDBRANCH  20  21
ENDBRANCH  19  20
ENDBRANCH  14  19
ENDBRANCH   1  11
BRANCH   1  23
HETATM   23  C7  UNL     1     -14.936  -5.736 -33.643  1.00  0.00     0.157 A
HETATM   24  N7  UNL     1     -13.756  -5.770 -32.955  1.00  0.00    -0.330 N
HETATM   25  C8  UNL     1     -13.326  -7.054 -33.036  1.00  0.00     0.151 A
ATOM     26  H7  UNL     1     -13.295  -4.993 -32.481  1.00  0.00     0.168 HD
HETATM   27  C12 UNL     1     -14.244  -7.742 -33.756  1.00  0.00     0.191 A
HETATM   28  N12 UNL     1     -14.173  -9.144 -34.078  1.00  0.00    -0.072 NA
HETATM   29  O4  UNL     1     -15.197  -6.923 -34.107  1.00  0.00    -0.278 OA
BRANCH  25  30
HETATM   30  C9  UNL     1     -12.051  -7.545 -32.452  1.00  0.00     0.278 C
HETATM   31  O2  UNL     1     -11.211  -7.945 -33.328  1.00  0.00    -0.265 OA
HETATM   32  N8  UNL     1     -11.805  -7.560 -31.142  1.00  0.00    -0.303 N
ATOM     33  H8  UNL     1     -11.953  -6.623 -30.768  1.00  0.00     0.171 HD
BRANCH  32  34
HETATM   34  C10 UNL     1     -11.456  -8.320 -30.205  1.00  0.00     0.176 A
HETATM   35  N9  UNL     1     -10.332  -8.086 -29.417  1.00  0.00    -0.222 N
HETATM   36  O3  UNL     1     -10.247  -9.013 -28.564  1.00  0.00    -0.153 OA
ATOM     37  H9  UNL     1      -9.688  -7.300 -29.512  1.00  0.00     0.198 HD
HETATM   38  N10 UNL     1     -11.187  -9.878 -28.660  1.00  0.00    -0.222 N
HETATM   39  C11 UNL     1     -11.992  -9.480 -29.698  1.00  0.00     0.167 A
ATOM     40  H10 UNL     1     -11.313 -10.705 -28.077  1.00  0.00     0.198 HD
BRANCH  39  41
HETATM   41  N11 UNL     1     -13.041 -10.118 -30.046  1.00  0.00    -0.381 N
ATOM     42 2H11 UNL     1     -13.009 -11.006 -30.547  1.00  0.00     0.157 HD
ATOM     43 1H11 UNL     1     -14.024  -9.896 -29.888  1.00  0.00     0.157 HD
ENDBRANCH  39  41
ENDBRANCH  32  34
ENDBRANCH  25  30
ENDBRANCH   1  23
TORSDOF 9
ENDMDL