MODEL 3
REMARK VINA RESULT: -8.713710706      2.186      3.027
REMARK  9 active torsions:
REMARK  status: ('A' for Active; 'I' for Inactive)
REMARK    1  A    between atoms: C1_2  and  C2_3
REMARK    2  A    between atoms: C1_2  and  N2_6
REMARK    3  A    between atoms: C2_3  and  O1_4
REMARK       I    between atoms: N2_6  and  C3_8
REMARK    4  A    between atoms: C3_8  and  C4_10
REMARK    5  A    between atoms: C4_10  and  N3_11
REMARK       I    between atoms: N3_11  and  C5_13
REMARK       I    between atoms: C5_13  and  N4_15
REMARK    6  A    between atoms: N4_15  and  C6_17
REMARK    7  A    between atoms: C7_21  and  C8_22
REMARK    8  A    between atoms: C7_21  and  N6_25
REMARK    9  A    between atoms: C8_22  and  O4_23
ROOT
HETATM    1  C6  UNL     1     -13.680  -5.947 -32.455  1.00  0.00     0.359 C
HETATM    2  N5  UNL     1     -12.336  -6.348 -32.081  1.00  0.00    -0.006 N
ATOM      3  H51 UNL     1     -12.091  -6.262 -31.095  1.00  0.00     0.284 HD
ATOM      4  H52 UNL     1     -11.576  -5.743 -32.392  1.00  0.00     0.284 HD
HETATM    5  C7  UNL     1     -12.361  -7.672 -32.621  1.00  0.00     0.283 C
HETATM    6  S1  UNL     1     -13.753  -7.280 -33.715  1.00  0.00    -0.052 SA
ENDROOT
BRANCH   1   7
HETATM    7  N4  UNL     1     -13.755  -4.672 -33.131  1.00  0.00    -0.306 N
HETATM    8  C5  UNL     1     -15.067  -4.167 -33.439  1.00  0.00     0.318 C
HETATM    9  N3  UNL     1     -15.249  -2.932 -34.097  1.00  0.00    -0.334 N
HETATM   10  O3  UNL     1     -16.092  -4.823 -33.123  1.00  0.00    -0.247 OA
ATOM     11  H3  UNL     1     -14.440  -2.373 -34.367  1.00  0.00     0.164 HD
ATOM     12  H4  UNL     1     -12.913  -4.152 -33.380  1.00  0.00     0.167 HD
BRANCH   9  13
HETATM   13  C4  UNL     1     -16.573  -2.464 -34.386  1.00  0.00     0.227 C
BRANCH  13  14
HETATM   14  C3  UNL     1     -16.839  -2.605 -35.831  1.00  0.00     0.240 C
HETATM   15  N2  UNL     1     -17.946  -1.973 -36.444  1.00  0.00    -0.312 N
ATOM     16  H2  UNL     1     -18.576  -1.407 -35.876  1.00  0.00     0.170 HD
HETATM   17  O2  UNL     1     -16.074  -3.296 -36.530  1.00  0.00    -0.271 OA
BRANCH  15  18
HETATM   18  C1  UNL     1     -18.200  -2.111 -37.839  1.00  0.00     0.140 C
HETATM   19  N1  UNL     1     -19.121  -3.113 -38.232  1.00  0.00    -0.081 NA
BRANCH  18  20
HETATM   20  C2  UNL     1     -17.606  -1.342 -38.727  1.00  0.00     0.176 C
BRANCH  20  21
HETATM   21  O1  UNL     1     -16.306  -1.632 -39.125  1.00  0.00    -0.369 OA
ATOM     22  H1  UNL     1     -15.849  -1.033 -39.704  1.00  0.00     0.216 HD
ENDBRANCH  20  21
ENDBRANCH  18  20
ENDBRANCH  15  18
ENDBRANCH  13  14
ENDBRANCH   9  13
ENDBRANCH   1   7
BRANCH   5  23
HETATM   23  C8  UNL     1     -11.077  -8.007 -33.346  1.00  0.00     0.238 C
BRANCH  23  24
HETATM   24  O4  UNL     1      -9.988  -7.500 -32.643  1.00  0.00    -0.396 OA
ATOM     25  H4  UNL     1      -9.831  -8.025 -31.867  1.00  0.00     0.209 HD
ENDBRANCH  23  24
ENDBRANCH   5  23
BRANCH   5  26
HETATM   26  N6  UNL     1     -12.727  -8.734 -31.719  1.00  0.00    -0.282 N
HETATM   27  C9  UNL     1     -13.727  -9.598 -31.962  1.00  0.00     0.188 A
HETATM   28  N7  UNL     1     -13.825 -10.468 -30.945  1.00  0.00    -0.346 N
HETATM   29  C10 UNL     1     -12.883 -10.164 -30.039  1.00  0.00     0.119 A
ATOM     30  H7  UNL     1     -14.500 -11.229 -30.873  1.00  0.00     0.167 HD
HETATM   31  C11 UNL     1     -12.532 -10.717 -28.820  1.00  0.00     0.148 A
HETATM   32  C13 UNL     1     -12.202  -9.080 -30.531  1.00  0.00     0.142 A
HETATM   33  N8  UNL     1     -13.243 -11.834 -28.325  1.00  0.00    -0.080 NA
HETATM   34  N9  UNL     1     -11.509 -10.135 -28.170  1.00  0.00    -0.339 N
HETATM   35  C12 UNL     1     -10.844  -9.064 -28.669  1.00  0.00     0.183 A
ATOM     36  H9  UNL     1     -11.223 -10.514 -27.268  1.00  0.00     0.167 HD
HETATM   37  N10 UNL     1     -11.190  -8.531 -29.856  1.00  0.00    -0.336 N
ATOM     38  H10 UNL     1     -10.691  -7.724 -30.231  1.00  0.00     0.168 HD
ENDBRANCH   5  26
TORSDOF 9
ENDMDL