MODEL 4
REMARK VINA RESULT: -10.272365953      1.292      3.000
REMARK  8 active torsions:
REMARK  status: ('A' for Active; 'I' for Inactive)
REMARK       I    between atoms: C1_4  and  N3_6
REMARK       I    between atoms: N3_6  and  C2_8
REMARK    1  A    between atoms: C2_8  and  C3_10
REMARK    2  A    between atoms: C4_13  and  N5_14
REMARK    3  A    between atoms: C5_18  and  C6_19
REMARK    4  A    between atoms: C6_19  and  N8_20
REMARK    5  A    between atoms: C8_22  and  C9_23
REMARK    6  A    between atoms: C9_23  and  O2_24
REMARK    7  A    between atoms: C10_26  and  C11_27
REMARK    8  A    between atoms: C12_38  and  N14_39
ROOT
HETATM    1  C3  UNL     1     -17.573  -5.189 -36.497  1.00  0.00     0.162 A
HETATM    2  N4  UNL     1     -16.755  -5.825 -35.645  1.00  0.00    -0.178 N
ATOM      3  H4  UNL     1     -17.019  -6.752 -35.310  1.00  0.00     0.185 HD
HETATM    4  C4  UNL     1     -15.584  -5.279 -35.209  1.00  0.00     0.732 A
HETATM    5  N12 UNL     1     -15.242  -4.061 -35.648  1.00  0.00    -0.128 N
ATOM      6  H12 UNL     1     -14.368  -3.644 -35.327  1.00  0.00     0.205 HD
HETATM    7  N13 UNL     1     -16.007  -3.386 -36.486  1.00  0.00    -0.269 N
ATOM      8  H13 UNL     1     -15.728  -2.460 -36.809  1.00  0.00     0.189 HD
HETATM    9  C12 UNL     1     -17.180  -3.949 -36.917  1.00  0.00     0.147 A
ENDROOT
BRANCH   4  10
HETATM   10  N5  UNL     1     -14.754  -6.039 -34.321  1.00  0.00    -0.002 N
HETATM   11  N6  UNL     1     -14.857  -5.931 -32.985  1.00  0.00     0.018 NA
HETATM   12  N7  UNL     1     -13.968  -6.770 -32.432  1.00  0.00    -0.268 N
HETATM   13  C5  UNL     1     -13.313  -7.404 -33.409  1.00  0.00     0.131 A
ATOM     14  H7  UNL     1     -13.818  -6.902 -31.432  1.00  0.00     0.185 HD
HETATM   15  N11 UNL     1     -13.829  -6.922 -34.552  1.00  0.00    -0.252 N
ATOM     16  H11 UNL     1     -13.533  -7.212 -35.484  1.00  0.00     0.190 HD
BRANCH  13  17
HETATM   17  C6  UNL     1     -12.231  -8.439 -33.235  1.00  0.00     0.227 C
BRANCH  17  18
HETATM   18  N8  UNL     1     -12.480  -9.114 -31.980  1.00  0.00    -0.295 N
HETATM   19  C7  UNL     1     -11.670  -8.955 -30.893  1.00  0.00     0.122 A
HETATM   20  C8  UNL     1     -12.172  -9.728 -29.866  1.00  0.00     0.015 A
HETATM   21  C10 UNL     1     -13.289 -10.342 -30.370  1.00  0.00     0.123 A
HETATM   22  N10 UNL     1     -13.435  -9.944 -31.642  1.00  0.00    -0.293 N
ATOM     23  H10 UNL     1     -14.186 -10.246 -32.262  1.00  0.00     0.187 HD
BRANCH  20  24
HETATM   24  C9  UNL     1     -11.614  -9.871 -28.477  1.00  0.00     0.206 C
BRANCH  24  25
HETATM   25  O2  UNL     1     -10.504  -9.049 -28.295  1.00  0.00    -0.396 OA
ATOM     26  H2  UNL     1     -10.152  -9.140 -27.418  1.00  0.00     0.209 HD
ENDBRANCH  24  25
ENDBRANCH  20  24
BRANCH  21  27
HETATM   27  C11 UNL     1     -14.175 -11.252 -29.681  1.00  0.00     0.283 C
HETATM   28  N9  UNL     1     -14.554 -11.057 -28.317  1.00  0.00    -0.056 NA
HETATM   29  O3  UNL     1     -14.670 -12.270 -30.238  1.00  0.00    -0.269 OA
ENDBRANCH  21  27
ENDBRANCH  17  18
ENDBRANCH  13  17
ENDBRANCH   4  10
BRANCH   1  30
HETATM   30  C2  UNL     1     -18.814  -5.761 -36.987  1.00  0.00     0.279 C
HETATM   31  N3  UNL     1     -18.842  -7.051 -37.665  1.00  0.00    -0.296 N
HETATM   32  C1  UNL     1     -20.046  -7.574 -38.137  1.00  0.00     0.188 C
ATOM     33  H3  UNL     1     -17.976  -7.575 -37.794  1.00  0.00     0.171 HD
HETATM   34  N1  UNL     1     -21.058  -8.013 -38.535  1.00  0.00    -0.373 N
HETATM   35  N2  UNL     1     -19.227  -9.007 -38.730  1.00  0.00    -0.064 NA
ATOM     36  H12 UNL     1     -21.939  -8.396 -38.881  1.00  0.00     0.158 HD
ATOM     37  H11 UNL     1     -21.534  -7.180 -38.191  1.00  0.00     0.158 HD
HETATM   38  O1  UNL     1     -19.894  -5.149 -36.833  1.00  0.00    -0.265 OA
ENDBRANCH   1  30
BRANCH   9  39
HETATM   39  N14 UNL     1     -17.931  -3.300 -37.736  1.00  0.00    -0.382 N
ATOM     40 2H14 UNL     1     -18.165  -3.714 -38.638  1.00  0.00     0.157 HD
ATOM     41 1H14 UNL     1     -18.281  -2.381 -37.464  1.00  0.00     0.157 HD
ENDBRANCH   9  39
TORSDOF 8
ENDMDL