MODEL 4
REMARK VINA RESULT: -9.529131152      1.684      4.873
REMARK  11 active torsions:
REMARK  status: ('A' for Active; 'I' for Inactive)
REMARK    1  A    between atoms: N1_1  and  C1_4
REMARK    2  A    between atoms: C4_16  and  C5_17
REMARK    3  A    between atoms: C6_18  and  C7_19
REMARK       I    between atoms: C7_19  and  N6_21
REMARK    4  A    between atoms: N6_21  and  N7_23
REMARK    5  A    between atoms: N9_29  and  C9_30
REMARK    6  A    between atoms: C9_30  and  O2_31
REMARK    7  A    between atoms: O2_31  and  C10_32
REMARK    8  A    between atoms: C10_32  and  C11_33
REMARK    9  A    between atoms: C10_32  and  C12_36
REMARK   10  A    between atoms: C11_33  and  O3_34
REMARK   11  A    between atoms: C12_36  and  O4_37
ROOT
HETATM    1  C1  UNL     1     -17.256  -1.448 -32.415  1.00  0.00     0.678 A
HETATM    2  N2  UNL     1     -17.117  -1.977 -31.189  1.00  0.00    -0.175 N
ATOM      3  H2  UNL     1     -17.562  -1.531 -30.387  1.00  0.00     0.186 HD
HETATM    4  C2  UNL     1     -16.390  -3.094 -31.021  1.00  0.00     0.145 A
HETATM    5  N3  UNL     1     -16.258  -3.596 -29.849  1.00  0.00    -0.383 N
ATOM      6  H31 UNL     1     -15.706  -4.445 -29.721  1.00  0.00     0.157 HD
ATOM      7  H32 UNL     1     -16.704  -3.146 -29.051  1.00  0.00     0.157 HD
HETATM    8  C3  UNL     1     -15.777  -3.712 -32.117  1.00  0.00     0.125 A
HETATM    9  N4  UNL     1     -15.093  -4.810 -31.782  1.00  0.00    -0.293 N
ATOM     10  H4  UNL     1     -14.866  -4.903 -30.791  1.00  0.00     0.187 HD
HETATM   11  N5  UNL     1     -14.672  -5.787 -32.557  1.00  0.00    -0.283 N
ATOM     12  H5  UNL     1     -14.279  -6.590 -32.065  1.00  0.00     0.188 HD
HETATM   13  C4  UNL     1     -14.680  -5.889 -33.900  1.00  0.00     0.152 C
HETATM   14  N10 UNL     1     -14.706  -4.824 -34.699  1.00  0.00    -0.305 N
ATOM     15  H10 UNL     1     -14.141  -4.892 -35.546  1.00  0.00     0.171 HD
HETATM   16  C13 UNL     1     -15.392  -3.648 -34.533  1.00  0.00     0.277 C
HETATM   17  O5  UNL     1     -15.565  -2.915 -35.528  1.00  0.00    -0.266 OA
HETATM   18  C14 UNL     1     -15.934  -3.151 -33.367  1.00  0.00     0.148 A
HETATM   19  N11 UNL     1     -16.663  -2.041 -33.487  1.00  0.00    -0.184 N
ATOM     20  H11 UNL     1     -16.781  -1.625 -34.410  1.00  0.00     0.184 HD
ENDROOT
BRANCH  13  21
HETATM   21  C5  UNL     1     -14.712  -7.231 -34.430  1.00  0.00     0.116 A
HETATM   22  C6  UNL     1     -13.633  -8.097 -34.559  1.00  0.00     0.134 A
HETATM   23  N8  UNL     1     -14.112  -9.237 -35.193  1.00  0.00    -0.346 N
HETATM   24  C8  UNL     1     -15.394  -9.078 -35.430  1.00  0.00     0.186 A
ATOM     25  H8  UNL     1     -13.560 -10.060 -35.433  1.00  0.00     0.167 HD
HETATM   26  N9  UNL     1     -15.781  -7.846 -34.965  1.00  0.00    -0.316 N
BRANCH  22  27
HETATM   27  C7  UNL     1     -12.263  -8.020 -34.111  1.00  0.00     0.288 C
HETATM   28  O1  UNL     1     -11.274  -8.410 -34.737  1.00  0.00    -0.264 OA
HETATM   29  N6  UNL     1     -12.012  -7.434 -32.807  1.00  0.00    -0.271 N
ATOM     30  H6  UNL     1     -12.800  -7.097 -32.253  1.00  0.00     0.189 HD
BRANCH  29  31
HETATM   31  N7  UNL     1     -10.717  -7.317 -32.289  1.00  0.00    -0.342 N
ATOM     32  H72 UNL     1     -10.094  -8.121 -32.367  1.00  0.00     0.176 HD
ATOM     33  H71 UNL     1     -10.392  -6.458 -31.844  1.00  0.00     0.176 HD
ENDBRANCH  29  31
ENDBRANCH  22  27
BRANCH  26  34
HETATM   34  C9  UNL     1     -17.126  -7.412 -35.081  1.00  0.00     0.300 C
BRANCH  34  35
HETATM   35  O2  UNL     1     -17.576  -7.502 -36.402  1.00  0.00    -0.362 OA
BRANCH  35  36
HETATM   36  C10 UNL     1     -18.493  -6.551 -36.746  1.00  0.00     0.170 C
BRANCH  36  37
HETATM   37  C11 UNL     1     -17.892  -5.137 -36.624  1.00  0.00     0.198 C
BRANCH  37  38
HETATM   38  O3  UNL     1     -16.678  -5.145 -37.278  1.00  0.00    -0.398 OA
ATOM     39  H3  UNL     1     -16.362  -4.249 -37.304  1.00  0.00     0.209 HD
ENDBRANCH  37  38
ENDBRANCH  36  37
BRANCH  36  40
HETATM   40  C12 UNL     1     -19.092  -6.644 -38.097  1.00  0.00     0.198 C
BRANCH  40  41
HETATM   41  O4  UNL     1     -18.208  -6.797 -39.147  1.00  0.00    -0.398 OA
ATOM     42  H4  UNL     1     -18.332  -6.215 -39.888  1.00  0.00     0.209 HD
ENDBRANCH  40  41
ENDBRANCH  36  40
ENDBRANCH  35  36
ENDBRANCH  34  35
ENDBRANCH  26  34
ENDBRANCH  13  21
BRANCH   1  43
HETATM   43  N1  UNL     1     -17.950  -0.379 -32.578  1.00  0.00    -0.234 N
ATOM     44  H12 UNL     1     -18.826  -0.260 -32.071  1.00  0.00     0.174 HD
ATOM     45  H11 UNL     1     -17.624   0.348 -33.214  1.00  0.00     0.174 HD
ENDBRANCH   1  43
TORSDOF 11
ENDMDL