MODEL 2
REMARK VINA RESULT: -7.932669896      2.217      3.052
REMARK  14 active torsions:
REMARK  status: ('A' for Active; 'I' for Inactive)
REMARK    1  A    between atoms: C2_2  and  N1_4
REMARK    2  A    between atoms: C2_2  and  O4_29
REMARK    3  A    between atoms: N1_4  and  C4_6
REMARK    4  A    between atoms: C4_6  and  S1_11
REMARK    5  A    between atoms: S1_11  and  S2_12
REMARK    6  A    between atoms: S2_12  and  C6_13
REMARK    7  A    between atoms: C6_13  and  C7_14
REMARK    8  A    between atoms: C7_14  and  O1_15
REMARK    9  A    between atoms: C8_18  and  C9_19
REMARK   10  A    between atoms: C9_19  and  N4_20
REMARK   11  A    between atoms: C9_19  and  N5_24
REMARK   12  A    between atoms: O4_29  and  C10_30
REMARK   13  A    between atoms: C12_35  and  O5_36
REMARK   14  A    between atoms: C12_35  and  O6_38
ROOT
HETATM    1  C4  UNL     1     -15.737  -5.856 -34.942  1.00  0.00     0.162 C
HETATM    2  N2  UNL     1     -16.871  -6.039 -35.403  1.00  0.00    -0.273 N
ATOM      3  H2  UNL     1     -17.509  -5.361 -34.987  1.00  0.00     0.180 HD
HETATM    4  C5  UNL     1     -17.551  -6.804 -36.249  1.00  0.00     0.183 C
HETATM    5  N3  UNL     1     -18.160  -7.452 -36.976  1.00  0.00    -0.172 NA
ENDROOT
BRANCH   1   6
HETATM    6  N1  UNL     1     -14.511  -6.488 -35.161  1.00  0.00    -0.338 N
ATOM      7  H1  UNL     1     -13.831  -5.934 -35.681  1.00  0.00     0.164 HD
BRANCH   6   8
HETATM    8  C2  UNL     1     -14.059  -7.784 -34.774  1.00  0.00     0.131 C
HETATM    9  C1  UNL     1     -15.139  -8.817 -34.673  1.00  0.00     0.070 C
HETATM   10  C3  UNL     1     -13.026  -8.262 -35.772  1.00  0.00     0.070 C
BRANCH   8  11
HETATM   11  O4  UNL     1     -13.354  -7.667 -33.559  1.00  0.00    -0.325 OA
BRANCH  11  12
HETATM   12  C10 UNL     1     -12.232  -8.464 -33.498  1.00  0.00     0.387 A
HETATM   13  N6  UNL     1     -12.304  -9.551 -32.538  1.00  0.00    -0.038 N
HETATM   14  C11 UNL     1     -11.304  -8.965 -31.674  1.00  0.00     0.308 A
ATOM     15  H62 UNL     1     -13.212  -9.791 -32.141  1.00  0.00     0.280 HD
ATOM     16  H61 UNL     1     -12.164 -10.505 -32.870  1.00  0.00     0.280 HD
HETATM   17  C12 UNL     1     -11.162  -7.833 -32.641  1.00  0.00     0.237 A
BRANCH  17  18
HETATM   18  O5  UNL     1     -11.548  -6.585 -32.095  1.00  0.00    -0.361 OA
ATOM     19  H5  UNL     1     -11.120  -6.389 -31.270  1.00  0.00     0.213 HD
ENDBRANCH  17  18
BRANCH  17  20
HETATM   20  O6  UNL     1      -9.913  -7.740 -33.254  1.00  0.00    -0.361 OA
ATOM     21  H6  UNL     1      -9.260  -8.336 -32.908  1.00  0.00     0.213 HD
ENDBRANCH  17  20
ENDBRANCH  11  12
ENDBRANCH   8  11
ENDBRANCH   6   8
ENDBRANCH   1   6
BRANCH   1  22
HETATM   22  S1  UNL     1     -15.701  -4.452 -33.735  1.00  0.00    -0.015 SA
BRANCH  22  23
HETATM   23  S2  UNL     1     -15.095  -2.700 -34.736  1.00  0.00    -0.019 SA
BRANCH  23  24
HETATM   24  C6  UNL     1     -15.545  -2.749 -36.472  1.00  0.00     0.253 C
HETATM   25  O2  UNL     1     -16.207  -1.581 -36.923  1.00  0.00    -0.309 OA
HETATM   26  C8  UNL     1     -17.072  -2.423 -37.618  1.00  0.00     0.326 C
HETATM   27  O3  UNL     1     -16.728  -3.437 -36.744  1.00  0.00    -0.309 OA
BRANCH  24  28
HETATM   28  C7  UNL     1     -14.447  -3.144 -37.437  1.00  0.00     0.246 C
BRANCH  28  29
HETATM   29  O1  UNL     1     -14.275  -4.525 -37.383  1.00  0.00    -0.395 OA
ATOM     30  H1  UNL     1     -13.620  -4.778 -38.023  1.00  0.00     0.209 HD
ENDBRANCH  28  29
ENDBRANCH  24  28
BRANCH  26  31
HETATM   31  C9  UNL     1     -18.519  -1.977 -37.544  1.00  0.00     0.432 C
BRANCH  31  32
HETATM   32  N4  UNL     1     -18.873  -1.826 -36.143  1.00  0.00    -0.045 N
ATOM     33  H43 UNL     1     -18.316  -2.421 -35.529  1.00  0.00     0.277 HD
ATOM     34  H42 UNL     1     -18.585  -0.925 -35.759  1.00  0.00     0.277 HD
ATOM     35  H41 UNL     1     -19.875  -1.991 -36.050  1.00  0.00     0.277 HD
ENDBRANCH  31  32
BRANCH  31  36
HETATM   36  N5  UNL     1     -18.754  -0.746 -38.224  1.00  0.00    -0.045 N
ATOM     37  H53 UNL     1     -17.891  -0.380 -38.625  1.00  0.00     0.277 HD
ATOM     38  H52 UNL     1     -19.284  -0.898 -39.082  1.00  0.00     0.277 HD
ATOM     39  H51 UNL     1     -19.206  -0.048 -37.634  1.00  0.00     0.277 HD
ENDBRANCH  31  36
ENDBRANCH  26  31
ENDBRANCH  23  24
ENDBRANCH  22  23
ENDBRANCH   1  22
TORSDOF 14
ENDMDL