MODEL 2
REMARK VINA RESULT: -6.480295118      4.379      4.981
REMARK  17 active torsions:
REMARK  status: ('A' for Active; 'I' for Inactive)
REMARK    1  A    between atoms: C2_2  and  C3_3
REMARK    2  A    between atoms: C2_2  and  C8_11
REMARK    3  A    between atoms: C3_3  and  C4_4
REMARK    4  A    between atoms: C4_4  and  C5_5
REMARK    5  A    between atoms: C8_11  and  O1_12
REMARK    6  A    between atoms: O1_12  and  C9_13
REMARK    7  A    between atoms: C9_13  and  O2_14
REMARK    8  A    between atoms: C9_13  and  C10_16
REMARK    9  A    between atoms: C10_16  and  N2_17
REMARK   10  A    between atoms: N2_17  and  C11_19
REMARK   11  A    between atoms: C11_19  and  C12_20
REMARK   12  A    between atoms: C12_20  and  S2_21
REMARK   13  A    between atoms: S2_21  and  S3_22
REMARK   14  A    between atoms: S3_22  and  C13_23
REMARK   15  A    between atoms: C13_23  and  C14_24
REMARK   16  A    between atoms: C14_24  and  N3_25
REMARK   17  A    between atoms: N3_25  and  N4_27
ROOT
HETATM    1  C10 UNL     1     -24.507  11.332  24.871  1.00  0.00     0.120 C
ENDROOT
BRANCH   1   2
HETATM    2  C9  UNL     1     -24.776  12.584  25.696  1.00  0.00     0.296 C
BRANCH   2   3
HETATM    3  O1  UNL     1     -25.732  12.394  26.677  1.00  0.00    -0.356 OA
BRANCH   3   4
HETATM    4  C8  UNL     1     -25.261  12.649  27.934  1.00  0.00     0.175 C
BRANCH   4   5
HETATM    5  C2  UNL     1     -23.917  13.273  28.040  1.00  0.00     0.005 C
HETATM    6  C1  UNL     1     -23.026  12.489  29.002  1.00  0.00     0.012 C
BRANCH   5   7
HETATM    7  C3  UNL     1     -24.056  14.687  28.571  1.00  0.00     0.009 C
BRANCH   7   8
HETATM    8  C4  UNL     1     -24.305  14.568  30.056  1.00  0.00     0.036 C
BRANCH   8   9
HETATM    9  C5  UNL     1     -25.619  15.131  30.476  1.00  0.00     0.143 C
HETATM   10  N1  UNL     1     -26.585  14.249  30.946  1.00  0.00    -0.388 N
HETATM   11  C6  UNL     1     -27.279  14.497  31.923  1.00  0.00     0.067 C
ATOM     12  H1  UNL     1     -26.720  13.363  30.460  1.00  0.00     0.159 HD
HETATM   13  C7  UNL     1     -27.078  15.786  32.627  1.00  0.00     0.120 C
HETATM   14  S1  UNL     1     -25.403  16.194  31.966  1.00  0.00    -0.139 SA
ENDBRANCH   8   9
ENDBRANCH   7   8
ENDBRANCH   5   7
ENDBRANCH   4   5
ENDBRANCH   3   4
ENDBRANCH   2   3
BRANCH   2  15
HETATM   15  O2  UNL     1     -25.186  13.587  24.791  1.00  0.00    -0.367 OA
ATOM     16  H2  UNL     1     -25.638  13.202  24.049  1.00  0.00     0.213 HD
ENDBRANCH   2  15
ENDBRANCH   1   2
BRANCH   1  17
HETATM   17  N2  UNL     1     -23.467  10.586  25.459  1.00  0.00    -0.377 N
ATOM     18  H2  UNL     1     -23.058  10.896  26.339  1.00  0.00     0.164 HD
BRANCH  17  19
HETATM   19  C11 UNL     1     -22.989   9.418  24.842  1.00  0.00     0.071 C
BRANCH  19  20
HETATM   20  C12 UNL     1     -23.297   9.189  23.408  1.00  0.00     0.130 C
BRANCH  20  21
HETATM   21  S2  UNL     1     -22.080   9.695  22.215  1.00  0.00    -0.092 SA
BRANCH  21  22
HETATM   22  S3  UNL     1     -22.871  10.799  20.603  1.00  0.00    -0.096 SA
BRANCH  22  23
HETATM   23  C13 UNL     1     -24.415  11.585  21.125  1.00  0.00     0.107 C
BRANCH  23  24
HETATM   24  C14 UNL     1     -24.334  13.080  21.013  1.00  0.00     0.152 C
BRANCH  24  25
HETATM   25  N3  UNL     1     -25.348  13.740  21.814  1.00  0.00    -0.322 N
ATOM     26  H3  UNL     1     -25.267  14.723  22.076  1.00  0.00     0.181 HD
BRANCH  25  27
HETATM   27  N4  UNL     1     -26.325  13.048  22.167  1.00  0.00    -0.254 N
HETATM   28  N5  UNL     1     -27.242  12.785  22.971  1.00  0.00    -0.331 N
ATOM     29  H52 UNL     1     -27.115  13.500  23.687  1.00  0.00     0.178 HD
ATOM     30  H51 UNL     1     -28.041  12.219  23.260  1.00  0.00     0.178 HD
ATOM     31  H4  UNL     1     -26.421  12.348  21.432  1.00  0.00     0.207 HD
ENDBRANCH  25  27
ENDBRANCH  24  25
ENDBRANCH  23  24
ENDBRANCH  22  23
ENDBRANCH  21  22
ENDBRANCH  20  21
ENDBRANCH  19  20
ENDBRANCH  17  19
ENDBRANCH   1  17
TORSDOF 17
ENDMDL