MODEL 2
REMARK VINA RESULT: -7.294897831      3.003      8.698
REMARK  15 active torsions:
REMARK  status: ('A' for Active; 'I' for Inactive)
REMARK    1  A    between atoms: C2_2  and  C3_3
REMARK    2  A    between atoms: C3_3  and  N1_4
REMARK    3  A    between atoms: N1_4  and  C4_6
REMARK    4  A    between atoms: C4_6  and  C5_7
REMARK    5  A    between atoms: C4_6  and  C13_18
REMARK    6  A    between atoms: C5_7  and  C6_8
REMARK    7  A    between atoms: C6_8  and  C7_9
REMARK    8  A    between atoms: C9_11  and  C10_12
REMARK    9  A    between atoms: C10_12  and  C11_13
REMARK   10  A    between atoms: C13_18  and  C14_19
REMARK   11  A    between atoms: C14_19  and  S1_20
REMARK   12  A    between atoms: S1_20  and  S2_21
REMARK   13  A    between atoms: S2_21  and  C15_22
REMARK   14  A    between atoms: C15_22  and  C16_23
REMARK   15  A    between atoms: N3_26  and  O2_28
ROOT
HETATM    1  C4  UNL     1     -25.682  11.541  25.712  1.00  0.00     0.125 C
ENDROOT
BRANCH   1   2
HETATM    2  N1  UNL     1     -26.724  11.955  24.867  1.00  0.00    -0.412 N
ATOM      3  H1  UNL     1     -27.570  11.388  24.815  1.00  0.00     0.153 HD
BRANCH   2   4
HETATM    4  C3  UNL     1     -26.641  13.117  24.093  1.00  0.00     0.114 C
BRANCH   4   5
HETATM    5  C2  UNL     1     -26.306  12.676  22.642  1.00  0.00     0.015 C
HETATM    6  C1  UNL     1     -25.009  13.341  22.245  1.00  0.00     0.006 C
ENDBRANCH   4   5
ENDBRANCH   2   4
ENDBRANCH   1   2
BRANCH   1   7
HETATM    7  C5  UNL     1     -24.947  12.647  26.408  1.00  0.00     0.037 C
BRANCH   7   8
HETATM    8  C6  UNL     1     -24.224  12.197  27.641  1.00  0.00     0.069 C
BRANCH   8   9
HETATM    9  C7  UNL     1     -24.158  13.312  28.657  1.00  0.00     0.078 A
HETATM   10  C8  UNL     1     -25.214  13.873  29.367  1.00  0.00     0.061 A
HETATM   11  C9  UNL     1     -24.717  14.864  30.188  1.00  0.00     0.035 A
HETATM   12  N2  UNL     1     -23.394  14.863  29.943  1.00  0.00    -0.265 N
HETATM   13  O1  UNL     1     -23.096  13.957  29.054  1.00  0.00    -0.242 OA
ATOM     14  H2  UNL     1     -22.719  15.484  30.391  1.00  0.00     0.194 HD
BRANCH  11  15
HETATM   15  C10 UNL     1     -25.483  15.723  31.124  1.00  0.00     0.059 C
BRANCH  15  16
HETATM   16  C11 UNL     1     -26.697  15.053  31.687  1.00  0.00     0.002 C
HETATM   17  C12 UNL     1     -27.010  15.596  33.067  1.00  0.00     0.005 C
ENDBRANCH  15  16
ENDBRANCH  11  15
ENDBRANCH   8   9
ENDBRANCH   7   8
ENDBRANCH   1   7
BRANCH   1  18
HETATM   18  C13 UNL     1     -24.836  10.511  25.102  1.00  0.00     0.042 C
HETATM   19  N3  UNL     1     -25.293   9.281  25.097  1.00  0.00    -0.275 N
ATOM     20  H3  UNL     1     -24.744   8.527  24.684  1.00  0.00     0.193 HD
BRANCH  18  21
HETATM   21  C14 UNL     1     -23.519  10.689  24.474  1.00  0.00     0.142 C
BRANCH  21  22
HETATM   22  S1  UNL     1     -23.325   9.447  23.139  1.00  0.00    -0.092 SA
BRANCH  22  23
HETATM   23  S2  UNL     1     -22.905  10.359  21.280  1.00  0.00    -0.097 SA
BRANCH  23  24
HETATM   24  C15 UNL     1     -24.334  10.461  20.201  1.00  0.00     0.090 C
BRANCH  24  25
HETATM   25  C16 UNL     1     -23.969  10.804  18.795  1.00  0.00    -0.004 A
HETATM   26  C17 UNL     1     -23.463  12.153  18.440  1.00  0.00     0.006 A
HETATM   27  C18 UNL     1     -22.579  10.940  18.313  1.00  0.00     0.006 A
ENDBRANCH  24  25
ENDBRANCH  23  24
ENDBRANCH  22  23
ENDBRANCH  21  22
ENDBRANCH  18  21
BRANCH  19  28
HETATM   28  O2  UNL     1     -26.512   9.024  25.652  1.00  0.00    -0.290 OA
ATOM     29  H2  UNL     1     -26.761   8.124  25.823  1.00  0.00     0.244 HD
ENDBRANCH  19  28
ENDBRANCH   1  18
TORSDOF 15
ENDMDL