MODEL 4
REMARK VINA RESULT: -7.146579000      1.619      2.230
REMARK  14 active torsions:
REMARK  status: ('A' for Active; 'I' for Inactive)
REMARK    1  A    between atoms: C2_2  and  C3_3
REMARK    2  A    between atoms: C3_3  and  C4_4
REMARK    3  A    between atoms: C4_4  and  C5_5
REMARK    4  A    between atoms: C4_4  and  C7_8
REMARK    5  A    between atoms: C5_5  and  O1_6
REMARK    6  A    between atoms: C7_8  and  O2_9
REMARK    7  A    between atoms: O2_9  and  C8_10
REMARK    8  A    between atoms: C8_10  and  C9_11
REMARK    9  A    between atoms: C9_11  and  S1_12
REMARK   10  A    between atoms: S1_12  and  S2_13
REMARK   11  A    between atoms: S2_13  and  C10_14
REMARK   12  A    between atoms: C13_18  and  N2_19
REMARK   13  A    between atoms: N2_19  and  C14_21
REMARK   14  A    between atoms: C14_21  and  C16_23
ROOT
HETATM    1  C10 UNL     1     -23.566  11.651  28.020  1.00  0.00     0.082 A
HETATM    2  C11 UNL     1     -22.947  12.692  28.677  1.00  0.00     0.066 A
HETATM    3  C12 UNL     1     -23.737  13.627  29.313  1.00  0.00     0.076 A
HETATM    4  N1  UNL     1     -23.143  14.712  30.000  1.00  0.00    -0.100 NA
HETATM    5  C13 UNL     1     -25.128  13.563  29.317  1.00  0.00     0.068 A
HETATM    6  C18 UNL     1     -25.693  12.508  28.649  1.00  0.00     0.119 A
HETATM    7  N3  UNL     1     -24.904  11.585  28.021  1.00  0.00    -0.358 N
ATOM      8  H3  UNL     1     -25.355  10.812  27.531  1.00  0.00     0.166 HD
ENDROOT
BRANCH   1   9
HETATM    9  S2  UNL     1     -22.602  10.388  27.164  1.00  0.00    -0.040 SA
BRANCH   9  10
HETATM   10  S1  UNL     1     -23.013  10.444  25.077  1.00  0.00    -0.089 SA
BRANCH  10  11
HETATM   11  C9  UNL     1     -24.614   9.582  24.833  1.00  0.00     0.112 C
BRANCH  11  12
HETATM   12  C8  UNL     1     -25.751  10.549  24.881  1.00  0.00     0.179 C
BRANCH  12  13
HETATM   13  O2  UNL     1     -25.346  11.840  25.017  1.00  0.00    -0.386 OA
BRANCH  13  14
HETATM   14  C7  UNL     1     -26.259  12.729  24.547  1.00  0.00     0.204 C
BRANCH  14  15
HETATM   15  C4  UNL     1     -26.580  12.449  23.046  1.00  0.00    -0.037 C
BRANCH  15  16
HETATM   16  C3  UNL     1     -25.614  13.090  22.170  1.00  0.00    -0.020 C
BRANCH  16  17
HETATM   17  C2  UNL     1     -24.544  12.419  21.445  1.00  0.00     0.023 C
HETATM   18  C1  UNL     1     -24.528  10.931  21.346  1.00  0.00     0.009 C
ENDBRANCH  16  17
ENDBRANCH  15  16
BRANCH  15  19
HETATM   19  C5  UNL     1     -28.030  12.486  22.832  1.00  0.00     0.203 C
BRANCH  19  20
HETATM   20  O1  UNL     1     -28.871  12.724  23.870  1.00  0.00    -0.392 OA
HETATM   21  C6  UNL     1     -29.922  11.826  23.817  1.00  0.00     0.201 C
ENDBRANCH  19  20
ENDBRANCH  15  19
ENDBRANCH  14  15
ENDBRANCH  13  14
ENDBRANCH  12  13
ENDBRANCH  11  12
ENDBRANCH  10  11
ENDBRANCH   9  10
ENDBRANCH   1   9
BRANCH   5  22
HETATM   22  N2  UNL     1     -25.905  14.539  29.990  1.00  0.00    -0.383 N
ATOM     23  H2  UNL     1     -25.933  15.484  29.607  1.00  0.00     0.160 HD
BRANCH  22  24
HETATM   24  C14 UNL     1     -26.660  14.267  31.190  1.00  0.00     0.077 C
HETATM   25  C15 UNL     1     -28.057  13.754  30.860  1.00  0.00     0.032 C
BRANCH  24  26
HETATM   26  C16 UNL     1     -26.778  15.508  32.042  1.00  0.00     0.020 C
HETATM   27  C17 UNL     1     -25.500  16.289  32.102  1.00  0.00     0.007 C
ENDBRANCH  24  26
ENDBRANCH  22  24
ENDBRANCH   5  22
TORSDOF 14
ENDMDL