MODEL 3
REMARK VINA RESULT: -6.881871044      2.419      4.138
REMARK  15 active torsions:
REMARK  status: ('A' for Active; 'I' for Inactive)
REMARK    1  A    between atoms: C2_2  and  C3_3
REMARK    2  A    between atoms: C3_3  and  C4_4
REMARK    3  A    between atoms: C4_4  and  C5_5
REMARK    4  A    between atoms: C5_5  and  O1_6
REMARK    5  A    between atoms: O1_6  and  C6_7
REMARK    6  A    between atoms: C7_8  and  C8_9
REMARK    7  A    between atoms: C8_9  and  C9_10
REMARK    8  A    between atoms: C9_10  and  O2_11
REMARK    9  A    between atoms: O2_11  and  C10_12
REMARK   10  A    between atoms: C10_12  and  C11_13
REMARK   11  A    between atoms: C11_13  and  S1_14
REMARK   12  A    between atoms: S1_14  and  C12_15
REMARK   13  A    between atoms: N1_19  and  C16_20
REMARK   14  A    between atoms: C16_20  and  C17_21
REMARK   15  A    between atoms: C19_24  and  O3_25
ROOT
HETATM    1  C17 UNL     1     -27.697  11.732  24.496  1.00  0.00     0.144 C
HETATM    2  C18 UNL     1     -29.059  12.107  24.119  1.00  0.00     0.060 C
HETATM    3  N2  UNL     1     -30.126  12.386  23.811  1.00  0.00    -0.197 NA
ENDROOT
BRANCH   1   4
HETATM    4  C16 UNL     1     -27.726  10.992  25.823  1.00  0.00     0.144 C
BRANCH   4   5
HETATM    5  N1  UNL     1     -26.357  11.021  26.339  1.00  0.00    -0.334 N
HETATM    6  C15 UNL     1     -25.294  10.566  25.654  1.00  0.00     0.103 A
HETATM    7  C7  UNL     1     -24.144  10.743  26.434  1.00  0.00    -0.003 A
HETATM    8  C6  UNL     1     -24.522  11.312  27.602  1.00  0.00     0.127 A
HETATM    9  C19 UNL     1     -25.906  11.472  27.513  1.00  0.00     0.177 A
BRANCH   7  10
HETATM   10  C8  UNL     1     -22.810  10.357  25.963  1.00  0.00     0.069 C
BRANCH  10  11
HETATM   11  C9  UNL     1     -22.909   9.235  24.923  1.00  0.00     0.172 C
BRANCH  11  12
HETATM   12  O2  UNL     1     -22.457   9.665  23.697  1.00  0.00    -0.390 OA
BRANCH  12  13
HETATM   13  C10 UNL     1     -23.252   9.191  22.682  1.00  0.00     0.177 C
BRANCH  13  14
HETATM   14  C11 UNL     1     -23.887  10.331  21.940  1.00  0.00     0.100 C
BRANCH  14  15
HETATM   15  S1  UNL     1     -22.855  10.905  20.595  1.00  0.00    -0.163 SA
BRANCH  15  16
HETATM   16  C12 UNL     1     -23.784  11.792  19.366  1.00  0.00     0.039 C
HETATM   17  C13 UNL     1     -23.210  11.751  17.991  1.00  0.00     0.021 C
HETATM   18  C14 UNL     1     -23.951  13.230  19.861  1.00  0.00     0.021 C
ENDBRANCH  15  16
ENDBRANCH  14  15
ENDBRANCH  13  14
ENDBRANCH  12  13
ENDBRANCH  11  12
ENDBRANCH  10  11
ENDBRANCH   7  10
BRANCH   8  19
HETATM   19  O1  UNL     1     -23.766  11.671  28.667  1.00  0.00    -0.346 OA
BRANCH  19  20
HETATM   20  C5  UNL     1     -22.897  12.713  28.885  1.00  0.00     0.176 C
BRANCH  20  21
HETATM   21  C4  UNL     1     -23.488  14.092  28.612  1.00  0.00     0.027 C
BRANCH  21  22
HETATM   22  C3  UNL     1     -23.817  14.802  29.893  1.00  0.00     0.002 C
BRANCH  22  23
HETATM   23  C2  UNL     1     -25.271  14.782  30.243  1.00  0.00    -0.004 C
HETATM   24  C1  UNL     1     -25.642  15.641  31.400  1.00  0.00     0.005 C
ENDBRANCH  22  23
ENDBRANCH  21  22
ENDBRANCH  20  21
ENDBRANCH  19  20
ENDBRANCH   8  19
BRANCH   9  25
HETATM   25  O3  UNL     1     -26.717  12.023  28.498  1.00  0.00    -0.344 OA
ATOM     26  H3  UNL     1     -27.181  11.533  29.166  1.00  0.00     0.219 HD
ENDBRANCH   9  25
ENDBRANCH   4   5
ENDBRANCH   1   4
TORSDOF 15
ENDMDL