MODEL 1
REMARK VINA RESULT: -6.601474821      0.000      0.000
REMARK  16 active torsions:
REMARK  status: ('A' for Active; 'I' for Inactive)
REMARK    1  A    between atoms: C2_2  and  C3_3
REMARK    2  A    between atoms: C3_3  and  C4_4
REMARK    3  A    between atoms: C4_4  and  C5_5
REMARK    4  A    between atoms: C5_5  and  C6_6
REMARK    5  A    between atoms: C5_5  and  O1_9
REMARK    6  A    between atoms: C6_6  and  C7_7
REMARK    7  A    between atoms: O1_9  and  C9_10
REMARK    8  A    between atoms: C9_10  and  C10_11
REMARK    9  A    between atoms: C10_11  and  S1_12
REMARK   10  A    between atoms: S1_12  and  S2_13
REMARK   11  A    between atoms: S2_13  and  C11_14
REMARK   12  A    between atoms: C11_14  and  C12_15
REMARK   13  A    between atoms: C12_15  and  O2_16
REMARK   14  A    between atoms: C12_15  and  C13_18
REMARK   15  A    between atoms: C15_22  and  C16_23
REMARK   16  A    between atoms: C16_23  and  O3_24
ROOT
HETATM    1  S2  UNL     1     -27.118  11.624  24.859  1.00  0.00    -0.095 SA
ENDROOT
BRANCH   1   2
HETATM    2  S1  UNL     1     -25.976   9.939  25.374  1.00  0.00    -0.095 SA
BRANCH   2   3
HETATM    3  C10 UNL     1     -24.293  10.423  25.698  1.00  0.00     0.112 C
BRANCH   3   4
HETATM    4  C9  UNL     1     -24.314  11.219  27.014  1.00  0.00     0.179 C
BRANCH   4   5
HETATM    5  O1  UNL     1     -24.283  12.557  26.752  1.00  0.00    -0.381 OA
BRANCH   5   6
HETATM    6  C5  UNL     1     -25.026  13.299  27.752  1.00  0.00     0.144 C
BRANCH   6   7
HETATM    7  C4  UNL     1     -25.660  12.334  28.653  1.00  0.00     0.036 C
BRANCH   7   8
HETATM    8  C3  UNL     1     -26.811  12.689  29.468  1.00  0.00     0.002 C
BRANCH   8   9
HETATM    9  C2  UNL     1     -26.897  13.719  30.485  1.00  0.00    -0.004 C
HETATM   10  C1  UNL     1     -28.117  13.734  31.365  1.00  0.00     0.005 C
ENDBRANCH   8   9
ENDBRANCH   7   8
ENDBRANCH   6   7
BRANCH   6  11
HETATM   11  C6  UNL     1     -24.138  14.399  28.118  1.00  0.00     0.000 C
BRANCH  11  12
HETATM   12  C7  UNL     1     -23.250  14.351  29.284  1.00  0.00    -0.033 C
HETATM   13  C8  UNL     1     -23.459  15.169  30.489  1.00  0.00     0.036 C
ENDBRANCH  11  12
ENDBRANCH   6  11
ENDBRANCH   5   6
ENDBRANCH   4   5
ENDBRANCH   3   4
ENDBRANCH   2   3
ENDBRANCH   1   2
BRANCH   1  14
HETATM   14  C11 UNL     1     -26.724  12.213  23.246  1.00  0.00     0.124 C
BRANCH  14  15
HETATM   15  C12 UNL     1     -25.735  13.302  23.095  1.00  0.00     0.185 C
BRANCH  15  16
HETATM   16  O2  UNL     1     -24.870  13.523  24.120  1.00  0.00    -0.388 OA
ATOM     17  H2  UNL     1     -25.054  13.107  24.954  1.00  0.00     0.210 HD
ENDBRANCH  15  16
BRANCH  15  18
HETATM   18  C13 UNL     1     -24.997  13.022  21.804  1.00  0.00     0.081 A
HETATM   19  N1  UNL     1     -24.578  13.891  20.897  1.00  0.00    -0.360 N
HETATM   20  C14 UNL     1     -23.959  13.466  19.843  1.00  0.00     0.105 A
ATOM     21  H1  UNL     1     -24.742  14.890  21.027  1.00  0.00     0.165 HD
HETATM   22  C15 UNL     1     -23.765  12.114  19.720  1.00  0.00     0.023 A
HETATM   23  S3  UNL     1     -24.495  11.529  21.147  1.00  0.00    -0.075 SA
BRANCH  22  24
HETATM   24  C16 UNL     1     -23.076  11.385  18.590  1.00  0.00     0.211 C
BRANCH  24  25
HETATM   25  O3  UNL     1     -22.959  12.249  17.520  1.00  0.00    -0.396 OA
ATOM     26  H3  UNL     1     -22.047  12.505  17.438  1.00  0.00     0.209 HD
ENDBRANCH  24  25
ENDBRANCH  22  24
ENDBRANCH  15  18
ENDBRANCH  14  15
ENDBRANCH   1  14
TORSDOF 16
ENDMDL