MODEL 1
REMARK VINA RESULT: -8.169023715      0.000      0.000
REMARK  15 active torsions:
REMARK  status: ('A' for Active; 'I' for Inactive)
REMARK    1  A    between atoms: C2_2  and  C3_3
REMARK    2  A    between atoms: C3_3  and  N1_4
REMARK    3  A    between atoms: N1_4  and  C4_5
REMARK    4  A    between atoms: N1_4  and  C7_8
REMARK    5  A    between atoms: C4_5  and  C5_6
REMARK    6  A    between atoms: C7_8  and  C8_9
REMARK    7  A    between atoms: C8_9  and  C9_10
REMARK    8  A    between atoms: C9_10  and  C10_11
REMARK    9  A    between atoms: C10_11  and  O1_12
REMARK   10  A    between atoms: O1_12  and  C11_13
REMARK   11  A    between atoms: C14_16  and  N2_17
REMARK   12  A    between atoms: N2_17  and  N3_18
REMARK   13  A    between atoms: N3_18  and  C15_20
REMARK   14  A    between atoms: C17_26  and  O2_27
REMARK   15  A    between atoms: C19_30  and  O3_31
ROOT
HETATM    1  C11 UNL     1     -25.768  14.533  30.288  1.00  0.00     0.102 A
HETATM    2  C12 UNL     1     -25.034  15.510  30.945  1.00  0.00     0.043 A
HETATM    3  C13 UNL     1     -25.435  15.984  32.165  1.00  0.00     0.050 A
HETATM    4  C14 UNL     1     -26.587  15.515  32.802  1.00  0.00     0.134 A
HETATM    5  C18 UNL     1     -27.329  14.520  32.130  1.00  0.00     0.086 A
HETATM    6  C19 UNL     1     -26.891  14.071  30.904  1.00  0.00     0.104 A
ENDROOT
BRANCH   1   7
HETATM    7  O1  UNL     1     -25.393  14.041  29.046  1.00  0.00    -0.348 OA
BRANCH   7   8
HETATM    8  C10 UNL     1     -24.095  14.367  28.540  1.00  0.00     0.176 C
BRANCH   8   9
HETATM    9  C9  UNL     1     -23.073  13.348  28.740  1.00  0.00     0.032 C
BRANCH   9  10
HETATM   10  C8  UNL     1     -23.365  11.906  28.698  1.00  0.00     0.046 C
BRANCH  10  11
HETATM   11  C7  UNL     1     -22.704  11.098  27.679  1.00  0.00     0.063 C
BRANCH  11  12
HETATM   12  N1  UNL     1     -23.361  10.736  26.490  1.00  0.00    -0.374 N
BRANCH  12  13
HETATM   13  C3  UNL     1     -24.805  10.866  26.693  1.00  0.00     0.126 C
BRANCH  13  14
HETATM   14  C2  UNL     1     -25.583  11.774  25.870  1.00  0.00     0.016 C
HETATM   15  C1  UNL     1     -25.017  12.965  25.215  1.00  0.00     0.006 C
ENDBRANCH  13  14
ENDBRANCH  12  13
BRANCH  12  16
HETATM   16  C4  UNL     1     -23.072   9.708  25.635  1.00  0.00     0.062 C
BRANCH  16  17
HETATM   17  C5  UNL     1     -22.728   9.929  24.188  1.00  0.00     0.040 C
HETATM   18  C6  UNL     1     -22.785   8.589  23.426  1.00  0.00     0.010 C
ENDBRANCH  16  17
ENDBRANCH  12  16
ENDBRANCH  11  12
ENDBRANCH  10  11
ENDBRANCH   9  10
ENDBRANCH   8   9
ENDBRANCH   7   8
ENDBRANCH   1   7
BRANCH   6  19
HETATM   19  O3  UNL     1     -27.630  13.074  30.228  1.00  0.00    -0.353 OA
HETATM   20  C20 UNL     1     -29.028  13.034  30.507  1.00  0.00     0.210 C
ENDBRANCH   6  19
BRANCH   4  21
HETATM   21  N2  UNL     1     -27.041  15.967  33.960  1.00  0.00    -0.324 NA
BRANCH  21  22
HETATM   22  N3  UNL     1     -27.409  16.330  34.932  1.00  0.00    -0.214 N
ATOM     23  H3  UNL     1     -27.967  17.174  34.799  1.00  0.00     0.203 HD
BRANCH  22  24
HETATM   24  C15 UNL     1     -27.355  16.006  36.277  1.00  0.00     0.183 A
HETATM   25  N4  UNL     1     -28.183  15.184  36.939  1.00  0.00    -0.333 N
HETATM   26  C16 UNL     1     -27.764  15.147  38.209  1.00  0.00     0.184 A
ATOM     27  H4  UNL     1     -28.981  14.682  36.548  1.00  0.00     0.168 HD
HETATM   28  N5  UNL     1     -26.675  15.946  38.351  1.00  0.00    -0.330 N
HETATM   29  C17 UNL     1     -26.406  16.489  37.154  1.00  0.00     0.188 A
ATOM     30  H5  UNL     1     -26.154  16.105  39.214  1.00  0.00     0.168 HD
BRANCH  29  31
HETATM   31  O2  UNL     1     -25.351  17.364  36.924  1.00  0.00    -0.343 OA
ATOM     32  H2  UNL     1     -24.650  17.634  37.505  1.00  0.00     0.219 HD
ENDBRANCH  29  31
ENDBRANCH  22  24
ENDBRANCH  21  22
ENDBRANCH   4  21
TORSDOF 15
ENDMDL