MODEL 4
REMARK VINA RESULT: -7.039454306      3.385      4.350
REMARK  16 active torsions:
REMARK  status: ('A' for Active; 'I' for Inactive)
REMARK    1  A    between atoms: O1_2  and  C2_3
REMARK    2  A    between atoms: C2_3  and  C3_4
REMARK    3  A    between atoms: C3_4  and  C4_5
REMARK    4  A    between atoms: C4_5  and  C5_6
REMARK    5  A    between atoms: C5_6  and  C6_7
REMARK    6  A    between atoms: N1_8  and  O2_10
REMARK    7  A    between atoms: O2_10  and  C7_11
REMARK    8  A    between atoms: C7_11  and  C8_12
REMARK    9  A    between atoms: C8_12  and  C9_13
REMARK   10  A    between atoms: C8_12  and  C15_21
REMARK   11  A    between atoms: C10_14  and  C11_15
REMARK   12  A    between atoms: C11_15  and  C12_16
REMARK   13  A    between atoms: C15_21  and  C16_22
REMARK   14  A    between atoms: C16_22  and  O3_23
REMARK   15  A    between atoms: C16_22  and  N2_25
REMARK   16  A    between atoms: N2_25  and  O4_26
ROOT
HETATM    1  C8  UNL     1     -25.574  11.735  25.067  1.00  0.00     0.038 C
ENDROOT
BRANCH   1   2
HETATM    2  C7  UNL     1     -25.139  13.093  25.697  1.00  0.00     0.209 C
BRANCH   2   3
HETATM    3  O2  UNL     1     -24.513  12.596  26.807  1.00  0.00    -0.280 OA
BRANCH   3   4
HETATM    4  N1  UNL     1     -24.008  12.128  27.911  1.00  0.00    -0.282 N
HETATM    5  C6  UNL     1     -23.499  12.947  28.768  1.00  0.00     0.087 C
ATOM      6  H1  UNL     1     -24.016  11.125  28.098  1.00  0.00     0.193 HD
BRANCH   5   7
HETATM    7  C5  UNL     1     -23.354  14.337  28.773  1.00  0.00     0.046 C
BRANCH   7   8
HETATM    8  C4  UNL     1     -23.656  14.897  30.173  1.00  0.00     0.007 C
BRANCH   8   9
HETATM    9  C3  UNL     1     -25.179  15.060  30.368  1.00  0.00     0.027 C
BRANCH   9  10
HETATM   10  C2  UNL     1     -25.381  15.833  31.620  1.00  0.00     0.167 C
BRANCH  10  11
HETATM   11  O1  UNL     1     -26.365  15.412  32.453  1.00  0.00    -0.396 OA
HETATM   12  C1  UNL     1     -27.208  14.517  31.810  1.00  0.00     0.201 C
ENDBRANCH  10  11
ENDBRANCH   9  10
ENDBRANCH   8   9
ENDBRANCH   7   8
ENDBRANCH   5   7
ENDBRANCH   3   4
ENDBRANCH   2   3
ENDBRANCH   1   2
BRANCH   1  13
HETATM   13  C9  UNL     1     -26.591  12.047  23.908  1.00  0.00    -0.024 C
HETATM   14  C10 UNL     1     -27.991  12.304  24.067  1.00  0.00    -0.029 C
BRANCH  14  15
HETATM   15  C11 UNL     1     -28.974  11.288  24.523  1.00  0.00     0.042 C
BRANCH  15  16
HETATM   16  C12 UNL     1     -30.201  11.211  23.635  1.00  0.00     0.062 C
HETATM   17  C13 UNL     1     -30.944   9.937  24.077  1.00  0.00     0.027 C
HETATM   18  C14 UNL     1     -32.079   9.747  23.066  1.00  0.00     0.087 C
HETATM   19  S1  UNL     1     -33.154  11.160  23.569  1.00  0.00    -0.097 SA
HETATM   20  S2  UNL     1     -31.489  12.443  24.118  1.00  0.00    -0.092 SA
ENDBRANCH  15  16
ENDBRANCH  14  15
ENDBRANCH   1  13
BRANCH   1  21
HETATM   21  C15 UNL     1     -24.225  11.147  24.400  1.00  0.00     0.062 C
BRANCH  21  22
HETATM   22  C16 UNL     1     -23.953   9.857  24.818  1.00  0.00     0.238 C
BRANCH  22  23
HETATM   23  O3  UNL     1     -25.282   9.043  25.167  1.00  0.00    -0.378 OA
ATOM     24  H3  UNL     1     -26.011   9.295  24.612  1.00  0.00     0.211 HD
ENDBRANCH  22  23
BRANCH  22  25
HETATM   25  N2  UNL     1     -23.082   8.819  25.105  1.00  0.00    -0.071 NA
BRANCH  25  26
HETATM   26  O4  UNL     1     -23.017   9.205  26.697  1.00  0.00    -0.294 OA
ATOM     27  H4  UNL     1     -22.102   9.454  26.648  1.00  0.00     0.238 HD
ENDBRANCH  25  26
ENDBRANCH  22  25
ENDBRANCH  21  22
ENDBRANCH   1  21
TORSDOF 16
ENDMDL