MODEL 3
REMARK VINA RESULT: -6.748788348      2.255      3.460
REMARK  15 active torsions:
REMARK  status: ('A' for Active; 'I' for Inactive)
REMARK    1  A    between atoms: N1_3  and  N2_5
REMARK    2  A    between atoms: N3_7  and  C3_9
REMARK    3  A    between atoms: C6_12  and  C7_13
REMARK    4  A    between atoms: C7_13  and  O1_14
REMARK    5  A    between atoms: C7_13  and  C8_16
REMARK    6  A    between atoms: C8_16  and  C9_17
REMARK    7  A    between atoms: C9_17  and  C10_18
REMARK    8  A    between atoms: C10_18  and  C11_19
REMARK    9  A    between atoms: C11_19  and  S1_20
REMARK   10  A    between atoms: S1_20  and  S2_21
REMARK   11  A    between atoms: S2_21  and  C12_22
REMARK   12  A    between atoms: C12_22  and  C13_23
REMARK   13  A    between atoms: C13_23  and  O2_24
REMARK   14  A    between atoms: C15_27  and  O3_28
REMARK   15  A    between atoms: O3_28  and  C16_29
ROOT
HETATM    1  C3  UNL     1     -26.397  10.132  26.634  1.00  0.00     0.082 A
HETATM    2  C4  UNL     1     -26.525  10.293  27.990  1.00  0.00     0.034 A
HETATM    3  C5  UNL     1     -25.540  10.939  28.712  1.00  0.00     0.012 A
HETATM    4  C6  UNL     1     -24.441  11.412  28.055  1.00  0.00    -0.027 A
HETATM    5  C14 UNL     1     -24.287  11.260  26.674  1.00  0.00     0.049 A
HETATM    6  C15 UNL     1     -25.268  10.616  25.951  1.00  0.00     0.097 A
ENDROOT
BRANCH   4   7
HETATM    7  C7  UNL     1     -23.318  12.130  28.758  1.00  0.00     0.151 C
BRANCH   7   8
HETATM    8  O1  UNL     1     -22.102  11.651  28.207  1.00  0.00    -0.391 OA
ATOM      9  H1  UNL     1     -21.468  12.357  28.267  1.00  0.00     0.210 HD
ENDBRANCH   7   8
BRANCH   7  10
HETATM   10  C8  UNL     1     -23.476  13.596  28.453  1.00  0.00     0.036 C
BRANCH  10  11
HETATM   11  C9  UNL     1     -23.662  14.429  29.688  1.00  0.00     0.004 C
BRANCH  11  12
HETATM   12  C10 UNL     1     -25.097  14.773  29.860  1.00  0.00     0.011 C
BRANCH  12  13
HETATM   13  C11 UNL     1     -25.337  15.518  31.198  1.00  0.00     0.086 C
BRANCH  13  14
HETATM   14  S1  UNL     1     -26.946  14.925  31.738  1.00  0.00    -0.098 SA
BRANCH  14  15
HETATM   15  S2  UNL     1     -27.654  13.324  30.607  1.00  0.00    -0.096 SA
BRANCH  15  16
HETATM   16  C12 UNL     1     -29.418  13.154  30.765  1.00  0.00     0.112 C
BRANCH  16  17
HETATM   17  C13 UNL     1     -29.822  12.030  31.650  1.00  0.00     0.175 C
BRANCH  17  18
HETATM   18  O2  UNL     1     -29.253  10.855  31.227  1.00  0.00    -0.400 OA
ATOM     19  H2  UNL     1     -29.382  10.171  31.874  1.00  0.00     0.209 HD
ENDBRANCH  17  18
ENDBRANCH  16  17
ENDBRANCH  15  16
ENDBRANCH  14  15
ENDBRANCH  13  14
ENDBRANCH  12  13
ENDBRANCH  11  12
ENDBRANCH  10  11
ENDBRANCH   7  10
ENDBRANCH   4   7
BRANCH   6  20
HETATM   20  O3  UNL     1     -25.174  10.439  24.605  1.00  0.00    -0.349 OA
BRANCH  20  21
HETATM   21  C16 UNL     1     -24.444  11.215  23.707  1.00  0.00     0.171 C
HETATM   22  C17 UNL     1     -25.230  12.429  23.265  1.00  0.00     0.034 C
ENDBRANCH  20  21
ENDBRANCH   6  20
BRANCH   1  23
HETATM   23  N3  UNL     1     -27.387   9.474  25.865  1.00  0.00    -0.284 N
HETATM   24  N2  UNL     1     -28.191  10.033  25.084  1.00  0.00    -0.243 N
ATOM     25  H2  UNL     1     -28.849   9.424  24.598  1.00  0.00     0.208 HD
ATOM     26  H3  UNL     1     -27.451   8.460  25.954  1.00  0.00     0.188 HD
BRANCH  24  27
HETATM   27  N1  UNL     1     -28.287  11.377  24.809  1.00  0.00    -0.302 N
HETATM   28  C2  UNL     1     -29.314  11.842  24.195  1.00  0.00     0.077 C
HETATM   29  C1  UNL     1     -30.391  10.931  23.785  1.00  0.00     0.056 C
ATOM     30  H1  UNL     1     -27.538  12.007  25.095  1.00  0.00     0.187 HD
ENDBRANCH  24  27
ENDBRANCH   1  23
TORSDOF 15
ENDMDL