MODEL 3
REMARK VINA RESULT: -6.668906961      3.500      5.129
REMARK  17 active torsions:
REMARK  status: ('A' for Active; 'I' for Inactive)
REMARK    1  A    between atoms: C2_2  and  C3_3
REMARK    2  A    between atoms: C3_3  and  C4_4
REMARK    3  A    between atoms: C4_4  and  C5_5
REMARK    4  A    between atoms: C5_5  and  C6_6
REMARK    5  A    between atoms: C6_6  and  C7_7
REMARK    6  A    between atoms: N1_9  and  O1_11
REMARK    7  A    between atoms: O1_11  and  C9_12
REMARK    8  A    between atoms: C9_12  and  C10_13
REMARK    9  A    between atoms: C9_12  and  O3_16
REMARK   10  A    between atoms: C10_13  and  O2_14
REMARK   11  A    between atoms: O3_16  and  C11_17
REMARK   12  A    between atoms: C11_17  and  C12_18
REMARK   13  A    between atoms: C12_18  and  O4_19
REMARK   14  A    between atoms: C12_18  and  C13_21
REMARK   15  A    between atoms: C13_21  and  O5_22
REMARK   16  A    between atoms: O5_22  and  C14_23
REMARK   17  A    between atoms: C14_23  and  C15_24
ROOT
HETATM    1  C9  UNL     1     -23.902  10.907  25.038  1.00  0.00     0.311 C
ENDROOT
BRANCH   1   2
HETATM    2  O1  UNL     1     -24.196  11.731  26.139  1.00  0.00    -0.246 OA
BRANCH   2   3
HETATM    3  N1  UNL     1     -25.167  11.564  27.051  1.00  0.00    -0.272 N
HETATM    4  C5  UNL     1     -25.502  12.357  28.028  1.00  0.00     0.010 C
ATOM      5  H1  UNL     1     -25.713  10.707  26.968  1.00  0.00     0.193 HD
BRANCH   4   6
HETATM    6  C4  UNL     1     -24.802  13.623  28.268  1.00  0.00     0.054 C
BRANCH   6   7
HETATM    7  C3  UNL     1     -23.538  13.410  29.109  1.00  0.00     0.005 C
BRANCH   7   8
HETATM    8  C2  UNL     1     -23.239  14.776  29.749  1.00  0.00    -0.004 C
HETATM    9  C1  UNL     1     -24.484  15.146  30.541  1.00  0.00     0.005 C
ENDBRANCH   7   8
ENDBRANCH   6   7
ENDBRANCH   4   6
BRANCH   4  10
HETATM   10  C6  UNL     1     -26.624  11.911  28.865  1.00  0.00     0.054 C
BRANCH  10  11
HETATM   11  C7  UNL     1     -27.142  12.886  29.845  1.00  0.00     0.001 C
HETATM   12  C8  UNL     1     -28.560  12.775  30.264  1.00  0.00     0.005 C
ENDBRANCH  10  11
ENDBRANCH   4  10
ENDBRANCH   2   3
ENDBRANCH   1   2
BRANCH   1  13
HETATM   13  C10 UNL     1     -24.727   9.656  24.947  1.00  0.00     0.227 C
BRANCH  13  14
HETATM   14  O2  UNL     1     -24.043   8.534  24.549  1.00  0.00    -0.396 OA
ATOM     15  H2  UNL     1     -23.151   8.470  24.868  1.00  0.00     0.209 HD
ENDBRANCH  13  14
ENDBRANCH   1  13
BRANCH   1  16
HETATM   16  O3  UNL     1     -24.125  11.668  23.850  1.00  0.00    -0.354 OA
BRANCH  16  17
HETATM   17  C11 UNL     1     -25.431  11.535  23.450  1.00  0.00     0.205 C
BRANCH  17  18
HETATM   18  C12 UNL     1     -26.118  12.899  23.309  1.00  0.00     0.165 C
BRANCH  18  19
HETATM   19  O4  UNL     1     -26.030  13.440  24.621  1.00  0.00    -0.391 OA
ATOM     20  H4  UNL     1     -26.936  13.469  24.902  1.00  0.00     0.210 HD
ENDBRANCH  18  19
BRANCH  18  21
HETATM   21  C13 UNL     1     -27.558  12.729  22.992  1.00  0.00     0.201 C
BRANCH  21  22
HETATM   22  O5  UNL     1     -28.424  12.586  23.963  1.00  0.00    -0.384 OA
BRANCH  22  23
HETATM   23  C14 UNL     1     -29.102  11.527  24.359  1.00  0.00     0.206 C
BRANCH  23  24
HETATM   24  C15 UNL     1     -30.579  11.433  24.056  1.00  0.00    -0.028 A
HETATM   25  C16 UNL     1     -31.437  12.484  24.095  1.00  0.00     0.017 A
HETATM   26  C17 UNL     1     -32.750  12.247  23.838  1.00  0.00     0.050 A
HETATM   27  S1  UNL     1     -32.786  10.568  23.547  1.00  0.00    -0.113 SA
HETATM   28  C18 UNL     1     -31.138  10.212  23.756  1.00  0.00     0.058 A
ENDBRANCH  23  24
ENDBRANCH  22  23
ENDBRANCH  21  22
ENDBRANCH  18  21
ENDBRANCH  17  18
ENDBRANCH  16  17
ENDBRANCH   1  16
TORSDOF 17
ENDMDL