MODEL 5
REMARK VINA RESULT: -6.767031872      3.057      7.805
REMARK  14 active torsions:
REMARK  status: ('A' for Active; 'I' for Inactive)
REMARK    1  A    between atoms: C2_2  and  C3_3
REMARK    2  A    between atoms: C3_3  and  C4_4
REMARK    3  A    between atoms: C4_4  and  N1_5
REMARK    4  A    between atoms: N1_5  and  C5_6
REMARK    5  A    between atoms: N1_5  and  C9_10
REMARK    6  A    between atoms: C5_6  and  C6_7
REMARK    7  A    between atoms: C6_7  and  C7_8
REMARK    8  A    between atoms: C10_12  and  C11_13
REMARK    9  A    between atoms: C11_13  and  C12_14
REMARK   10  A    between atoms: C12_14  and  S1_15
REMARK   11  A    between atoms: S1_15  and  C13_16
REMARK   12  A    between atoms: C13_16  and  C14_17
REMARK   13  A    between atoms: C17_22  and  N4_23
REMARK   14  A    between atoms: N4_23  and  O2_25
ROOT
HETATM    1  C14 UNL     1     -23.450  15.115  30.512  1.00  0.00     0.134 C
HETATM    2  C15 UNL     1     -24.771  15.466  30.942  1.00  0.00     0.059 C
HETATM    3  N2  UNL     1     -25.821  15.749  31.324  1.00  0.00    -0.197 NA
ENDROOT
BRANCH   1   4
HETATM    4  C13 UNL     1     -23.361  14.403  29.211  1.00  0.00     0.088 C
BRANCH   4   5
HETATM    5  S1  UNL     1     -24.817  13.487  28.796  1.00  0.00    -0.168 SA
BRANCH   5   6
HETATM    6  C12 UNL     1     -24.636  11.786  28.314  1.00  0.00     0.080 C
BRANCH   6   7
HETATM    7  C11 UNL     1     -23.323  11.629  27.567  1.00  0.00     0.077 C
BRANCH   7   8
HETATM    8  C10 UNL     1     -23.449  10.972  26.252  1.00  0.00     0.083 A
HETATM    9  O1  UNL     1     -23.930  11.610  25.189  1.00  0.00    -0.294 OA
HETATM   10  C9  UNL     1     -23.940  10.808  24.130  1.00  0.00     0.180 A
HETATM   11  C17 UNL     1     -23.453   9.603  24.503  1.00  0.00     0.132 A
HETATM   12  C16 UNL     1     -23.135   9.703  25.865  1.00  0.00     0.109 A
HETATM   13  N3  UNL     1     -22.589   8.704  26.686  1.00  0.00    -0.097 NA
BRANCH  10  14
HETATM   14  N1  UNL     1     -24.399  11.257  22.871  1.00  0.00    -0.339 N
BRANCH  14  15
HETATM   15  C4  UNL     1     -24.394  10.605  21.610  1.00  0.00     0.066 C
BRANCH  15  16
HETATM   16  C3  UNL     1     -23.454  10.974  20.549  1.00  0.00     0.044 C
BRANCH  16  17
HETATM   17  C2  UNL     1     -23.992  11.581  19.296  1.00  0.00     0.001 C
HETATM   18  C1  UNL     1     -23.206  11.150  18.068  1.00  0.00     0.005 C
ENDBRANCH  16  17
ENDBRANCH  15  16
ENDBRANCH  14  15
BRANCH  14  19
HETATM   19  C5  UNL     1     -25.042  12.585  22.903  1.00  0.00     0.130 C
BRANCH  19  20
HETATM   20  C6  UNL     1     -26.462  12.525  22.475  1.00  0.00     0.020 C
BRANCH  20  21
HETATM   21  C7  UNL     1     -27.435  12.917  23.560  1.00  0.00    -0.003 C
HETATM   22  C8  UNL     1     -27.525  11.799  24.614  1.00  0.00     0.005 C
ENDBRANCH  20  21
ENDBRANCH  19  20
ENDBRANCH  14  19
ENDBRANCH  10  14
BRANCH  11  23
HETATM   23  N4  UNL     1     -23.253   8.408  23.755  1.00  0.00    -0.261 N
ATOM     24  H4  UNL     1     -24.074   7.941  23.371  1.00  0.00     0.194 HD
BRANCH  23  25
HETATM   25  O2  UNL     1     -22.060   7.863  23.528  1.00  0.00    -0.285 OA
HETATM   26  C18 UNL     1     -21.400   8.563  22.538  1.00  0.00     0.237 C
ENDBRANCH  23  25
ENDBRANCH  11  23
ENDBRANCH   7   8
ENDBRANCH   6   7
ENDBRANCH   5   6
ENDBRANCH   4   5
ENDBRANCH   1   4
TORSDOF 14
ENDMDL