MODEL 4
REMARK VINA RESULT: -6.410118517      2.566      3.913
REMARK  14 active torsions:
REMARK  status: ('A' for Active; 'I' for Inactive)
REMARK    1  A    between atoms: N1_2  and  C3_4
REMARK    2  A    between atoms: N1_2  and  C13_31
REMARK    3  A    between atoms: C3_4  and  C4_5
REMARK    4  A    between atoms: C5_6  and  C6_7
REMARK    5  A    between atoms: C6_7  and  N2_8
REMARK    6  A    between atoms: N2_8  and  C7_10
REMARK    7  A    between atoms: C8_13  and  N4_14
REMARK    8  A    between atoms: N4_14  and  C9_16
REMARK    9  A    between atoms: C10_19  and  C11_20
REMARK   10  A    between atoms: C11_20  and  O1_21
REMARK   11  A    between atoms: C12_25  and  N8_26
REMARK   12  A    between atoms: C13_31  and  C14_32
REMARK   13  A    between atoms: C14_32  and  C15_33
REMARK   14  A    between atoms: C15_33  and  N10_34
ROOT
HETATM    1  C7  UNL     1     -45.518  43.002 -32.787  1.00  0.00     0.707 A
HETATM    2  N3  UNL     1     -45.516  44.071 -31.971  1.00  0.00    -0.021 N
ATOM      3  H3  UNL     1     -44.930  44.085 -31.137  1.00  0.00     0.203 HD
HETATM    4  C8  UNL     1     -46.305  45.127 -32.277  1.00  0.00     0.708 A
HETATM    5  N7  UNL     1     -47.053  45.050 -33.388  1.00  0.00    -0.022 N
ATOM      6  H7  UNL     1     -47.649  45.844 -33.623  1.00  0.00     0.203 HD
HETATM    7  C12 UNL     1     -47.061  43.997 -34.199  1.00  0.00     0.705 A
HETATM    8  N9  UNL     1     -46.286  42.944 -33.911  1.00  0.00    -0.022 N
ATOM      9  H9  UNL     1     -46.272  42.122 -34.516  1.00  0.00     0.203 HD
ENDROOT
BRANCH   1  10
HETATM   10  N2  UNL     1     -44.797  41.963 -32.563  1.00  0.00    -0.222 N
ATOM     11  H2  UNL     1     -45.189  41.058 -32.820  1.00  0.00     0.178 HD
BRANCH  10  12
HETATM   12  C6  UNL     1     -43.478  41.972 -31.976  1.00  0.00     0.165 C
BRANCH  12  13
HETATM   13  C5  UNL     1     -43.285  40.842 -31.063  1.00  0.00    -0.009 C
HETATM   14  C4  UNL     1     -42.311  39.948 -31.091  1.00  0.00    -0.002 C
BRANCH  14  15
HETATM   15  C3  UNL     1     -41.195  39.877 -32.038  1.00  0.00     0.263 C
BRANCH  15  16
HETATM   16  N1  UNL     1     -41.009  38.511 -32.558  1.00  0.00    -0.072 N
HETATM   17  C1  UNL     1     -41.850  37.640 -31.717  1.00  0.00     0.272 C
HETATM   18  C2  UNL     1     -39.662  38.146 -32.339  1.00  0.00     0.272 C
BRANCH  16  19
HETATM   19  C13 UNL     1     -41.504  38.466 -33.874  1.00  0.00     0.238 C
BRANCH  19  20
HETATM   20  C14 UNL     1     -42.877  37.960 -34.099  1.00  0.00     0.055 C
BRANCH  20  21
HETATM   21  C15 UNL     1     -43.905  38.999 -34.450  1.00  0.00     0.231 C
BRANCH  21  22
HETATM   22  N10 UNL     1     -45.122  38.784 -33.688  1.00  0.00    -0.079 N
ATOM     23 3H10 UNL     1     -45.945  38.752 -34.289  1.00  0.00     0.274 HD
ATOM     24 2H10 UNL     1     -45.172  37.838 -33.312  1.00  0.00     0.274 HD
ATOM     25 1H10 UNL     1     -45.211  39.489 -32.957  1.00  0.00     0.274 HD
ENDBRANCH  21  22
ENDBRANCH  20  21
ENDBRANCH  19  20
ENDBRANCH  16  19
ENDBRANCH  15  16
ENDBRANCH  14  15
ENDBRANCH  12  13
ENDBRANCH  10  12
ENDBRANCH   1  10
BRANCH   4  26
HETATM   26  N4  UNL     1     -46.335  46.276 -31.448  1.00  0.00    -0.204 N
ATOM     27  H4  UNL     1     -45.904  47.141 -31.775  1.00  0.00     0.179 HD
BRANCH  26  28
HETATM   28  C9  UNL     1     -46.957  46.247 -30.162  1.00  0.00     0.232 C
HETATM   29  N5  UNL     1     -47.500  44.984 -29.781  1.00  0.00    -0.120 NA
HETATM   30  N6  UNL     1     -46.409  44.769 -28.953  1.00  0.00    -0.136 NA
HETATM   31  C10 UNL     1     -46.045  46.168 -28.983  1.00  0.00     0.159 C
BRANCH  31  32
HETATM   32  C11 UNL     1     -46.581  46.992 -27.831  1.00  0.00     0.190 C
BRANCH  32  33
HETATM   33  O1  UNL     1     -46.742  46.097 -26.754  1.00  0.00    -0.399 OA
ATOM     34  H1  UNL     1     -47.591  45.689 -26.878  1.00  0.00     0.209 HD
ENDBRANCH  32  33
ENDBRANCH  31  32
ENDBRANCH  26  28
ENDBRANCH   4  26
BRANCH   7  35
HETATM   35  N8  UNL     1     -47.816  44.021 -35.243  1.00  0.00    -0.234 N
ATOM     36  H82 UNL     1     -48.735  44.463 -35.232  1.00  0.00     0.174 HD
ATOM     37  H81 UNL     1     -47.483  43.584 -36.102  1.00  0.00     0.174 HD
ENDBRANCH   7  35
TORSDOF 14
ENDMDL