MODEL 1
REMARK VINA RESULT: -6.619215781      0.000      0.000
REMARK  11 active torsions:
REMARK  status: ('A' for Active; 'I' for Inactive)
REMARK    1  A    between atoms: C4_6  and  S1_7
REMARK    2  A    between atoms: S1_7  and  S2_8
REMARK    3  A    between atoms: S2_8  and  C5_9
REMARK    4  A    between atoms: C5_9  and  C6_10
REMARK    5  A    between atoms: C6_10  and  N2_11
REMARK    6  A    between atoms: N2_11  and  C7_14
REMARK    7  A    between atoms: C7_14  and  C8_15
REMARK    8  A    between atoms: C8_15  and  C9_16
REMARK    9  A    between atoms: C9_16  and  C10_17
REMARK   10  A    between atoms: C10_17  and  N3_18
REMARK   11  A    between atoms: C12_26  and  N7_27
ROOT
HETATM    1  S1  UNL     1     -43.657  40.928 -34.555  1.00  0.00    -0.062 SA
ENDROOT
BRANCH   1   2
HETATM    2  C4  UNL     1     -44.331  41.732 -33.060  1.00  0.00     0.277 C
HETATM    3  C3  UNL     1     -43.492  42.855 -32.578  1.00  0.00     0.159 C
HETATM    4  N1  UNL     1     -43.963  44.173 -32.800  1.00  0.00    -0.411 N
HETATM    5  C2  UNL     1     -45.333  44.349 -33.123  1.00  0.00     0.122 C
ATOM      6  H1  UNL     1     -43.334  44.974 -32.730  1.00  0.00     0.153 HD
HETATM    7  C1  UNL     1     -45.792  45.703 -32.620  1.00  0.00     0.036 C
HETATM    8  C12 UNL     1     -46.128  43.224 -32.512  1.00  0.00     0.309 C
HETATM    9  N6  UNL     1     -45.737  42.021 -33.218  1.00  0.00    -0.037 N
ATOM     10  H62 UNL     1     -45.996  42.069 -34.203  1.00  0.00     0.281 HD
ATOM     11  H61 UNL     1     -46.311  41.225 -32.939  1.00  0.00     0.281 HD
BRANCH   8  12
HETATM   12  N7  UNL     1     -45.920  43.106 -31.097  1.00  0.00    -0.338 N
HETATM   13  C13 UNL     1     -46.891  43.078 -30.235  1.00  0.00     0.198 C
HETATM   14  N8  UNL     1     -46.650  42.961 -28.852  1.00  0.00    -0.067 NA
HETATM   15  N9  UNL     1     -48.216  43.172 -30.779  1.00  0.00    -0.067 NA
ATOM     16  H7  UNL     1     -44.962  43.040 -30.753  1.00  0.00     0.164 HD
ENDBRANCH   8  12
ENDBRANCH   1   2
BRANCH   1  17
HETATM   17  S2  UNL     1     -42.483  39.250 -34.060  1.00  0.00    -0.094 SA
BRANCH  17  18
HETATM   18  C5  UNL     1     -42.959  38.532 -32.466  1.00  0.00     0.113 C
BRANCH  18  19
HETATM   19  C6  UNL     1     -43.142  37.042 -32.559  1.00  0.00     0.243 C
BRANCH  19  20
HETATM   20  N2  UNL     1     -42.805  36.395 -31.337  1.00  0.00    -0.074 N
ATOM     21  H22 UNL     1     -43.289  36.820 -30.547  1.00  0.00     0.277 HD
ATOM     22  H21 UNL     1     -43.208  35.459 -31.288  1.00  0.00     0.277 HD
BRANCH  20  23
HETATM   23  C7  UNL     1     -41.395  36.365 -31.127  1.00  0.00     0.232 C
BRANCH  23  24
HETATM   24  C8  UNL     1     -40.955  35.739 -29.848  1.00  0.00     0.029 C
BRANCH  24  25
HETATM   25  C9  UNL     1     -41.923  34.734 -29.274  1.00  0.00     0.021 C
BRANCH  25  26
HETATM   26  C10 UNL     1     -41.616  33.404 -29.931  1.00  0.00     0.122 C
BRANCH  26  27
HETATM   27  N3  UNL     1     -42.858  32.657 -29.995  1.00  0.00    -0.367 N
HETATM   28  C11 UNL     1     -43.515  32.650 -31.092  1.00  0.00     0.196 C
HETATM   29  N4  UNL     1     -44.727  31.926 -31.170  1.00  0.00    -0.067 NA
HETATM   30  N5  UNL     1     -43.031  33.356 -32.212  1.00  0.00    -0.067 NA
ATOM     31  H3  UNL     1     -43.200  32.148 -29.180  1.00  0.00     0.161 HD
ENDBRANCH  26  27
ENDBRANCH  25  26
ENDBRANCH  24  25
ENDBRANCH  23  24
ENDBRANCH  20  23
ENDBRANCH  19  20
ENDBRANCH  18  19
ENDBRANCH  17  18
ENDBRANCH   1  17
TORSDOF 11
ENDMDL