MODEL 3
REMARK VINA RESULT: -5.923480585      2.164      3.968
REMARK  14 active torsions:
REMARK  status: ('A' for Active; 'I' for Inactive)
REMARK    1  A    between atoms: C2_2  and  C3_3
REMARK    2  A    between atoms: C3_3  and  N1_4
REMARK    3  A    between atoms: N1_4  and  C4_5
REMARK    4  A    between atoms: N1_4  and  C6_9
REMARK    5  A    between atoms: C4_5  and  C5_6
REMARK    6  A    between atoms: C5_6  and  O1_7
REMARK    7  A    between atoms: C6_9  and  C7_10
REMARK    8  A    between atoms: C7_10  and  N2_11
REMARK    9  A    between atoms: N2_11  and  C8_14
REMARK   10  A    between atoms: C8_14  and  C9_15
REMARK   11  A    between atoms: C9_15  and  C10_16
REMARK   12  A    between atoms: C10_16  and  N3_17
REMARK   13  A    between atoms: N3_17  and  C11_19
REMARK   14  A    between atoms: C13_25  and  N6_26
ROOT
HETATM    1  N3  UNL     1     -43.385  41.700 -33.956  1.00  0.00    -0.226 N
ATOM      2  H3  UNL     1     -42.509  41.891 -33.470  1.00  0.00     0.177 HD
ENDROOT
BRANCH   1   3
HETATM    3  C10 UNL     1     -43.404  40.791 -35.079  1.00  0.00     0.139 C
BRANCH   3   4
HETATM    4  C9  UNL     1     -42.175  39.897 -35.094  1.00  0.00     0.048 C
BRANCH   4   5
HETATM    5  C8  UNL     1     -41.333  40.257 -33.897  1.00  0.00     0.234 C
BRANCH   5   6
HETATM    6  N2  UNL     1     -40.514  39.187 -33.436  1.00  0.00    -0.074 N
ATOM      7  H22 UNL     1     -39.612  39.176 -33.911  1.00  0.00     0.277 HD
ATOM      8  H21 UNL     1     -40.869  38.283 -33.751  1.00  0.00     0.277 HD
BRANCH   6   9
HETATM    9  C7  UNL     1     -40.357  39.223 -32.001  1.00  0.00     0.252 C
BRANCH   9  10
HETATM   10  C6  UNL     1     -41.691  38.881 -31.376  1.00  0.00     0.149 C
BRANCH  10  11
HETATM   11  N1  UNL     1     -41.905  37.483 -31.450  1.00  0.00    -0.386 N
BRANCH  11  12
HETATM   12  C3  UNL     1     -41.193  36.638 -30.578  1.00  0.00     0.084 C
BRANCH  12  13
HETATM   13  C2  UNL     1     -41.783  35.288 -30.365  1.00  0.00     0.007 C
HETATM   14  C1  UNL     1     -41.775  34.688 -29.190  1.00  0.00     0.012 C
ENDBRANCH  12  13
ENDBRANCH  11  12
BRANCH  11  15
HETATM   15  C4  UNL     1     -43.149  37.048 -31.954  1.00  0.00     0.148 C
BRANCH  15  16
HETATM   16  C5  UNL     1     -43.998  38.228 -32.353  1.00  0.00     0.183 C
BRANCH  16  17
HETATM   17  O1  UNL     1     -45.234  37.829 -32.863  1.00  0.00    -0.399 OA
ATOM     18  H1  UNL     1     -45.895  38.502 -32.752  1.00  0.00     0.209 HD
ENDBRANCH  16  17
ENDBRANCH  15  16
ENDBRANCH  11  15
ENDBRANCH  10  11
ENDBRANCH   9  10
ENDBRANCH   6   9
ENDBRANCH   5   6
ENDBRANCH   4   5
ENDBRANCH   3   4
ENDBRANCH   1   3
BRANCH   1  19
HETATM   19  C11 UNL     1     -44.475  42.271 -33.569  1.00  0.00     0.680 A
HETATM   20  N4  UNL     1     -45.092  42.296 -32.385  1.00  0.00    -0.174 N
HETATM   21  C12 UNL     1     -46.228  43.017 -32.437  1.00  0.00     0.169 A
ATOM     22  H4  UNL     1     -44.747  41.829 -31.548  1.00  0.00     0.186 HD
HETATM   23  N5  UNL     1     -47.163  43.319 -31.520  1.00  0.00    -0.174 N
HETATM   24  C15 UNL     1     -46.330  43.474 -33.739  1.00  0.00     0.162 A
HETATM   25  C13 UNL     1     -48.216  44.077 -31.870  1.00  0.00     0.680 A
ATOM     26  H5  UNL     1     -47.073  42.975 -30.564  1.00  0.00     0.186 HD
HETATM   27  N7  UNL     1     -48.352  44.545 -33.141  1.00  0.00    -0.154 N
HETATM   28  C14 UNL     1     -47.428  44.248 -34.052  1.00  0.00     0.290 A
ATOM     29  H7  UNL     1     -49.157  45.120 -33.394  1.00  0.00     0.187 HD
HETATM   30  O2  UNL     1     -47.533  44.673 -35.251  1.00  0.00    -0.265 OA
HETATM   31  N8  UNL     1     -45.259  43.009 -34.403  1.00  0.00    -0.182 N
ATOM     32  H8  UNL     1     -45.061  43.183 -35.388  1.00  0.00     0.184 HD
BRANCH  25  33
HETATM   33  N6  UNL     1     -49.133  44.387 -31.009  1.00  0.00    -0.234 N
ATOM     34  H62 UNL     1     -49.686  43.630 -30.607  1.00  0.00     0.174 HD
ATOM     35  H61 UNL     1     -49.299  45.358 -30.742  1.00  0.00     0.174 HD
ENDBRANCH  25  33
ENDBRANCH   1  19
TORSDOF 14
ENDMDL