MODEL 1
REMARK VINA RESULT: -6.310008524      0.000      0.000
REMARK  12 active torsions:
REMARK  status: ('A' for Active; 'I' for Inactive)
REMARK       I    between atoms: C1_4  and  N3_6
REMARK    1  A    between atoms: N3_6  and  C2_8
REMARK    2  A    between atoms: C5_16  and  N6_17
REMARK    3  A    between atoms: N6_17  and  C6_19
REMARK    4  A    between atoms: C6_19  and  C7_20
REMARK    5  A    between atoms: C7_20  and  N7_21
REMARK    6  A    between atoms: N7_21  and  C8_24
REMARK    7  A    between atoms: C8_24  and  C9_25
REMARK    8  A    between atoms: C9_25  and  N8_26
REMARK    9  A    between atoms: N8_26  and  C10_29
REMARK   10  A    between atoms: C10_29  and  C11_30
REMARK   11  A    between atoms: C11_30  and  N9_31
REMARK   12  A    between atoms: C13_38  and  N11_39
ROOT
HETATM    1  C2  UNL     1     -42.605  39.969 -31.608  1.00  0.00     0.144 A
HETATM    2  N4  UNL     1     -42.359  41.280 -31.397  1.00  0.00    -0.334 N
ATOM      3  H4  UNL     1     -41.594  41.641 -30.826  1.00  0.00     0.168 HD
HETATM    4  C3  UNL     1     -43.259  42.047 -32.042  1.00  0.00     0.133 A
HETATM    5  C4  UNL     1     -43.467  43.389 -32.158  1.00  0.00     0.288 A
HETATM    6  O1  UNL     1     -42.693  44.188 -31.569  1.00  0.00    -0.265 OA
HETATM    7  N5  UNL     1     -44.484  43.854 -32.892  1.00  0.00    -0.154 N
ATOM      8  H5  UNL     1     -44.622  44.862 -32.965  1.00  0.00     0.187 HD
HETATM    9  C5  UNL     1     -45.317  43.048 -33.524  1.00  0.00     0.681 A
HETATM   10  N10 UNL     1     -45.147  41.712 -33.435  1.00  0.00    -0.187 N
ATOM     11  H10 UNL     1     -45.786  41.083 -33.922  1.00  0.00     0.184 HD
HETATM   12  C12 UNL     1     -44.136  41.210 -32.707  1.00  0.00     0.118 A
HETATM   13  C13 UNL     1     -43.713  39.929 -32.425  1.00  0.00     0.176 A
ENDROOT
BRANCH   9  14
HETATM   14  N6  UNL     1     -46.318  43.417 -34.227  1.00  0.00    -0.224 N
ATOM     15  H6  UNL     1     -46.304  43.111 -35.199  1.00  0.00     0.177 HD
BRANCH  14  16
HETATM   16  C6  UNL     1     -47.451  44.194 -33.852  1.00  0.00     0.165 C
BRANCH  16  17
HETATM   17  C7  UNL     1     -48.398  43.431 -32.941  1.00  0.00     0.252 C
BRANCH  17  18
HETATM   18  N7  UNL     1     -48.527  44.072 -31.664  1.00  0.00    -0.072 N
ATOM     19  H72 UNL     1     -48.408  45.082 -31.744  1.00  0.00     0.277 HD
ATOM     20  H71 UNL     1     -49.493  44.048 -31.335  1.00  0.00     0.277 HD
BRANCH  18  21
HETATM   21  C8  UNL     1     -47.636  43.521 -30.691  1.00  0.00     0.259 C
BRANCH  21  22
HETATM   22  C9  UNL     1     -46.651  44.514 -30.121  1.00  0.00     0.259 C
BRANCH  22  23
HETATM   23  N8  UNL     1     -46.984  45.870 -30.558  1.00  0.00    -0.072 N
ATOM     24  H82 UNL     1     -46.513  46.140 -31.421  1.00  0.00     0.277 HD
ATOM     25  H81 UNL     1     -47.941  45.959 -30.899  1.00  0.00     0.277 HD
BRANCH  23  26
HETATM   26  C10 UNL     1     -46.690  46.754 -29.450  1.00  0.00     0.259 C
BRANCH  26  27
HETATM   27  C11 UNL     1     -46.104  45.988 -28.282  1.00  0.00     0.257 C
BRANCH  27  28
HETATM   28  N9  UNL     1     -46.546  46.569 -27.035  1.00  0.00    -0.078 N
ATOM     29  H93 UNL     1     -47.015  47.464 -27.176  1.00  0.00     0.274 HD
ATOM     30  H92 UNL     1     -47.326  46.054 -26.628  1.00  0.00     0.274 HD
ATOM     31  H91 UNL     1     -45.761  46.647 -26.388  1.00  0.00     0.274 HD
ENDBRANCH  27  28
ENDBRANCH  26  27
ENDBRANCH  23  26
ENDBRANCH  22  23
ENDBRANCH  21  22
ENDBRANCH  18  21
ENDBRANCH  17  18
ENDBRANCH  16  17
ENDBRANCH  14  16
ENDBRANCH   9  14
BRANCH  13  32
HETATM   32  N11 UNL     1     -44.382  38.779 -32.939  1.00  0.00    -0.109 N
HETATM   33  O2  UNL     1     -44.671  38.633 -34.140  1.00  0.00    -0.532 OA
HETATM   34  O3  UNL     1     -44.722  37.788 -32.067  1.00  0.00    -0.532 OA
ENDBRANCH  13  32
BRANCH   1  35
HETATM   35  N3  UNL     1     -41.911  38.836 -31.116  1.00  0.00    -0.315 N
HETATM   36  C1  UNL     1     -41.081  37.994 -31.889  1.00  0.00     0.187 C
HETATM   37  N1  UNL     1     -40.180  38.488 -32.641  1.00  0.00    -0.373 N
HETATM   38  N2  UNL     1     -41.268  36.588 -31.813  1.00  0.00    -0.064 NA
ATOM     39  H12 UNL     1     -39.581  37.881 -33.199  1.00  0.00     0.158 HD
ATOM     40  H11 UNL     1     -40.046  39.498 -32.695  1.00  0.00     0.158 HD
ATOM     41  H3  UNL     1     -42.020  38.609 -30.128  1.00  0.00     0.170 HD
ENDBRANCH   1  35
TORSDOF 12
ENDMDL