MODEL 5
REMARK VINA RESULT: -7.147106790      1.160      1.573
REMARK  14 active torsions:
REMARK  status: ('A' for Active; 'I' for Inactive)
REMARK    1  A    between atoms: C2_2  and  C3_3
REMARK    2  A    between atoms: C3_3  and  C4_4
REMARK    3  A    between atoms: C4_4  and  C5_5
REMARK    4  A    between atoms: C5_5  and  C6_6
REMARK    5  A    between atoms: C6_6  and  C7_7
REMARK    6  A    between atoms: C7_7  and  C8_8
REMARK    7  A    between atoms: C8_8  and  N1_9
REMARK    8  A    between atoms: C10_16  and  N4_17
REMARK    9  A    between atoms: N4_17  and  C11_19
REMARK   10  A    between atoms: C12_23  and  C13_24
REMARK   11  A    between atoms: C13_24  and  O1_25
REMARK   12  A    between atoms: C14_27  and  O2_28
REMARK   13  A    between atoms: C15_30  and  O3_31
REMARK   14  A    between atoms: C16_33  and  O4_34
ROOT
HETATM    1  N4  UNL     1     -44.326  42.032 -32.253  1.00  0.00    -0.192 N
ATOM      2  H4  UNL     1     -43.440  42.421 -31.931  1.00  0.00     0.180 HD
ENDROOT
BRANCH   1   3
HETATM    3  C10 UNL     1     -44.162  40.979 -32.932  1.00  0.00     0.709 A
HETATM    4  N3  UNL     1     -44.242  40.781 -34.240  1.00  0.00    -0.117 N
HETATM    5  N2  UNL     1     -43.987  39.502 -34.465  1.00  0.00    -0.117 N
ATOM      6  H3  UNL     1     -44.459  41.485 -34.945  1.00  0.00     0.206 HD
HETATM    7  C9  UNL     1     -43.744  38.880 -33.303  1.00  0.00     0.707 A
ATOM      8  H2  UNL     1     -43.977  39.058 -35.383  1.00  0.00     0.206 HD
HETATM    9  N1  UNL     1     -43.458  37.618 -33.150  1.00  0.00    -0.224 N
HETATM   10  N6  UNL     1     -43.849  39.783 -32.334  1.00  0.00    -0.020 N
ATOM     11  H1  UNL     1     -43.399  36.995 -33.956  1.00  0.00     0.177 HD
ATOM     12  H6  UNL     1     -43.720  39.619 -31.335  1.00  0.00     0.203 HD
BRANCH   9  13
HETATM   13  C8  UNL     1     -43.227  37.122 -31.814  1.00  0.00     0.138 C
BRANCH  13  14
HETATM   14  C7  UNL     1     -41.976  36.269 -31.846  1.00  0.00     0.020 C
BRANCH  14  15
HETATM   15  C6  UNL     1     -41.199  36.437 -30.537  1.00  0.00     0.002 C
BRANCH  15  16
HETATM   16  C5  UNL     1     -40.950  35.051 -29.982  1.00  0.00     0.000 C
BRANCH  16  17
HETATM   17  C4  UNL     1     -42.044  34.585 -29.078  1.00  0.00     0.000 C
BRANCH  17  18
HETATM   18  C3  UNL     1     -42.656  33.287 -29.490  1.00  0.00    -0.000 C
BRANCH  18  19
HETATM   19  C2  UNL     1     -42.049  32.732 -30.761  1.00  0.00    -0.005 C
HETATM   20  C1  UNL     1     -43.063  32.656 -31.862  1.00  0.00     0.005 C
ENDBRANCH  18  19
ENDBRANCH  17  18
ENDBRANCH  16  17
ENDBRANCH  15  16
ENDBRANCH  14  15
ENDBRANCH  13  14
ENDBRANCH   9  13
ENDBRANCH   1   3
BRANCH   1  21
HETATM   21  C11 UNL     1     -45.412  42.792 -31.836  1.00  0.00     0.331 C
HETATM   22  N5  UNL     1     -45.593  44.078 -32.429  1.00  0.00    -0.042 N
HETATM   23  C12 UNL     1     -46.936  44.565 -32.245  1.00  0.00     0.242 C
ATOM     24  H52 UNL     1     -44.904  44.746 -32.086  1.00  0.00     0.280 HD
ATOM     25  H51 UNL     1     -45.331  44.072 -33.415  1.00  0.00     0.280 HD
HETATM   26  C14 UNL     1     -47.656  43.936 -31.093  1.00  0.00     0.182 C
HETATM   27  C15 UNL     1     -46.807  43.483 -29.971  1.00  0.00     0.181 C
HETATM   28  C16 UNL     1     -45.417  43.061 -30.318  1.00  0.00     0.200 C
BRANCH  23  29
HETATM   29  C13 UNL     1     -47.712  44.278 -33.514  1.00  0.00     0.199 C
BRANCH  29  30
HETATM   30  O1  UNL     1     -48.872  43.555 -33.231  1.00  0.00    -0.399 OA
ATOM     31  H1  UNL     1     -49.613  43.908 -33.708  1.00  0.00     0.209 HD
ENDBRANCH  29  30
ENDBRANCH  23  29
BRANCH  26  32
HETATM   32  O2  UNL     1     -48.596  44.877 -30.634  1.00  0.00    -0.391 OA
ATOM     33  H2  UNL     1     -48.189  45.733 -30.706  1.00  0.00     0.210 HD
ENDBRANCH  26  32
BRANCH  27  34
HETATM   34  O3  UNL     1     -46.719  44.414 -28.926  1.00  0.00    -0.390 OA
ATOM     35  H3  UNL     1     -46.105  45.118 -29.099  1.00  0.00     0.210 HD
ENDBRANCH  27  34
BRANCH  28  36
HETATM   36  O4  UNL     1     -44.558  44.109 -30.012  1.00  0.00    -0.389 OA
ATOM     37  H4  UNL     1     -44.639  44.799 -30.659  1.00  0.00     0.210 HD
ENDBRANCH  28  36
ENDBRANCH   1  21
TORSDOF 14
ENDMDL