MODEL 4
REMARK VINA RESULT: -6.520377837      1.633      2.582
REMARK  13 active torsions:
REMARK  status: ('A' for Active; 'I' for Inactive)
REMARK    1  A    between atoms: N1_1  and  C1_5
REMARK    2  A    between atoms: C1_5  and  C2_6
REMARK    3  A    between atoms: C2_6  and  N2_7
REMARK    4  A    between atoms: N2_7  and  C3_10
REMARK    5  A    between atoms: C3_10  and  C4_11
REMARK    6  A    between atoms: C4_11  and  C5_12
REMARK    7  A    between atoms: C5_12  and  N3_13
REMARK       I    between atoms: C6_15  and  N5_17
REMARK    8  A    between atoms: N5_17  and  C7_19
REMARK    9  A    between atoms: C7_19  and  C8_20
REMARK   10  A    between atoms: C8_20  and  C9_21
REMARK   11  A    between atoms: C9_21  and  C10_22
REMARK   12  A    between atoms: C10_22  and  N6_23
REMARK   13  A    between atoms: C12_27  and  N8_28
ROOT
HETATM    1  C8  UNL     1     -41.322  42.430 -31.372  1.00  0.00     0.021 C
ENDROOT
BRANCH   1   2
HETATM    2  C7  UNL     1     -42.211  41.216 -31.414  1.00  0.00     0.122 C
BRANCH   2   3
HETATM    3  N5  UNL     1     -42.302  40.699 -32.759  1.00  0.00    -0.365 N
HETATM    4  C6  UNL     1     -43.581  40.586 -33.356  1.00  0.00     0.183 C
HETATM    5  N3  UNL     1     -44.339  39.603 -33.068  1.00  0.00    -0.365 N
HETATM    6  N4  UNL     1     -44.045  41.562 -34.285  1.00  0.00    -0.064 NA
ATOM      7  H3  UNL     1     -45.259  39.528 -33.503  1.00  0.00     0.162 HD
ATOM      8  H5  UNL     1     -41.463  40.423 -33.269  1.00  0.00     0.162 HD
BRANCH   5   9
HETATM    9  C5  UNL     1     -43.904  38.596 -32.135  1.00  0.00     0.124 C
BRANCH   9  10
HETATM   10  C4  UNL     1     -43.535  37.370 -32.982  1.00  0.00     0.047 C
BRANCH  10  11
HETATM   11  C3  UNL     1     -42.202  36.810 -32.550  1.00  0.00     0.234 C
BRANCH  11  12
HETATM   12  N2  UNL     1     -41.722  37.409 -31.345  1.00  0.00    -0.073 N
ATOM     13  H22 UNL     1     -42.469  37.911 -30.863  1.00  0.00     0.277 HD
ATOM     14  H21 UNL     1     -41.101  38.192 -31.547  1.00  0.00     0.277 HD
BRANCH  12  15
HETATM   15  C2  UNL     1     -41.092  36.465 -30.474  1.00  0.00     0.259 C
BRANCH  15  16
HETATM   16  C1  UNL     1     -41.844  35.155 -30.435  1.00  0.00     0.257 C
BRANCH  16  17
HETATM   17  N1  UNL     1     -41.953  34.674 -29.049  1.00  0.00    -0.078 N
ATOM     18  H13 UNL     1     -42.061  33.661 -29.003  1.00  0.00     0.274 HD
ATOM     19  H12 UNL     1     -41.069  34.752 -28.547  1.00  0.00     0.274 HD
ATOM     20  H11 UNL     1     -42.710  35.160 -28.567  1.00  0.00     0.274 HD
ENDBRANCH  16  17
ENDBRANCH  15  16
ENDBRANCH  12  15
ENDBRANCH  11  12
ENDBRANCH  10  11
ENDBRANCH   9  10
ENDBRANCH   5   9
ENDBRANCH   2   3
ENDBRANCH   1   2
BRANCH   1  21
HETATM   21  C9  UNL     1     -42.118  43.665 -31.760  1.00  0.00     0.024 C
BRANCH  21  22
HETATM   22  C10 UNL     1     -43.305  43.740 -30.824  1.00  0.00     0.154 C
BRANCH  22  23
HETATM   23  N6  UNL     1     -44.576  43.696 -31.520  1.00  0.00    -0.243 N
HETATM   24  N7  UNL     1     -44.517  44.184 -32.776  1.00  0.00    -0.306 N
HETATM   25  C11 UNL     1     -45.431  45.177 -33.161  1.00  0.00     0.134 C
ATOM     26  H7  UNL     1     -43.819  43.837 -33.434  1.00  0.00     0.186 HD
HETATM   27  C12 UNL     1     -46.744  44.712 -33.712  1.00  0.00     0.324 C
HETATM   28  N9  UNL     1     -47.797  44.636 -32.715  1.00  0.00    -0.333 N
HETATM   29  C13 UNL     1     -47.934  44.102 -31.556  1.00  0.00     0.194 C
ATOM     30  H9  UNL     1     -48.639  45.130 -33.009  1.00  0.00     0.164 HD
HETATM   31  N10 UNL     1     -49.199  44.318 -30.961  1.00  0.00    -0.063 NA
HETATM   32  N11 UNL     1     -47.064  43.330 -30.740  1.00  0.00    -0.281 N
HETATM   33  C14 UNL     1     -45.634  43.136 -30.712  1.00  0.00     0.343 C
ATOM     34  H11 UNL     1     -47.555  42.800 -30.020  1.00  0.00     0.173 HD
HETATM   35  O1  UNL     1     -45.201  42.358 -29.852  1.00  0.00    -0.245 OA
BRANCH  27  36
HETATM   36  N8  UNL     1     -46.638  43.484 -34.473  1.00  0.00    -0.053 N
ATOM     37  H83 UNL     1     -47.549  43.037 -34.569  1.00  0.00     0.277 HD
ATOM     38  H82 UNL     1     -46.443  43.680 -35.455  1.00  0.00     0.277 HD
ATOM     39  H81 UNL     1     -45.952  42.834 -34.089  1.00  0.00     0.277 HD
ENDBRANCH  27  36
ENDBRANCH  22  23
ENDBRANCH  21  22
ENDBRANCH   1  21
TORSDOF 13
ENDMDL