MODEL 5
REMARK VINA RESULT: -6.582264485      3.269      3.995
REMARK  12 active torsions:
REMARK  status: ('A' for Active; 'I' for Inactive)
REMARK       I    between atoms: C1_4  and  N3_6
REMARK    1  A    between atoms: N3_6  and  C2_8
REMARK    2  A    between atoms: C2_8  and  C3_9
REMARK    3  A    between atoms: C3_9  and  C4_10
REMARK    4  A    between atoms: C4_10  and  N4_11
REMARK    5  A    between atoms: N4_11  and  C5_13
REMARK    6  A    between atoms: C5_13  and  C6_14
REMARK    7  A    between atoms: C6_14  and  C7_15
REMARK    8  A    between atoms: C7_15  and  C8_16
REMARK    9  A    between atoms: C8_16  and  C9_17
REMARK   10  A    between atoms: C9_17  and  N5_18
REMARK   11  A    between atoms: N5_18  and  C10_20
REMARK   12  A    between atoms: C11_23  and  N7_24
ROOT
HETATM    1  N5  UNL     1     -44.583  42.773 -33.284  1.00  0.00    -0.223 N
ATOM      2  H5  UNL     1     -43.890  43.338 -32.793  1.00  0.00     0.177 HD
ENDROOT
BRANCH   1   3
HETATM    3  C9  UNL     1     -44.143  41.596 -33.957  1.00  0.00     0.138 C
BRANCH   3   4
HETATM    4  C8  UNL     1     -43.874  40.538 -32.887  1.00  0.00     0.020 C
BRANCH   4   5
HETATM    5  C7  UNL     1     -44.012  39.184 -33.594  1.00  0.00     0.003 C
BRANCH   5   6
HETATM    6  C6  UNL     1     -44.186  38.098 -32.533  1.00  0.00     0.019 C
BRANCH   6   7
HETATM    7  C5  UNL     1     -43.102  37.073 -32.686  1.00  0.00     0.113 C
BRANCH   7   8
HETATM    8  N4  UNL     1     -42.617  36.663 -31.425  1.00  0.00    -0.421 N
ATOM      9  H4  UNL     1     -42.348  37.337 -30.708  1.00  0.00     0.153 HD
BRANCH   8  10
HETATM   10  C4  UNL     1     -42.524  35.258 -31.206  1.00  0.00     0.115 C
BRANCH  10  11
HETATM   11  C3  UNL     1     -42.231  34.407 -32.369  1.00  0.00     0.039 C
BRANCH  11  12
HETATM   12  C2  UNL     1     -42.803  33.023 -32.189  1.00  0.00     0.123 C
BRANCH  12  13
HETATM   13  N3  UNL     1     -43.352  32.828 -30.866  1.00  0.00    -0.365 N
HETATM   14  C1  UNL     1     -44.190  31.758 -30.487  1.00  0.00     0.181 C
HETATM   15  N1  UNL     1     -43.812  30.827 -29.679  1.00  0.00    -0.374 N
HETATM   16  N2  UNL     1     -45.505  31.700 -31.007  1.00  0.00    -0.064 NA
ATOM     17  H12 UNL     1     -44.418  30.055 -29.406  1.00  0.00     0.158 HD
ATOM     18  H11 UNL     1     -42.864  30.870 -29.305  1.00  0.00     0.158 HD
ATOM     19  H3  UNL     1     -43.114  33.517 -30.152  1.00  0.00     0.162 HD
ENDBRANCH  12  13
ENDBRANCH  11  12
ENDBRANCH  10  11
ENDBRANCH   8  10
ENDBRANCH   7   8
ENDBRANCH   6   7
ENDBRANCH   5   6
ENDBRANCH   4   5
ENDBRANCH   3   4
ENDBRANCH   1   3
BRANCH   1  20
HETATM   20  C10 UNL     1     -45.798  43.155 -33.265  1.00  0.00     0.729 A
HETATM   21  N6  UNL     1     -46.546  43.488 -34.323  1.00  0.00    -0.020 N
HETATM   22  C11 UNL     1     -47.836  43.876 -34.238  1.00  0.00     0.705 A
ATOM     23  H6  UNL     1     -46.117  43.447 -35.247  1.00  0.00     0.203 HD
HETATM   24  N8  UNL     1     -48.405  43.933 -33.030  1.00  0.00    -0.019 N
HETATM   25  C12 UNL     1     -47.700  43.607 -31.908  1.00  0.00     0.737 A
ATOM     26  H8  UNL     1     -49.379  44.223 -32.946  1.00  0.00     0.203 HD
HETATM   27  N9  UNL     1     -48.064  43.592 -30.614  1.00  0.00    -0.137 N
HETATM   28  N11 UNL     1     -46.427  43.229 -32.048  1.00  0.00     0.095 N
HETATM   29  C13 UNL     1     -46.972  43.193 -29.939  1.00  0.00     0.354 A
ATOM     30  H9  UNL     1     -48.976  43.833 -30.225  1.00  0.00     0.189 HD
HETATM   31  O1  UNL     1     -46.936  43.064 -28.704  1.00  0.00    -0.245 OA
HETATM   32  N10 UNL     1     -45.962  42.969 -30.831  1.00  0.00    -0.215 N
ATOM     33  H10 UNL     1     -45.019  42.657 -30.602  1.00  0.00     0.193 HD
BRANCH  22  34
HETATM   34  N7  UNL     1     -48.521  44.185 -35.271  1.00  0.00    -0.234 N
ATOM     35  H72 UNL     1     -48.261  43.802 -36.180  1.00  0.00     0.174 HD
ATOM     36  H71 UNL     1     -49.326  44.809 -35.221  1.00  0.00     0.174 HD
ENDBRANCH  22  34
ENDBRANCH   1  20
TORSDOF 12
ENDMDL