MODEL 4
REMARK VINA RESULT: -5.706784157      1.789      2.583
REMARK  15 active torsions:
REMARK  status: ('A' for Active; 'I' for Inactive)
REMARK    1  A    between atoms: C2_3  and  C3_4
REMARK    2  A    between atoms: C3_4  and  O1_5
REMARK    3  A    between atoms: N2_7  and  C4_8
REMARK    4  A    between atoms: C4_8  and  C5_9
REMARK    5  A    between atoms: C5_9  and  C6_10
REMARK    6  A    between atoms: C6_10  and  O2_11
REMARK    7  A    between atoms: O2_11  and  C7_12
REMARK    8  A    between atoms: C7_12  and  C8_13
REMARK    9  A    between atoms: C7_12  and  C10_19
REMARK   10  A    between atoms: C8_13  and  C9_14
REMARK   11  A    between atoms: C9_14  and  N3_15
REMARK   12  A    between atoms: C10_19  and  C11_20
REMARK   13  A    between atoms: C11_20  and  N4_21
REMARK   14  A    between atoms: C13_28  and  N6_29
REMARK   15  A    between atoms: C14_34  and  N8_35
ROOT
HETATM    1  C1  UNL     1     -46.557  43.687 -29.522  1.00  0.00     0.158 C
HETATM    2  N1  UNL     1     -46.132  43.539 -30.881  1.00  0.00    -0.333 N
HETATM    3  C2  UNL     1     -44.850  43.205 -31.238  1.00  0.00     0.111 A
HETATM    4  N2  UNL     1     -44.741  43.131 -32.552  1.00  0.00    -0.318 N
HETATM    5  C12 UNL     1     -45.961  43.422 -33.078  1.00  0.00     0.155 A
HETATM    6  N5  UNL     1     -46.411  43.493 -34.345  1.00  0.00    -0.174 N
ATOM      7  H5  UNL     1     -45.773  43.305 -35.117  1.00  0.00     0.186 HD
HETATM    8  C13 UNL     1     -47.689  43.807 -34.604  1.00  0.00     0.679 A
HETATM    9  N7  UNL     1     -48.537  44.054 -33.604  1.00  0.00    -0.175 N
ATOM     10  H7  UNL     1     -49.507  44.291 -33.817  1.00  0.00     0.186 HD
HETATM   11  C14 UNL     1     -48.128  43.996 -32.293  1.00  0.00     0.145 A
HETATM   12  C15 UNL     1     -46.800  43.669 -32.021  1.00  0.00     0.125 A
ENDROOT
BRANCH   4  13
HETATM   13  C4  UNL     1     -43.609  42.772 -33.400  1.00  0.00     0.134 C
BRANCH  13  14
HETATM   14  C5  UNL     1     -43.401  41.312 -33.563  1.00  0.00     0.046 C
BRANCH  14  15
HETATM   15  C6  UNL     1     -43.606  40.673 -34.858  1.00  0.00     0.169 C
BRANCH  15  16
HETATM   16  O2  UNL     1     -43.038  39.488 -35.174  1.00  0.00    -0.386 OA
BRANCH  16  17
HETATM   17  C7  UNL     1     -42.162  38.939 -34.292  1.00  0.00     0.124 C
BRANCH  17  18
HETATM   18  C8  UNL     1     -42.634  37.546 -33.940  1.00  0.00     0.059 C
BRANCH  18  19
HETATM   19  C9  UNL     1     -43.415  37.557 -32.653  1.00  0.00     0.232 C
BRANCH  19  20
HETATM   20  N3  UNL     1     -44.764  38.037 -32.964  1.00  0.00    -0.079 N
ATOM     21  H33 UNL     1     -45.320  38.229 -32.131  1.00  0.00     0.274 HD
ATOM     22  H32 UNL     1     -44.771  38.982 -33.349  1.00  0.00     0.274 HD
ATOM     23  H31 UNL     1     -45.197  37.351 -33.583  1.00  0.00     0.274 HD
ENDBRANCH  19  20
ENDBRANCH  18  19
ENDBRANCH  17  18
BRANCH  17  24
HETATM   24  C10 UNL     1     -40.738  38.804 -34.744  1.00  0.00     0.059 C
BRANCH  24  25
HETATM   25  C11 UNL     1     -40.032  40.060 -35.106  1.00  0.00     0.232 C
BRANCH  25  26
HETATM   26  N4  UNL     1     -40.324  40.480 -36.462  1.00  0.00    -0.079 N
ATOM     27  H43 UNL     1     -39.823  39.908 -37.141  1.00  0.00     0.274 HD
ATOM     28  H42 UNL     1     -41.280  40.242 -36.725  1.00  0.00     0.274 HD
ATOM     29  H41 UNL     1     -40.137  41.472 -36.607  1.00  0.00     0.274 HD
ENDBRANCH  25  26
ENDBRANCH  24  25
ENDBRANCH  17  24
ENDBRANCH  16  17
ENDBRANCH  15  16
ENDBRANCH  14  15
ENDBRANCH  13  14
ENDBRANCH   4  13
BRANCH   3  30
HETATM   30  C3  UNL     1     -43.739  42.988 -30.272  1.00  0.00     0.241 C
BRANCH  30  31
HETATM   31  O1  UNL     1     -43.707  41.648 -29.858  1.00  0.00    -0.393 OA
ATOM     32  H1  UNL     1     -42.938  41.213 -30.206  1.00  0.00     0.209 HD
ENDBRANCH  30  31
ENDBRANCH   3  30
BRANCH   8  33
HETATM   33  N6  UNL     1     -48.148  43.882 -35.826  1.00  0.00    -0.234 N
ATOM     34  H62 UNL     1     -48.353  44.808 -36.200  1.00  0.00     0.174 HD
ATOM     35  H61 UNL     1     -48.300  43.050 -36.396  1.00  0.00     0.174 HD
ENDBRANCH   8  33
BRANCH  11  36
HETATM   36  N8  UNL     1     -48.922  44.228 -31.355  1.00  0.00    -0.383 N
ATOM     37  H82 UNL     1     -49.128  45.190 -31.087  1.00  0.00     0.157 HD
ATOM     38  H81 UNL     1     -49.374  43.470 -30.845  1.00  0.00     0.157 HD
ENDBRANCH  11  36
TORSDOF 15
ENDMDL