MODEL 3
REMARK VINA RESULT: -5.781104652      3.042      4.770
REMARK  14 active torsions:
REMARK  status: ('A' for Active; 'I' for Inactive)
REMARK    1  A    between atoms: N1_1  and  C1_4
REMARK    2  A    between atoms: C4_10  and  N3_11
REMARK    3  A    between atoms: N3_11  and  C5_13
REMARK    4  A    between atoms: C5_13  and  C6_14
REMARK    5  A    between atoms: C6_14  and  C7_15
REMARK    6  A    between atoms: C7_15  and  N4_16
REMARK    7  A    between atoms: N4_16  and  C8_19
REMARK    8  A    between atoms: C8_19  and  C9_20
REMARK    9  A    between atoms: C9_20  and  C10_21
REMARK   10  A    between atoms: C10_21  and  N5_22
REMARK   11  A    between atoms: N5_22  and  C11_24
REMARK   12  A    between atoms: C11_24  and  C12_25
REMARK   13  A    between atoms: C12_25  and  O2_26
REMARK   14  A    between atoms: C13_30  and  N7_31
ROOT
HETATM    1  C1  UNL     1     -46.184  45.034 -29.561  1.00  0.00     0.680 A
HETATM    2  N2  UNL     1     -45.397  43.930 -29.563  1.00  0.00    -0.155 N
ATOM      3  H2  UNL     1     -44.885  43.663 -28.721  1.00  0.00     0.187 HD
HETATM    4  C2  UNL     1     -45.295  43.191 -30.678  1.00  0.00     0.277 A
HETATM    5  O1  UNL     1     -44.568  42.181 -30.654  1.00  0.00    -0.266 OA
HETATM    6  C3  UNL     1     -45.987  43.559 -31.805  1.00  0.00     0.122 A
HETATM    7  C4  UNL     1     -45.863  42.797 -32.938  1.00  0.00     0.136 A
HETATM    8  N6  UNL     1     -46.537  43.164 -34.041  1.00  0.00    -0.176 N
ATOM      9  H6  UNL     1     -46.452  42.605 -34.890  1.00  0.00     0.186 HD
HETATM   10  C13 UNL     1     -47.326  44.261 -34.044  1.00  0.00     0.679 A
HETATM   11  N8  UNL     1     -47.426  44.984 -32.928  1.00  0.00    -0.175 N
ATOM     12  H8  UNL     1     -48.023  45.811 -32.944  1.00  0.00     0.186 HD
HETATM   13  C14 UNL     1     -46.793  44.692 -31.794  1.00  0.00     0.156 A
HETATM   14  N9  UNL     1     -46.872  45.404 -30.667  1.00  0.00    -0.175 N
ATOM     15  H9  UNL     1     -47.458  46.238 -30.639  1.00  0.00     0.186 HD
ENDROOT
BRANCH   7  16
HETATM   16  N3  UNL     1     -45.101  41.754 -32.927  1.00  0.00    -0.375 N
ATOM     17  H3  UNL     1     -45.161  41.107 -32.142  1.00  0.00     0.161 HD
BRANCH  16  18
HETATM   18  C5  UNL     1     -44.161  41.473 -33.999  1.00  0.00     0.123 C
BRANCH  18  19
HETATM   19  C6  UNL     1     -43.586  40.103 -33.716  1.00  0.00     0.047 C
BRANCH  19  20
HETATM   20  C7  UNL     1     -44.675  39.033 -33.762  1.00  0.00     0.234 C
BRANCH  20  21
HETATM   21  N4  UNL     1     -44.320  38.045 -32.802  1.00  0.00    -0.075 N
ATOM     22  H42 UNL     1     -44.408  38.422 -31.858  1.00  0.00     0.277 HD
ATOM     23  H41 UNL     1     -45.032  37.315 -32.766  1.00  0.00     0.277 HD
BRANCH  21  24
HETATM   24  C8  UNL     1     -43.005  37.458 -32.990  1.00  0.00     0.237 C
BRANCH  24  25
HETATM   25  C9  UNL     1     -42.869  36.454 -31.822  1.00  0.00     0.072 C
BRANCH  25  26
HETATM   26  C10 UNL     1     -42.450  35.098 -32.276  1.00  0.00     0.062 C
BRANCH  26  27
HETATM   27  N5  UNL     1     -42.716  34.038 -31.413  1.00  0.00    -0.380 N
ATOM     28  H5  UNL     1     -42.551  34.191 -30.418  1.00  0.00     0.164 HD
BRANCH  27  29
HETATM   29  C11 UNL     1     -43.185  32.796 -31.797  1.00  0.00     0.086 C
BRANCH  29  30
HETATM   30  C12 UNL     1     -43.959  31.920 -30.895  1.00  0.00     0.208 C
BRANCH  30  31
HETATM   31  O2  UNL     1     -45.253  31.807 -31.504  1.00  0.00    -0.396 OA
ATOM     32  H2  UNL     1     -45.373  30.877 -31.658  1.00  0.00     0.209 HD
ENDBRANCH  30  31
ENDBRANCH  29  30
ENDBRANCH  27  29
ENDBRANCH  26  27
ENDBRANCH  25  26
ENDBRANCH  24  25
ENDBRANCH  21  24
ENDBRANCH  20  21
ENDBRANCH  19  20
ENDBRANCH  18  19
ENDBRANCH  16  18
ENDBRANCH   7  16
BRANCH  10  33
HETATM   33  N7  UNL     1     -47.955  44.569 -35.148  1.00  0.00    -0.234 N
ATOM     34  H72 UNL     1     -48.174  43.883 -35.871  1.00  0.00     0.174 HD
ATOM     35  H71 UNL     1     -48.241  45.538 -35.287  1.00  0.00     0.174 HD
ENDBRANCH  10  33
BRANCH   1  36
HETATM   36  N1  UNL     1     -46.297  45.768 -28.498  1.00  0.00    -0.234 N
ATOM     37  H12 UNL     1     -45.853  45.442 -27.640  1.00  0.00     0.174 HD
ATOM     38  H11 UNL     1     -46.818  46.644 -28.521  1.00  0.00     0.174 HD
ENDBRANCH   1  36
TORSDOF 14
ENDMDL