MODEL 3
REMARK VINA RESULT: -6.739715076      1.639     10.676
REMARK  13 active torsions:
REMARK  status: ('A' for Active; 'I' for Inactive)
REMARK    1  A    between atoms: N1_1  and  C1_4
REMARK    2  A    between atoms: N3_10  and  C5_12
REMARK    3  A    between atoms: C5_12  and  C6_13
REMARK    4  A    between atoms: C6_13  and  O1_14
REMARK    5  A    between atoms: O1_14  and  C7_15
REMARK    6  A    between atoms: C7_15  and  C8_16
REMARK    7  A    between atoms: C8_16  and  N4_17
REMARK    8  A    between atoms: N4_17  and  C9_20
REMARK    9  A    between atoms: C9_20  and  C10_21
REMARK   10  A    between atoms: C10_21  and  C11_22
REMARK   11  A    between atoms: C11_22  and  N5_23
REMARK   12  A    between atoms: N5_23  and  C12_25
REMARK   13  A    between atoms: C14_34  and  N9_35
ROOT
HETATM    1  N4  UNL     1     -42.695  36.689 -31.338  1.00  0.00    -0.073 N
ATOM      2  H41 UNL     1     -43.429  36.028 -31.084  1.00  0.00     0.277 HD
ATOM      3  H42 UNL     1     -42.722  37.268 -30.499  1.00  0.00     0.277 HD
ENDROOT
BRANCH   1   4
HETATM    4  C8  UNL     1     -43.031  37.450 -32.547  1.00  0.00     0.258 C
BRANCH   4   5
HETATM    5  C7  UNL     1     -44.371  37.981 -32.739  1.00  0.00     0.195 C
BRANCH   5   6
HETATM    6  O1  UNL     1     -44.410  39.091 -33.535  1.00  0.00    -0.385 OA
BRANCH   6   7
HETATM    7  C6  UNL     1     -43.495  40.010 -33.752  1.00  0.00     0.212 C
BRANCH   7   8
HETATM    8  C5  UNL     1     -43.994  41.439 -33.908  1.00  0.00     0.088 C
BRANCH   8   9
HETATM    9  N3  UNL     1     -45.166  41.734 -33.190  1.00  0.00    -0.353 N
HETATM   10  C4  UNL     1     -45.696  42.881 -32.983  1.00  0.00     0.121 A
HETATM   11  C3  UNL     1     -45.170  44.024 -33.445  1.00  0.00     0.066 A
HETATM   12  N11 UNL     1     -46.891  42.946 -32.302  1.00  0.00    -0.177 N
HETATM   13  C2  UNL     1     -45.819  45.253 -33.236  1.00  0.00     0.110 A
HETATM   14  N2  UNL     1     -47.005  45.320 -32.556  1.00  0.00    -0.202 N
HETATM   15  C1  UNL     1     -47.482  44.138 -32.125  1.00  0.00     0.677 A
ATOM     16  H2  UNL     1     -47.492  46.201 -32.388  1.00  0.00     0.183 HD
ATOM     17  H11 UNL     1     -47.322  42.097 -31.936  1.00  0.00     0.185 HD
ATOM     18  H3  UNL     1     -45.655  40.937 -32.785  1.00  0.00     0.166 HD
BRANCH  15  19
HETATM   19  N1  UNL     1     -48.632  44.180 -31.512  1.00  0.00    -0.234 N
ATOM     20  H12 UNL     1     -49.484  44.195 -32.072  1.00  0.00     0.174 HD
ATOM     21  H11 UNL     1     -48.590  44.219 -30.494  1.00  0.00     0.174 HD
ENDBRANCH  15  19
ENDBRANCH   8   9
ENDBRANCH   7   8
ENDBRANCH   6   7
ENDBRANCH   5   6
ENDBRANCH   4   5
ENDBRANCH   1   4
BRANCH   1  22
HETATM   22  C9  UNL     1     -41.380  36.023 -31.516  1.00  0.00     0.234 C
BRANCH  22  23
HETATM   23  C10 UNL     1     -40.785  35.753 -30.188  1.00  0.00     0.048 C
BRANCH  23  24
HETATM   24  C11 UNL     1     -41.733  34.932 -29.340  1.00  0.00     0.139 C
BRANCH  24  25
HETATM   25  N5  UNL     1     -41.680  33.577 -29.753  1.00  0.00    -0.225 N
ATOM     26  H5  UNL     1     -40.812  33.138 -30.058  1.00  0.00     0.177 HD
BRANCH  25  27
HETATM   27  C12 UNL     1     -42.752  32.956 -29.722  1.00  0.00     0.707 A
HETATM   28  N6  UNL     1     -43.798  32.357 -29.702  1.00  0.00    -0.022 N
HETATM   29  C13 UNL     1     -44.685  31.632 -30.396  1.00  0.00     0.705 A
ATOM     30  H6  UNL     1     -44.162  32.434 -28.753  1.00  0.00     0.203 HD
HETATM   31  N7  UNL     1     -45.780  31.208 -29.888  1.00  0.00    -0.234 N
HETATM   32  N8  UNL     1     -44.366  31.420 -31.709  1.00  0.00    -0.022 N
ATOM     33  H72 UNL     1     -46.018  31.367 -28.910  1.00  0.00     0.174 HD
ATOM     34  H71 UNL     1     -46.455  30.656 -30.417  1.00  0.00     0.174 HD
HETATM   35  C14 UNL     1     -43.204  31.986 -32.081  1.00  0.00     0.705 A
ATOM     36  H8  UNL     1     -44.953  30.882 -32.346  1.00  0.00     0.203 HD
HETATM   37  N10 UNL     1     -42.454  32.661 -31.317  1.00  0.00    -0.022 N
ATOM     38  H10 UNL     1     -41.601  33.051 -31.719  1.00  0.00     0.203 HD
BRANCH  35  39
HETATM   39  N9  UNL     1     -42.871  31.798 -33.367  1.00  0.00    -0.234 N
ATOM     40  H92 UNL     1     -43.122  30.932 -33.845  1.00  0.00     0.174 HD
ATOM     41  H91 UNL     1     -42.359  32.570 -33.795  1.00  0.00     0.174 HD
ENDBRANCH  35  39
ENDBRANCH  25  27
ENDBRANCH  24  25
ENDBRANCH  23  24
ENDBRANCH  22  23
ENDBRANCH   1  22
TORSDOF 13
ENDMDL