MODEL 2
REMARK VINA RESULT: -5.170744136      1.969      3.532
REMARK  2 active torsions:
REMARK  status: ('A' for Active; 'I' for Inactive)
REMARK       I    between atoms: C1_2  and  N2_4
REMARK    1  A    between atoms: N2_4  and  N3_5
REMARK    2  A    between atoms: N2_4  and  N4_8
ROOT
HETATM    1  N1  UNL     1      -7.668   6.604 -28.365  1.00  0.00    -0.037 NA
HETATM    2  C1  UNL     1      -8.029   5.240 -28.289  1.00  0.00     0.368 C
HETATM    3  O1  UNL     1      -7.156   4.348 -28.392  1.00  0.00    -0.247 OA
HETATM    4  N2  UNL     1      -9.392   4.928 -28.094  1.00  0.00    -0.149 N
ENDROOT
BRANCH   4   5
HETATM    5  N3  UNL     1      -9.716   3.587 -28.023  1.00  0.00    -0.320 N
ATOM      6  H32 UNL     1      -9.029   2.833 -28.039  1.00  0.00     0.179 HD
ATOM      7  H31 UNL     1     -10.708   3.360 -27.950  1.00  0.00     0.179 HD
ENDBRANCH   4   5
BRANCH   4   8
HETATM    8  N4  UNL     1     -10.323   5.962 -27.985  1.00  0.00    -0.251 N
HETATM    9  C2  UNL     1     -10.818   6.385 -26.890  1.00  0.00     0.217 C
HETATM   10  N5  UNL     1     -10.430   5.800 -25.662  1.00  0.00    -0.065 NA
HETATM   11  N6  UNL     1     -11.752   7.439 -26.923  1.00  0.00    -0.065 NA
ATOM     12  H4  UNL     1     -10.631   6.413 -28.847  1.00  0.00     0.191 HD
ENDBRANCH   4   8
TORSDOF 2
ENDMDL