MODEL 5
REMARK VINA RESULT: -5.397090898      2.127      2.743
REMARK  3 active torsions:
REMARK  status: ('A' for Active; 'I' for Inactive)
REMARK    1  A    between atoms: N1_1  and  N2_4
REMARK       I    between atoms: N2_4  and  C1_6
REMARK    2  A    between atoms: C1_6  and  C2_8
REMARK    3  A    between atoms: N5_12  and  O2_13
ROOT
HETATM    1  C2  UNL     1     -11.005   5.891 -28.589  1.00  0.00     0.232 A
HETATM    2  N3  UNL     1     -11.780   6.750 -27.905  1.00  0.00    -0.260 N
ATOM      3  H3  UNL     1     -11.614   7.359 -27.103  1.00  0.00     0.186 HD
HETATM    4  N4  UNL     1     -12.836   6.507 -28.661  1.00  0.00     0.010 NA
HETATM    5  N5  UNL     1     -12.086   5.655 -29.348  1.00  0.00    -0.123 N
ENDROOT
BRANCH   1   6
HETATM    6  C1  UNL     1      -9.611   5.419 -28.536  1.00  0.00     0.308 C
HETATM    7  N2  UNL     1      -9.282   4.191 -29.141  1.00  0.00    -0.270 N
ATOM      8  H2  UNL     1      -9.998   3.635 -29.609  1.00  0.00     0.189 HD
HETATM    9  O1  UNL     1      -8.775   6.152 -27.945  1.00  0.00    -0.262 OA
BRANCH   7  10
HETATM   10  N1  UNL     1      -7.972   3.749 -29.091  1.00  0.00    -0.342 N
ATOM     11  H12 UNL     1      -7.284   4.141 -29.733  1.00  0.00     0.176 HD
ATOM     12  H11 UNL     1      -7.717   3.035 -28.408  1.00  0.00     0.176 HD
ENDBRANCH   7  10
ENDBRANCH   1   6
BRANCH   5  13
HETATM   13  O2  UNL     1     -12.266   4.808 -30.438  1.00  0.00    -0.268 OA
ATOM     14  H2  UNL     1     -12.452   5.000 -31.350  1.00  0.00     0.246 HD
ENDBRANCH   5  13
TORSDOF 3
ENDMDL