MODEL 2
REMARK VINA RESULT: -5.145609516      1.516      1.733
REMARK  3 active torsions:
REMARK  status: ('A' for Active; 'I' for Inactive)
REMARK    1  A    between atoms: C3_3  and  N1_4
REMARK    2  A    between atoms: C3_3  and  N2_8
REMARK    3  A    between atoms: N2_8  and  N3_10
ROOT
HETATM    1  C1  UNL     1     -12.716   6.603 -26.958  1.00  0.00     0.016 C
HETATM    2  C2  UNL     1     -12.453   6.109 -28.031  1.00  0.00    -0.062 C
HETATM    3  C3  UNL     1     -12.127   5.535 -29.338  1.00  0.00     0.376 C
ENDROOT
BRANCH   3   4
HETATM    4  N1  UNL     1     -12.555   6.486 -30.360  1.00  0.00    -0.046 N
ATOM      5  H13 UNL     1     -13.564   6.476 -30.514  1.00  0.00     0.278 HD
ATOM      6  H12 UNL     1     -12.474   7.457 -30.057  1.00  0.00     0.278 HD
ATOM      7  H11 UNL     1     -12.024   6.290 -31.208  1.00  0.00     0.278 HD
ENDBRANCH   3   4
BRANCH   3   8
HETATM    8  N2  UNL     1     -10.720   5.220 -29.448  1.00  0.00    -0.294 N
ATOM      9  H2  UNL     1     -10.448   4.331 -29.869  1.00  0.00     0.183 HD
BRANCH   8  10
HETATM   10  N3  UNL     1      -9.731   6.074 -29.007  1.00  0.00    -0.278 N
HETATM   11  C4  UNL     1      -8.595   5.698 -28.540  1.00  0.00     0.215 C
HETATM   12  N4  UNL     1      -8.252   4.326 -28.434  1.00  0.00    -0.065 NA
HETATM   13  N5  UNL     1      -7.678   6.678 -28.124  1.00  0.00    -0.065 NA
ATOM     14  H3  UNL     1      -9.914   7.076 -29.055  1.00  0.00     0.189 HD
ENDBRANCH   8  10
ENDBRANCH   3   8
TORSDOF 3
ENDMDL