MODEL 3
REMARK VINA RESULT: -5.904839597      2.120      2.622
REMARK  0 active torsions:
REMARK  status: ('A' for Active; 'I' for Inactive)
REMARK       I    between atoms: C1_4  and  N3_6
ROOT
HETATM    1  N1  UNL     1     -11.697   5.156 -26.567  1.00  0.00    -0.373 N
ATOM      2  H11 UNL     1     -11.306   4.229 -26.404  1.00  0.00     0.158 HD
ATOM      3  H12 UNL     1     -12.703   5.310 -26.507  1.00  0.00     0.158 HD
HETATM    4  C1  UNL     1     -10.916   6.134 -26.848  1.00  0.00     0.187 C
HETATM    5  N2  UNL     1     -11.456   7.415 -27.074  1.00  0.00    -0.064 NA
HETATM    6  N3  UNL     1      -9.519   5.922 -26.931  1.00  0.00    -0.311 N
ATOM      7  H3  UNL     1      -8.868   6.352 -26.274  1.00  0.00     0.170 HD
HETATM    8  C2  UNL     1      -9.111   5.141 -27.901  1.00  0.00     0.193 A
HETATM    9  N4  UNL     1      -7.871   4.654 -28.365  1.00  0.00    -0.278 N
ATOM     10  H4  UNL     1      -6.908   4.786 -28.054  1.00  0.00     0.189 HD
HETATM   11  N5  UNL     1      -8.444   3.928 -29.403  1.00  0.00    -0.262 N
ATOM     12  H5  UNL     1      -8.098   3.324 -30.149  1.00  0.00     0.190 HD
HETATM   13  C3  UNL     1      -9.715   4.386 -28.981  1.00  0.00     0.305 A
HETATM   14  O1  UNL     1     -10.925   4.241 -29.343  1.00  0.00    -0.263 OA
ENDROOT
TORSDOF 0
ENDMDL