MODEL 3
REMARK VINA RESULT: -5.446322608      0.982      4.630
REMARK  2 active torsions:
REMARK  status: ('A' for Active; 'I' for Inactive)
REMARK       I    between atoms: N2_3  and  C2_5
REMARK    1  A    between atoms: C2_5  and  C3_7
REMARK       I    between atoms: C3_7  and  N3_9
REMARK    2  A    between atoms: N3_9  and  N4_11
ROOT
HETATM    1  C3  UNL     1      -9.901   5.566 -28.666  1.00  0.00     0.327 C
HETATM    2  O2  UNL     1     -10.467   6.570 -28.188  1.00  0.00    -0.261 OA
HETATM    3  N3  UNL     1     -10.593   4.732 -29.572  1.00  0.00    -0.268 N
ATOM      4  H3  UNL     1     -10.130   3.910 -29.962  1.00  0.00     0.190 HD
ENDROOT
BRANCH   1   5
HETATM    5  C2  UNL     1      -8.552   5.264 -28.294  1.00  0.00     0.315 C
HETATM    6  N2  UNL     1      -7.782   6.206 -27.584  1.00  0.00    -0.317 N
HETATM    7  C1  UNL     1      -6.517   6.060 -27.352  1.00  0.00     0.192 C
ATOM      8  H2  UNL     1      -8.245   7.044 -27.234  1.00  0.00     0.169 HD
HETATM    9  N1  UNL     1      -5.766   7.025 -26.634  1.00  0.00    -0.097 NA
HETATM   10  O1  UNL     1      -8.051   4.165 -28.596  1.00  0.00    -0.262 OA
ENDBRANCH   1   5
BRANCH   3  11
HETATM   11  N4  UNL     1     -11.895   5.024 -29.932  1.00  0.00    -0.342 N
ATOM     12  H42 UNL     1     -12.469   4.288 -30.346  1.00  0.00     0.176 HD
ATOM     13  H41 UNL     1     -12.273   5.960 -29.784  1.00  0.00     0.176 HD
ENDBRANCH   3  11
TORSDOF 2
ENDMDL