MODEL 5
REMARK VINA RESULT: -5.266679987      1.753      2.940
REMARK  2 active torsions:
REMARK  status: ('A' for Active; 'I' for Inactive)
REMARK    1  A    between atoms: C1_2  and  N1_3
REMARK    2  A    between atoms: N1_3  and  C2_5
ROOT
HETATM    1  C2  UNL     1      -9.663   5.500 -27.584  1.00  0.00     0.191 A
HETATM    2  N2  UNL     1      -8.331   5.687 -27.603  1.00  0.00    -0.265 N
ATOM      3  H2  UNL     1      -7.830   6.401 -27.075  1.00  0.00     0.186 HD
HETATM    4  N3  UNL     1      -7.763   4.790 -28.424  1.00  0.00    -0.018 NA
HETATM    5  N4  UNL     1      -8.710   4.024 -28.937  1.00  0.00    -0.247 N
ATOM      6  H4  UNL     1      -8.572   3.255 -29.592  1.00  0.00     0.187 HD
HETATM    7  C3  UNL     1      -9.890   4.439 -28.437  1.00  0.00     0.303 A
HETATM    8  O2  UNL     1     -11.022   3.940 -28.703  1.00  0.00    -0.263 OA
ENDROOT
BRANCH   1   9
HETATM    9  N1  UNL     1     -10.523   6.179 -26.906  1.00  0.00    -0.315 N
ATOM     10  H1  UNL     1     -10.971   6.988 -27.339  1.00  0.00     0.170 HD
BRANCH   9  11
HETATM   11  C1  UNL     1     -10.864   5.833 -25.578  1.00  0.00     0.354 C
HETATM   12  O1  UNL     1      -9.948   5.788 -24.711  1.00  0.00    -0.283 OA
ENDBRANCH   9  11
ENDBRANCH   1   9
TORSDOF 2
ENDMDL