MODEL 4
REMARK VINA RESULT: -5.596873699      2.591      3.516
REMARK  1 active torsions:
REMARK  status: ('A' for Active; 'I' for Inactive)
REMARK    1  A    between atoms: N1_1  and  C1_4
ROOT
HETATM    1  C1  UNL     1     -10.325   5.343 -26.865  1.00  0.00     0.183 A
HETATM    2  N2  UNL     1     -10.108   4.124 -27.356  1.00  0.00    -0.277 N
ATOM      3  H2  UNL     1      -9.524   3.489 -26.813  1.00  0.00     0.189 HD
HETATM    4  N3  UNL     1     -10.604   3.683 -28.506  1.00  0.00    -0.250 N
ATOM      5  H3  UNL     1     -10.409   2.739 -28.840  1.00  0.00     0.192 HD
HETATM    6  C2  UNL     1     -11.376   4.529 -29.217  1.00  0.00     0.341 A
HETATM    7  O1  UNL     1     -11.890   4.199 -30.319  1.00  0.00    -0.245 OA
HETATM    8  N4  UNL     1     -11.617   5.774 -28.749  1.00  0.00    -0.271 N
ATOM      9  H4  UNL     1     -12.203   6.399 -29.301  1.00  0.00     0.174 HD
HETATM   10  C3  UNL     1     -11.113   6.219 -27.585  1.00  0.00     0.294 A
HETATM   11  O2  UNL     1     -11.346   7.388 -27.155  1.00  0.00    -0.264 OA
ENDROOT
BRANCH   1  12
HETATM   12  N1  UNL     1      -9.823   5.742 -25.735  1.00  0.00    -0.380 N
ATOM     13  H12 UNL     1     -10.394   6.331 -25.128  1.00  0.00     0.158 HD
ATOM     14  H11 UNL     1      -8.881   5.491 -25.432  1.00  0.00     0.158 HD
ENDBRANCH   1  12
TORSDOF 1
ENDMDL