MODEL 5
REMARK VINA RESULT: -5.251305507      2.298      3.991
REMARK  1 active torsions:
REMARK  status: ('A' for Active; 'I' for Inactive)
REMARK    1  A    between atoms: C1_2  and  C2_4
REMARK       I    between atoms: N3_6  and  C3_8
REMARK       I    between atoms: C3_8  and  N4_9
REMARK       I    between atoms: C3_8  and  N5_13
ROOT
HETATM    1  C2  UNL     1     -10.885   5.863 -28.712  1.00  0.00     0.180 C
HETATM    2  N2  UNL     1     -11.072   6.881 -27.759  1.00  0.00    -0.077 NA
HETATM    3  N3  UNL     1      -9.746   5.273 -28.877  1.00  0.00    -0.325 N
ATOM      4  H3  UNL     1      -9.650   4.539 -29.580  1.00  0.00     0.164 HD
HETATM    5  C3  UNL     1      -8.610   5.649 -28.071  1.00  0.00     0.481 C
HETATM    6  N4  UNL     1      -9.021   5.708 -26.697  1.00  0.00    -0.033 N
ATOM      7  H41 UNL     1      -8.218   5.974 -26.127  1.00  0.00     0.278 HD
ATOM      8  H42 UNL     1      -9.453   4.840 -26.382  1.00  0.00     0.278 HD
ATOM      9  H43 UNL     1      -9.822   6.324 -26.556  1.00  0.00     0.278 HD
HETATM   10  N5  UNL     1      -7.591   4.615 -28.270  1.00  0.00    -0.033 N
ATOM     11  H51 UNL     1      -6.788   4.880 -27.700  1.00  0.00     0.278 HD
ATOM     12  H52 UNL     1      -7.356   4.465 -29.251  1.00  0.00     0.278 HD
ATOM     13  H53 UNL     1      -7.930   3.673 -28.075  1.00  0.00     0.278 HD
ENDROOT
BRANCH   1  14
HETATM   14  C1  UNL     1     -11.987   5.433 -29.560  1.00  0.00     0.295 C
HETATM   15  N1  UNL     1     -13.099   6.255 -29.868  1.00  0.00    -0.055 NA
HETATM   16  O1  UNL     1     -11.954   4.276 -30.045  1.00  0.00    -0.268 OA
ENDBRANCH   1  14
TORSDOF 1
ENDMDL