MODEL 3
REMARK VINA RESULT: -5.783445742      1.000      1.000
REMARK  0 active torsions:
REMARK  status: ('A' for Active; 'I' for Inactive)
ROOT
HETATM    1  O1  UNL     1      -7.636   6.567 -27.745  1.00  0.00    -0.245 OA
HETATM    2  C1  UNL     1      -8.610   5.854 -28.093  1.00  0.00     0.341 A
HETATM    3  N1  UNL     1      -8.409   4.834 -28.950  1.00  0.00    -0.248 N
ATOM      4  H1  UNL     1      -7.481   4.630 -29.321  1.00  0.00     0.192 HD
HETATM    5  N2  UNL     1      -9.461   4.104 -29.295  1.00  0.00    -0.258 N
ATOM      6  H2  UNL     1      -9.325   3.328 -29.943  1.00  0.00     0.190 HD
HETATM    7  C2  UNL     1     -10.696   4.340 -28.829  1.00  0.00     0.328 A
HETATM    8  O2  UNL     1     -11.709   3.664 -29.139  1.00  0.00    -0.261 OA
HETATM    9  C3  UNL     1     -10.889   5.388 -27.950  1.00  0.00     0.319 A
HETATM   10  O3  UNL     1     -12.044   5.645 -27.485  1.00  0.00    -0.262 OA
HETATM   11  N3  UNL     1      -9.828   6.138 -27.592  1.00  0.00    -0.270 N
ATOM     12  H3  UNL     1      -9.947   6.917 -26.945  1.00  0.00     0.174 HD
ENDROOT
TORSDOF 0
ENDMDL