MODEL 2
REMARK VINA RESULT: -5.326993169      1.634      1.634
REMARK  1 active torsions:
REMARK  status: ('A' for Active; 'I' for Inactive)
REMARK       I    between atoms: C1_4  and  N3_6
REMARK       I    between atoms: N3_6  and  C2_7
REMARK    1  A    between atoms: C2_7  and  C3_9
ROOT
HETATM    1  N1  UNL     1      -8.344   4.640 -28.565  1.00  0.00    -0.362 N
ATOM      2  H11 UNL     1      -9.168   4.039 -28.541  1.00  0.00     0.159 HD
ATOM      3  H12 UNL     1      -7.393   4.415 -28.860  1.00  0.00     0.159 HD
HETATM    4  C1  UNL     1      -8.583   5.882 -28.157  1.00  0.00     0.264 C
HETATM    5  N2  UNL     1      -7.444   6.713 -28.190  1.00  0.00    -0.049 NA
HETATM    6  N3  UNL     1      -9.834   6.178 -27.768  1.00  0.00    -0.330 NA
HETATM    7  C2  UNL     1     -11.100   6.477 -27.376  1.00  0.00     0.384 C
HETATM    8  O1  UNL     1     -11.548   7.564 -26.971  1.00  0.00    -0.246 OA
ENDROOT
BRANCH   7   9
HETATM    9  C3  UNL     1     -12.118   5.381 -27.423  1.00  0.00     0.337 C
HETATM   10  N4  UNL     1     -12.332   4.611 -28.586  1.00  0.00    -0.052 NA
HETATM   11  O2  UNL     1     -12.802   5.131 -26.417  1.00  0.00    -0.264 OA
ENDBRANCH   7   9
TORSDOF 1
ENDMDL