MODEL 1
REMARK VINA RESULT: -7.669533389      0.000      0.000
REMARK  11 active torsions:
REMARK  status: ('A' for Active; 'I' for Inactive)
REMARK    1  A    between atoms: C2_2  and  C3_3
REMARK    2  A    between atoms: C2_2  and  O6_29
REMARK    3  A    between atoms: C3_3  and  C4_4
REMARK    4  A    between atoms: C4_4  and  O1_5
REMARK    5  A    between atoms: C4_4  and  C5_7
REMARK    6  A    between atoms: C11_13  and  O2_14
REMARK    7  A    between atoms: C12_16  and  C13_17
REMARK    8  A    between atoms: C13_17  and  C14_18
REMARK    9  A    between atoms: C13_17  and  C17_21
REMARK   10  A    between atoms: C20_25  and  O4_26
REMARK   11  A    between atoms: O6_29  and  C21_30
ROOT
HETATM    1  C5  UNL     1      67.550  35.873  25.462  1.00  0.00     0.158 C
HETATM    2  C6  UNL     1      68.480  35.688  26.655  1.00  0.00     0.040 C
HETATM    3  C7  UNL     1      68.814  36.967  27.330  1.00  0.00     0.047 C
HETATM    4  C8  UNL     1      67.985  38.140  26.976  1.00  0.00     0.009 A
HETATM    5  C9  UNL     1      66.810  37.968  26.293  1.00  0.00     0.081 A
HETATM    6  C10 UNL     1      66.061  39.036  25.899  1.00  0.00     0.074 A
HETATM    7  C11 UNL     1      66.518  40.288  26.193  1.00  0.00     0.081 A
HETATM    8  C12 UNL     1      67.707  40.538  26.873  1.00  0.00     0.037 A
HETATM    9  C20 UNL     1      68.435  39.407  27.270  1.00  0.00     0.088 A
HETATM   10  O5  UNL     1      66.459  36.639  26.039  1.00  0.00    -0.343 OA
ENDROOT
BRANCH   1  11
HETATM   11  C4  UNL     1      67.058  34.625  24.889  1.00  0.00     0.150 C
BRANCH  11  12
HETATM   12  C3  UNL     1      67.398  33.316  25.422  1.00  0.00     0.066 C
BRANCH  12  13
HETATM   13  C2  UNL     1      66.488  32.639  26.381  1.00  0.00     0.129 C
HETATM   14  C1  UNL     1      65.887  31.429  25.569  1.00  0.00     0.040 C
BRANCH  13  15
HETATM   15  O6  UNL     1      65.377  33.419  26.719  1.00  0.00    -0.325 OA
BRANCH  15  16
HETATM   16  C21 UNL     1      64.118  32.944  27.041  1.00  0.00     0.236 A
HETATM   17  N1  UNL     1      63.656  32.357  28.125  1.00  0.00    -0.215 N
HETATM   18  O7  UNL     1      62.360  32.060  27.997  1.00  0.00    -0.152 OA
ATOM     19  H1  UNL     1      64.214  32.155  28.955  1.00  0.00     0.199 HD
HETATM   20  N2  UNL     1      62.027  32.483  26.791  1.00  0.00    -0.202 N
HETATM   21  C22 UNL     1      63.041  33.026  26.165  1.00  0.00     0.319 A
ATOM     22  H2  UNL     1      61.091  32.397  26.394  1.00  0.00     0.200 HD
HETATM   23  O8  UNL     1      63.135  33.552  24.995  1.00  0.00    -0.261 OA
ENDBRANCH  15  16
ENDBRANCH  13  15
ENDBRANCH  12  13
ENDBRANCH  11  12
BRANCH  11  24
HETATM   24  O1  UNL     1      65.877  34.654  24.172  1.00  0.00    -0.393 OA
ATOM     25  H1  UNL     1      65.244  35.288  24.490  1.00  0.00     0.210 HD
ENDBRANCH  11  24
ENDBRANCH   1  11
BRANCH   9  26
HETATM   26  O4  UNL     1      69.645  39.546  27.987  1.00  0.00    -0.359 OA
ATOM     27  H4  UNL     1      69.604  39.762  28.910  1.00  0.00     0.217 HD
ENDBRANCH   9  26
BRANCH   7  28
HETATM   28  O2  UNL     1      65.687  41.339  25.766  1.00  0.00    -0.360 OA
ATOM     29  H2  UNL     1      65.702  41.508  24.832  1.00  0.00     0.217 HD
ENDBRANCH   7  28
BRANCH   8  30
HETATM   30  C13 UNL     1      68.310  41.847  26.901  1.00  0.00    -0.025 C
BRANCH  30  31
HETATM   31  C14 UNL     1      69.024  42.467  25.791  1.00  0.00     0.010 C
HETATM   32  C15 UNL     1      68.265  43.517  24.994  1.00  0.00     0.014 C
HETATM   33  C16 UNL     1      69.543  41.436  24.818  1.00  0.00     0.014 C
ENDBRANCH  30  31
BRANCH  30  34
HETATM   34  C17 UNL     1      68.433  42.491  28.259  1.00  0.00     0.103 A
HETATM   35  C18 UNL     1      69.715  43.411  28.416  1.00  0.00     0.053 C
HETATM   36  C19 UNL     1      67.580  42.425  29.390  1.00  0.00     0.211 A
HETATM   37  O3  UNL     1      67.317  43.493  28.570  1.00  0.00    -0.370 OA
ENDBRANCH  30  34
ENDBRANCH   8  30
TORSDOF 11
ENDMDL