MODEL 2
REMARK VINA RESULT: -6.647233665      1.705      2.846
REMARK  12 active torsions:
REMARK  status: ('A' for Active; 'I' for Inactive)
REMARK    1  A    between atoms: S1_2  and  C2_3
REMARK    2  A    between atoms: C2_3  and  C3_4
REMARK    3  A    between atoms: C4_5  and  S2_6
REMARK    4  A    between atoms: S2_6  and  C5_7
REMARK    5  A    between atoms: C5_7  and  C6_8
REMARK    6  A    between atoms: C6_8  and  C7_9
REMARK    7  A    between atoms: C14_17  and  C15_18
REMARK    8  A    between atoms: C16_20  and  C17_21
REMARK    9  A    between atoms: C17_21  and  O2_22
REMARK   10  A    between atoms: C18_24  and  O3_25
REMARK   11  A    between atoms: C19_27  and  O4_28
REMARK   12  A    between atoms: C20_30  and  O5_31
ROOT
HETATM    1  C3  UNL     1      65.908  36.456  24.647  1.00  0.00    -0.012 A
HETATM    2  C4  UNL     1      64.767  36.568  23.843  1.00  0.00     0.015 A
HETATM    3  C13 UNL     1      64.064  37.705  23.923  1.00  0.00     0.069 A
HETATM    4  S3  UNL     1      64.897  38.622  25.056  1.00  0.00    -0.098 SA
HETATM    5  C14 UNL     1      66.204  37.487  25.442  1.00  0.00     0.045 A
ENDROOT
BRANCH   5   6
HETATM    6  C15 UNL     1      67.115  37.807  26.561  1.00  0.00     0.096 C
HETATM    7  O1  UNL     1      68.361  37.384  26.647  1.00  0.00    -0.341 OA
HETATM    8  C16 UNL     1      68.729  37.355  28.000  1.00  0.00     0.183 C
HETATM    9  C18 UNL     1      68.924  38.748  28.494  1.00  0.00     0.181 C
HETATM   10  C19 UNL     1      67.945  39.740  27.917  1.00  0.00     0.184 C
HETATM   11  C20 UNL     1      66.776  39.140  27.215  1.00  0.00     0.207 C
BRANCH   8  12
HETATM   12  C17 UNL     1      69.926  36.463  28.139  1.00  0.00     0.199 C
BRANCH  12  13
HETATM   13  O2  UNL     1      70.132  36.031  29.449  1.00  0.00    -0.398 OA
ATOM     14  H2  UNL     1      70.901  36.418  29.850  1.00  0.00     0.209 HD
ENDBRANCH  12  13
ENDBRANCH   8  12
BRANCH   9  15
HETATM   15  O3  UNL     1      68.995  38.817  29.883  1.00  0.00    -0.390 OA
ATOM     16  H3  UNL     1      68.138  38.875  30.289  1.00  0.00     0.210 HD
ENDBRANCH   9  15
BRANCH  10  17
HETATM   17  O4  UNL     1      67.446  40.507  28.971  1.00  0.00    -0.390 OA
ATOM     18  H4  UNL     1      68.014  40.375  29.721  1.00  0.00     0.210 HD
ENDBRANCH  10  17
BRANCH  11  19
HETATM   19  O5  UNL     1      65.635  39.091  27.984  1.00  0.00    -0.386 OA
ATOM     20  H5  UNL     1      65.181  39.924  28.033  1.00  0.00     0.210 HD
ENDBRANCH  11  19
ENDBRANCH   5   6
BRANCH   1  21
HETATM   21  C2  UNL     1      66.661  35.162  24.441  1.00  0.00     0.114 C
BRANCH  21  22
HETATM   22  S1  UNL     1      67.713  34.533  25.660  1.00  0.00    -0.169 SA
HETATM   23  C1  UNL     1      68.158  32.767  25.373  1.00  0.00     0.090 C
ENDBRANCH  21  22
ENDBRANCH   1  21
BRANCH   2  24
HETATM   24  S2  UNL     1      64.178  35.223  22.742  1.00  0.00    -0.129 SA
BRANCH  24  25
HETATM   25  C5  UNL     1      63.536  33.843  23.670  1.00  0.00     0.084 C
BRANCH  25  26
HETATM   26  C6  UNL     1      62.872  34.262  24.967  1.00  0.00     0.049 C
BRANCH  26  27
HETATM   27  C7  UNL     1      63.423  33.466  26.084  1.00  0.00    -0.057 A
HETATM   28  C8  UNL     1      64.703  33.035  26.168  1.00  0.00     0.007 A
HETATM   29  C9  UNL     1      65.121  32.298  27.266  1.00  0.00     0.001 A
HETATM   30  C10 UNL     1      64.220  31.998  28.287  1.00  0.00     0.000 A
HETATM   31  C11 UNL     1      62.922  32.428  28.213  1.00  0.00     0.001 A
HETATM   32  C12 UNL     1      62.555  33.153  27.110  1.00  0.00     0.007 A
ENDBRANCH  26  27
ENDBRANCH  25  26
ENDBRANCH  24  25
ENDBRANCH   2  24
TORSDOF 12
ENDMDL