MODEL 2
REMARK VINA RESULT: -6.977434773      2.583      5.004
REMARK  12 active torsions:
REMARK  status: ('A' for Active; 'I' for Inactive)
REMARK    1  A    between atoms: C2_2  and  C3_4
REMARK    2  A    between atoms: C6_8  and  O3_9
REMARK    3  A    between atoms: N1_11  and  O4_12
REMARK    4  A    between atoms: O4_12  and  C7_13
REMARK    5  A    between atoms: C7_13  and  C8_14
REMARK    6  A    between atoms: C8_14  and  C9_15
REMARK    7  A    between atoms: C9_15  and  C10_16
REMARK    8  A    between atoms: C10_16  and  C11_17
REMARK    9  A    between atoms: C11_17  and  C12_18
REMARK   10  A    between atoms: C18_24  and  O5_25
REMARK   11  A    between atoms: C20_29  and  O7_30
REMARK   12  A    between atoms: C21_32  and  O8_34
ROOT
HETATM    1  C3  UNL     1      67.607  41.717  26.930  1.00  0.00     0.266 C
HETATM    2  O2  UNL     1      67.981  40.772  27.912  1.00  0.00    -0.299 OA
HETATM    3  C4  UNL     1      68.095  39.434  27.485  1.00  0.00     0.139 A
HETATM    4  C5  UNL     1      67.684  39.101  26.208  1.00  0.00     0.064 A
HETATM    5  C6  UNL     1      67.887  37.752  26.011  1.00  0.00     0.182 A
HETATM    6  N1  UNL     1      68.414  37.262  27.148  1.00  0.00    -0.173 N
HETATM    7  C18 UNL     1      68.548  38.270  28.054  1.00  0.00     0.204 A
HETATM    8  C19 UNL     1      67.146  40.188  25.368  1.00  0.00     0.198 C
HETATM    9  O6  UNL     1      66.544  41.116  26.215  1.00  0.00    -0.333 OA
HETATM   10  C20 UNL     1      68.298  40.969  24.813  1.00  0.00     0.192 C
HETATM   11  C21 UNL     1      68.684  41.930  25.918  1.00  0.00     0.147 C
HETATM   12  C22 UNL     1      70.049  41.505  26.416  1.00  0.00     0.055 C
ENDROOT
BRANCH   6  13
HETATM   13  O4  UNL     1      68.787  35.971  27.435  1.00  0.00    -0.269 OA
BRANCH  13  14
HETATM   14  C7  UNL     1      69.935  35.345  26.938  1.00  0.00     0.202 C
BRANCH  14  15
HETATM   15  C8  UNL     1      69.445  34.229  25.999  1.00  0.00     0.029 C
BRANCH  15  16
HETATM   16  C9  UNL     1      68.046  33.828  26.342  1.00  0.00     0.002 C
BRANCH  16  17
HETATM   17  C10 UNL     1      67.297  33.409  25.111  1.00  0.00     0.000 C
BRANCH  17  18
HETATM   18  C11 UNL     1      66.818  32.004  25.244  1.00  0.00     0.004 C
BRANCH  18  19
HETATM   19  C12 UNL     1      65.346  31.939  25.637  1.00  0.00    -0.014 C
HETATM   20  C13 UNL     1      65.168  31.688  27.106  1.00  0.00     0.004 C
HETATM   21  C14 UNL     1      64.241  32.678  27.755  1.00  0.00     0.000 C
HETATM   22  C15 UNL     1      62.966  32.820  26.934  1.00  0.00     0.000 C
HETATM   23  C16 UNL     1      63.249  33.292  25.543  1.00  0.00     0.000 C
HETATM   24  C17 UNL     1      64.726  33.254  25.213  1.00  0.00     0.004 C
ENDBRANCH  18  19
ENDBRANCH  17  18
ENDBRANCH  16  17
ENDBRANCH  15  16
ENDBRANCH  14  15
ENDBRANCH  13  14
ENDBRANCH   6  13
BRANCH   5  25
HETATM   25  O3  UNL     1      67.602  37.010  24.847  1.00  0.00    -0.344 OA
ATOM     26  H3  UNL     1      67.927  36.145  24.625  1.00  0.00     0.219 HD
ENDBRANCH   5  25
BRANCH   7  27
HETATM   27  O5  UNL     1      69.057  38.168  29.356  1.00  0.00    -0.342 OA
ATOM     28  H5  UNL     1      68.666  38.578  30.119  1.00  0.00     0.219 HD
ENDBRANCH   7  27
BRANCH  10  29
HETATM   29  O7  UNL     1      67.896  41.630  23.659  1.00  0.00    -0.389 OA
ATOM     30  H7  UNL     1      68.081  41.086  22.902  1.00  0.00     0.210 HD
ENDBRANCH  10  29
BRANCH   1  31
HETATM   31  C2  UNL     1      67.075  42.915  27.556  1.00  0.00     0.188 C
HETATM   32  C1  UNL     1      67.431  43.398  28.918  1.00  0.00     0.097 C
HETATM   33  O1  UNL     1      66.274  43.583  26.925  1.00  0.00    -0.292 OA
ENDBRANCH   1  31
BRANCH  11  34
HETATM   34  O8  UNL     1      68.748  43.188  25.391  1.00  0.00    -0.381 OA
ATOM     35  H8  UNL     1      68.748  43.231  24.442  1.00  0.00     0.211 HD
ENDBRANCH  11  34
TORSDOF 12
ENDMDL