MODEL 4
REMARK VINA RESULT: -8.708689015      4.250      7.725
REMARK  10 active torsions:
REMARK  status: ('A' for Active; 'I' for Inactive)
REMARK    1  A    between atoms: C5_6  and  C6_7
REMARK    2  A    between atoms: C7_12  and  S1_13
REMARK    3  A    between atoms: S1_13  and  C8_14
REMARK    4  A    between atoms: C8_14  and  C9_15
REMARK    5  A    between atoms: C9_15  and  O2_16
REMARK    6  A    between atoms: C9_15  and  N3_18
REMARK    7  A    between atoms: N3_18  and  N4_20
REMARK    8  A    between atoms: C10_22  and  C11_23
REMARK    9  A    between atoms: C16_28  and  O3_29
REMARK   10  A    between atoms: N5_31  and  C17_32
ROOT
HETATM    1  C6  UNL     1      68.103  35.653  25.444  1.00  0.00     0.156 A
HETATM    2  N1  UNL     1      67.677  34.555  24.709  1.00  0.00    -0.281 N
ATOM      3  H1  UNL     1      68.039  33.603  24.774  1.00  0.00     0.188 HD
HETATM    4  N2  UNL     1      66.741  34.966  23.930  1.00  0.00    -0.278 N
ATOM      5  H2  UNL     1      66.247  34.361  23.274  1.00  0.00     0.189 HD
HETATM    6  C7  UNL     1      66.486  36.253  24.070  1.00  0.00     0.168 A
HETATM    7  N5  UNL     1      67.366  36.671  25.039  1.00  0.00    -0.274 N
ENDROOT
BRANCH   6   8
HETATM    8  S1  UNL     1      65.330  37.322  23.276  1.00  0.00    -0.084 SA
BRANCH   8   9
HETATM    9  C8  UNL     1      63.681  36.708  23.124  1.00  0.00     0.167 C
BRANCH   9  10
HETATM   10  C9  UNL     1      63.410  35.712  22.056  1.00  0.00     0.140 C
BRANCH  10  11
HETATM   11  O2  UNL     1      64.384  35.707  21.041  1.00  0.00    -0.348 OA
ATOM     12  H2  UNL     1      64.132  35.195  20.282  1.00  0.00     0.219 HD
ENDBRANCH  10  11
BRANCH  10  13
HETATM   13  N3  UNL     1      62.956  34.428  22.454  1.00  0.00    -0.283 N
ATOM     14  H3  UNL     1      62.531  33.810  21.762  1.00  0.00     0.188 HD
BRANCH  13  15
HETATM   15  N4  UNL     1      63.079  33.997  23.765  1.00  0.00    -0.309 N
HETATM   16  C10 UNL     1      64.082  33.367  24.264  1.00  0.00     0.121 C
ATOM     17  H4  UNL     1      62.300  34.198  24.393  1.00  0.00     0.186 HD
BRANCH  16  18
HETATM   18  C11 UNL     1      64.016  32.995  25.685  1.00  0.00     0.014 A
HETATM   19  C12 UNL     1      62.858  33.176  26.406  1.00  0.00     0.015 A
HETATM   20  C13 UNL     1      62.817  32.822  27.743  1.00  0.00     0.001 A
HETATM   21  C14 UNL     1      63.900  32.287  28.406  1.00  0.00     0.003 A
HETATM   22  C15 UNL     1      65.055  32.113  27.668  1.00  0.00     0.037 A
HETATM   23  C16 UNL     1      65.101  32.465  26.329  1.00  0.00     0.077 A
BRANCH  23  24
HETATM   24  O3  UNL     1      66.269  32.292  25.568  1.00  0.00    -0.360 OA
ATOM     25  H3  UNL     1      67.016  31.907  26.010  1.00  0.00     0.217 HD
ENDBRANCH  23  24
ENDBRANCH  16  18
ENDBRANCH  13  15
ENDBRANCH  10  13
ENDBRANCH   9  10
ENDBRANCH   8   9
ENDBRANCH   6   8
BRANCH   7  26
HETATM   26  C17 UNL     1      67.394  38.016  25.464  1.00  0.00     0.043 A
HETATM   27  C18 UNL     1      66.807  38.438  26.657  1.00  0.00     0.030 A
HETATM   28  C19 UNL     1      66.854  39.724  27.124  1.00  0.00     0.002 A
HETATM   29  C20 UNL     1      67.526  40.666  26.370  1.00  0.00     0.000 A
HETATM   30  C21 UNL     1      68.130  40.326  25.181  1.00  0.00     0.002 A
HETATM   31  C22 UNL     1      68.059  39.021  24.747  1.00  0.00     0.030 A
ENDBRANCH   7  26
BRANCH   1  32
HETATM   32  C5  UNL     1      69.159  35.485  26.409  1.00  0.00     0.081 A
HETATM   33  C4  UNL     1      70.338  34.865  26.177  1.00  0.00     0.034 A
HETATM   34  C3  UNL     1      71.344  34.728  27.166  1.00  0.00     0.008 A
HETATM   35  C2  UNL     1      71.124  35.240  28.407  1.00  0.00     0.074 A
HETATM   36  C1  UNL     1      69.921  35.867  28.625  1.00  0.00     0.245 A
HETATM   37  O1  UNL     1      69.703  36.341  29.756  1.00  0.00    -0.268 OA
HETATM   38  N6  UNL     1      68.993  35.974  27.659  1.00  0.00    -0.320 N
ATOM     39  H6  UNL     1      68.118  36.450  27.879  1.00  0.00     0.169 HD
ENDBRANCH   1  32
TORSDOF 10
ENDMDL