MODEL 2
REMARK VINA RESULT: -7.030538648      2.779      6.475
REMARK  13 active torsions:
REMARK  status: ('A' for Active; 'I' for Inactive)
REMARK    1  A    between atoms: C2_2  and  C3_3
REMARK    2  A    between atoms: C3_3  and  O1_4
REMARK    3  A    between atoms: O1_4  and  C4_5
REMARK    4  A    between atoms: C4_5  and  C5_7
REMARK    5  A    between atoms: N2_13  and  C8_14
REMARK    6  A    between atoms: C9_16  and  C10_17
REMARK    7  A    between atoms: C10_17  and  C11_18
REMARK    8  A    between atoms: C11_18  and  C12_19
REMARK    9  A    between atoms: C13_20  and  C15_22
REMARK   10  A    between atoms: C17_25  and  C18_26
REMARK   11  A    between atoms: C18_26  and  O5_27
REMARK   12  A    between atoms: C19_29  and  O6_30
REMARK   13  A    between atoms: C20_32  and  O7_33
ROOT
HETATM    1  C8  UNL     1      66.811  36.097  24.430  1.00  0.00     0.265 C
HETATM    2  O3  UNL     1      66.399  37.219  23.732  1.00  0.00    -0.334 OA
HETATM    3  C9  UNL     1      66.075  36.953  22.414  1.00  0.00     0.263 C
HETATM    4  O4  UNL     1      65.450  35.710  22.276  1.00  0.00    -0.351 OA
HETATM    5  C17 UNL     1      64.235  35.704  22.909  1.00  0.00     0.179 C
HETATM    6  C19 UNL     1      64.378  35.361  24.342  1.00  0.00     0.182 C
HETATM    7  C20 UNL     1      65.778  35.104  24.758  1.00  0.00     0.198 C
ENDROOT
BRANCH   1   8
HETATM    8  N2  UNL     1      67.473  36.594  25.646  1.00  0.00    -0.287 N
HETATM    9  C5  UNL     1      68.488  36.024  26.306  1.00  0.00     0.130 A
HETATM   10  C6  UNL     1      68.798  36.827  27.407  1.00  0.00     0.126 A
HETATM   11  N1  UNL     1      67.947  37.856  27.359  1.00  0.00    -0.341 N
HETATM   12  C7  UNL     1      67.136  37.735  26.300  1.00  0.00     0.180 A
ATOM     13  H1  UNL     1      67.920  38.622  28.031  1.00  0.00     0.167 HD
HETATM   14  S1  UNL     1      65.944  38.794  25.853  1.00  0.00    -0.040 SA
BRANCH   9  15
HETATM   15  C4  UNL     1      69.211  34.779  25.990  1.00  0.00     0.311 C
HETATM   16  O2  UNL     1      68.530  33.735  25.839  1.00  0.00    -0.258 OA
BRANCH  15  17
HETATM   17  O1  UNL     1      70.578  34.695  25.854  1.00  0.00    -0.316 OA
BRANCH  17  18
HETATM   18  C3  UNL     1      71.467  34.007  26.674  1.00  0.00     0.178 C
BRANCH  18  19
HETATM   19  C2  UNL     1      71.843  34.820  27.879  1.00  0.00     0.022 C
HETATM   20  C1  UNL     1      73.147  35.582  27.613  1.00  0.00     0.007 C
ENDBRANCH  18  19
ENDBRANCH  17  18
ENDBRANCH  15  17
ENDBRANCH   9  15
ENDBRANCH   1   8
BRANCH   7  21
HETATM   21  O7  UNL     1      65.759  34.858  26.136  1.00  0.00    -0.388 OA
ATOM     22  H7  UNL     1      65.613  35.666  26.614  1.00  0.00     0.210 HD
ENDBRANCH   7  21
BRANCH   3  23
HETATM   23  C10 UNL     1      67.248  36.988  21.468  1.00  0.00     0.065 C
BRANCH  23  24
HETATM   24  C11 UNL     1      67.024  38.143  20.515  1.00  0.00     0.032 C
BRANCH  24  25
HETATM   25  C12 UNL     1      66.117  37.832  19.416  1.00  0.00    -0.024 C
HETATM   26  C13 UNL     1      65.633  38.803  18.676  1.00  0.00    -0.088 C
HETATM   27  C14 UNL     1      65.997  40.210  18.945  1.00  0.00     0.043 C
BRANCH  26  28
HETATM   28  C15 UNL     1      64.711  38.487  17.562  1.00  0.00     0.029 C
HETATM   29  C16 UNL     1      65.006  39.339  16.333  1.00  0.00     0.010 C
ENDBRANCH  26  28
ENDBRANCH  24  25
ENDBRANCH  23  24
ENDBRANCH   3  23
BRANCH   6  30
HETATM   30  O6  UNL     1      63.660  36.218  25.177  1.00  0.00    -0.390 OA
ATOM     31  H6  UNL     1      63.155  35.755  25.836  1.00  0.00     0.210 HD
ENDBRANCH   6  30
BRANCH   5  32
HETATM   32  C18 UNL     1      63.246  34.805  22.192  1.00  0.00     0.198 C
BRANCH  32  33
HETATM   33  O5  UNL     1      62.413  34.244  23.172  1.00  0.00    -0.398 OA
ATOM     34  H5  UNL     1      61.519  34.470  22.941  1.00  0.00     0.209 HD
ENDBRANCH  32  33
ENDBRANCH   5  32
TORSDOF 13
ENDMDL