MODEL 3
REMARK VINA RESULT: -8.743187203      0.545      1.046
REMARK  9 active torsions:
REMARK  status: ('A' for Active; 'I' for Inactive)
REMARK    1  A    between atoms: N3_7  and  C3_8
REMARK    2  A    between atoms: C4_14  and  N6_15
REMARK    3  A    between atoms: C5_18  and  C6_19
REMARK    4  A    between atoms: C6_19  and  C7_20
REMARK    5  A    between atoms: C6_19  and  N7_27
REMARK    6  A    between atoms: C7_20  and  C8_21
REMARK       I    between atoms: N7_27  and  C14_29
REMARK    7  A    between atoms: C14_29  and  C15_31
REMARK    8  A    between atoms: C15_31  and  C16_32
REMARK    9  A    between atoms: C16_32  and  C17_33
ROOT
HETATM    1  C6  UNL     1      66.571  36.153  24.631  1.00  0.00     0.043 C
ENDROOT
BRANCH   1   2
HETATM    2  C5  UNL     1      67.036  37.001  25.758  1.00  0.00     0.106 A
HETATM    3  C2  UNL     1      66.332  38.076  26.288  1.00  0.00     0.054 A
HETATM    4  C1  UNL     1      65.074  38.717  25.888  1.00  0.00     0.072 C
HETATM    5  N1  UNL     1      67.039  38.583  27.359  1.00  0.00    -0.288 N
HETATM    6  N2  UNL     1      68.088  37.868  27.464  1.00  0.00    -0.234 N
ATOM      7  H1  UNL     1      66.774  39.372  27.950  1.00  0.00     0.188 HD
HETATM    8  N3  UNL     1      68.124  36.900  26.513  1.00  0.00    -0.216 N
ATOM      9  H2  UNL     1      68.810  38.005  28.172  1.00  0.00     0.209 HD
BRANCH   8  10
HETATM   10  C3  UNL     1      69.226  36.007  26.487  1.00  0.00     0.196 A
HETATM   11  N4  UNL     1      69.743  35.276  25.477  1.00  0.00    -0.220 N
HETATM   12  O1  UNL     1      70.804  34.638  25.904  1.00  0.00    -0.153 OA
ATOM     13  H4  UNL     1      69.366  35.229  24.530  1.00  0.00     0.198 HD
HETATM   14  N5  UNL     1      71.049  34.885  27.144  1.00  0.00    -0.222 N
HETATM   15  C4  UNL     1      70.074  35.747  27.554  1.00  0.00     0.169 A
ATOM     16  H5  UNL     1      71.815  34.513  27.704  1.00  0.00     0.198 HD
BRANCH  15  17
HETATM   17  N6  UNL     1      70.022  36.193  28.755  1.00  0.00    -0.381 N
ATOM     18  H62 UNL     1      69.465  35.737  29.479  1.00  0.00     0.157 HD
ATOM     19  H61 UNL     1      70.484  37.009  29.158  1.00  0.00     0.157 HD
ENDBRANCH  15  17
ENDBRANCH   8  10
ENDBRANCH   1   2
BRANCH   1  20
HETATM   20  C7  UNL     1      66.320  34.747  24.980  1.00  0.00     0.064 C
BRANCH  20  21
HETATM   21  C8  UNL     1      65.252  34.460  26.048  1.00  0.00    -0.009 C
HETATM   22  C9  UNL     1      63.880  34.620  25.566  1.00  0.00     0.005 C
HETATM   23  C10 UNL     1      62.881  33.694  26.271  1.00  0.00     0.000 C
HETATM   24  C11 UNL     1      63.359  32.289  25.997  1.00  0.00     0.000 C
HETATM   25  C12 UNL     1      64.597  32.123  26.851  1.00  0.00     0.000 C
HETATM   26  C13 UNL     1      65.635  33.128  26.608  1.00  0.00     0.005 C
ENDBRANCH  20  21
ENDBRANCH   1  20
BRANCH   1  27
HETATM   27  N7  UNL     1      67.176  36.425  23.374  1.00  0.00    -0.328 N
HETATM   28  C14 UNL     1      66.409  37.101  22.351  1.00  0.00     0.222 C
HETATM   29  O2  UNL     1      65.214  37.444  22.582  1.00  0.00    -0.273 OA
ATOM     30  H7  UNL     1      68.140  36.146  23.196  1.00  0.00     0.168 HD
BRANCH  28  31
HETATM   31  C15 UNL     1      66.994  37.394  21.044  1.00  0.00     0.109 C
BRANCH  31  32
HETATM   32  C16 UNL     1      65.969  37.266  19.935  1.00  0.00     0.068 C
BRANCH  32  33
HETATM   33  C17 UNL     1      66.263  38.232  18.862  1.00  0.00     0.035 A
HETATM   34  C18 UNL     1      67.331  39.091  18.731  1.00  0.00     0.170 A
HETATM   35  O3  UNL     1      67.184  39.766  17.633  1.00  0.00    -0.295 OA
HETATM   36  C19 UNL     1      66.092  39.420  17.019  1.00  0.00     0.219 A
HETATM   37  S1  UNL     1      65.574  40.053  15.606  1.00  0.00    -0.033 SA
HETATM   38  N8  UNL     1      65.504  38.474  17.757  1.00  0.00    -0.329 N
ATOM     39  H8  UNL     1      64.626  38.007  17.529  1.00  0.00     0.168 HD
ENDBRANCH  32  33
ENDBRANCH  31  32
ENDBRANCH  28  31
ENDBRANCH   1  27
TORSDOF 9
ENDMDL