MODEL 4
REMARK VINA RESULT: -7.964009934      1.496      2.217
REMARK  11 active torsions:
REMARK  status: ('A' for Active; 'I' for Inactive)
REMARK    1  A    between atoms: C5_5  and  C6_6
REMARK    2  A    between atoms: C8_8  and  O1_9
REMARK    3  A    between atoms: C9_11  and  C10_12
REMARK    4  A    between atoms: C9_11  and  C11_15
REMARK    5  A    between atoms: C10_12  and  O2_13
REMARK    6  A    between atoms: C11_15  and  N1_16
REMARK    7  A    between atoms: C13_18  and  C14_19
REMARK    8  A    between atoms: C14_19  and  N2_20
REMARK    9  A    between atoms: N2_20  and  C15_22
REMARK   10  A    between atoms: C18_25  and  C19_26
REMARK   11  A    between atoms: N3_27  and  O3_29
ROOT
HETATM    1  N1  UNL     1      66.482  38.718  18.523  1.00  0.00    -0.284 N
HETATM    2  C12 UNL     1      65.980  37.830  19.393  1.00  0.00     0.140 A
HETATM    3  C13 UNL     1      66.700  37.842  20.571  1.00  0.00     0.061 A
HETATM    4  N4  UNL     1      67.655  38.769  20.375  1.00  0.00    -0.287 N
ATOM      5  H4  UNL     1      68.369  39.035  21.053  1.00  0.00     0.188 HD
HETATM    6  N5  UNL     1      67.518  39.279  19.168  1.00  0.00    -0.241 N
ATOM      7  H5  UNL     1      68.120  40.003  18.776  1.00  0.00     0.208 HD
ENDROOT
BRANCH   1   8
HETATM    8  C11 UNL     1      66.082  39.054  17.211  1.00  0.00     0.192 C
BRANCH   8   9
HETATM    9  C9  UNL     1      65.816  40.454  16.858  1.00  0.00     0.126 C
HETATM   10  C8  UNL     1      66.899  41.337  16.410  1.00  0.00     0.159 C
HETATM   11  C7  UNL     1      66.325  42.717  16.806  1.00  0.00     0.072 C
HETATM   12  C6  UNL     1      65.686  42.327  18.110  1.00  0.00     0.158 C
HETATM   13  O4  UNL     1      65.168  41.078  17.937  1.00  0.00    -0.363 OA
BRANCH  10  14
HETATM   14  O1  UNL     1      68.106  41.273  17.046  1.00  0.00    -0.392 OA
ATOM     15  H1  UNL     1      68.591  42.018  16.714  1.00  0.00     0.210 HD
ENDBRANCH  10  14
BRANCH  12  16
HETATM   16  C5  UNL     1      64.618  43.254  18.531  1.00  0.00    -0.029 A
HETATM   17  C4  UNL     1      63.357  43.297  17.976  1.00  0.00     0.010 A
HETATM   18  C3  UNL     1      62.399  44.193  18.421  1.00  0.00     0.007 A
HETATM   19  C2  UNL     1      62.668  45.076  19.432  1.00  0.00    -0.062 A
HETATM   20  C1  UNL     1      61.647  46.053  19.925  1.00  0.00     0.048 C
HETATM   21  C23 UNL     1      63.930  45.049  20.002  1.00  0.00     0.007 A
HETATM   22  C22 UNL     1      64.893  44.142  19.550  1.00  0.00     0.010 A
ENDBRANCH  12  16
BRANCH   9  23
HETATM   23  C10 UNL     1      64.742  40.493  15.743  1.00  0.00     0.206 C
BRANCH  23  24
HETATM   24  O2  UNL     1      65.020  39.389  14.918  1.00  0.00    -0.398 OA
ATOM     25  H2  UNL     1      64.202  39.190  14.480  1.00  0.00     0.209 HD
ENDBRANCH  23  24
ENDBRANCH   9  23
ENDBRANCH   8   9
ENDBRANCH   1   8
BRANCH   3  26
HETATM   26  C14 UNL     1      66.452  37.001  21.771  1.00  0.00     0.179 C
BRANCH  26  27
HETATM   27  N2  UNL     1      65.080  36.625  21.834  1.00  0.00    -0.384 N
ATOM     28  H2  UNL     1      64.446  36.877  21.075  1.00  0.00     0.160 HD
BRANCH  27  29
HETATM   29  C15 UNL     1      64.596  35.899  22.952  1.00  0.00     0.028 A
HETATM   30  C16 UNL     1      65.059  36.163  24.227  1.00  0.00     0.030 A
HETATM   31  C17 UNL     1      64.574  35.444  25.314  1.00  0.00     0.015 A
HETATM   32  C18 UNL     1      63.629  34.454  25.161  1.00  0.00    -0.019 A
HETATM   33  C20 UNL     1      63.177  34.200  23.887  1.00  0.00     0.015 A
HETATM   34  C21 UNL     1      63.650  34.909  22.799  1.00  0.00     0.030 A
BRANCH  32  35
HETATM   35  C19 UNL     1      63.142  33.716  26.328  1.00  0.00     0.125 C
HETATM   36  N3  UNL     1      62.364  32.718  26.167  1.00  0.00    -0.280 N
ATOM     37  H3  UNL     1      62.108  32.471  25.211  1.00  0.00     0.193 HD
BRANCH  36  38
HETATM   38  O3  UNL     1      61.850  31.962  27.165  1.00  0.00    -0.290 OA
ATOM     39  H3  UNL     1      61.163  32.236  27.762  1.00  0.00     0.244 HD
ENDBRANCH  36  38
ENDBRANCH  32  35
ENDBRANCH  27  29
ENDBRANCH  26  27
ENDBRANCH   3  26
TORSDOF 11
ENDMDL