MODEL 1
REMARK VINA RESULT: -8.497947450      0.000      0.000
REMARK  10 active torsions:
REMARK  status: ('A' for Active; 'I' for Inactive)
REMARK    1  A    between atoms: C4_4  and  C5_5
REMARK    2  A    between atoms: C5_5  and  O1_6
REMARK    3  A    between atoms: C5_5  and  N1_8
REMARK    4  A    between atoms: N1_8  and  C6_10
REMARK    5  A    between atoms: N2_12  and  C8_13
REMARK    6  A    between atoms: C16_25  and  N5_26
REMARK    7  A    between atoms: N5_26  and  C17_28
REMARK    8  A    between atoms: C17_28  and  O2_29
REMARK    9  A    between atoms: C17_28  and  C18_31
REMARK   10  A    between atoms: N7_36  and  C21_37
ROOT
HETATM    1  C1  UNL     1      62.635  35.141  21.875  1.00  0.00     0.050 C
HETATM    2  C2  UNL     1      64.001  35.571  22.191  1.00  0.00    -0.035 A
HETATM    3  C3  UNL     1      64.634  36.466  21.315  1.00  0.00     0.020 A
HETATM    4  C4  UNL     1      65.893  36.890  21.562  1.00  0.00    -0.010 A
HETATM    5  C14 UNL     1      66.551  36.431  22.695  1.00  0.00     0.014 A
HETATM    6  C15 UNL     1      65.907  35.547  23.550  1.00  0.00     0.030 A
HETATM    7  C16 UNL     1      64.632  35.107  23.311  1.00  0.00     0.036 A
ENDROOT
BRANCH   4   8
HETATM    8  C5  UNL     1      66.589  37.832  20.633  1.00  0.00     0.253 C
BRANCH   8   9
HETATM    9  O1  UNL     1      67.110  37.100  19.532  1.00  0.00    -0.372 OA
ATOM     10  H1  UNL     1      67.959  37.455  19.297  1.00  0.00     0.212 HD
ENDBRANCH   8   9
BRANCH   8  11
HETATM   11  N1  UNL     1      65.642  38.745  20.032  1.00  0.00    -0.344 N
ATOM     12  H1  UNL     1      65.088  39.364  20.626  1.00  0.00     0.164 HD
BRANCH  11  13
HETATM   13  C6  UNL     1      65.475  38.788  18.611  1.00  0.00     0.136 A
HETATM   14  C7  UNL     1      65.810  39.827  17.763  1.00  0.00     0.161 A
HETATM   15  N2  UNL     1      65.496  39.476  16.504  1.00  0.00    -0.281 N
HETATM   16  N3  UNL     1      64.980  38.244  16.592  1.00  0.00    -0.239 N
HETATM   17  N4  UNL     1      64.966  37.832  17.835  1.00  0.00    -0.270 N
ATOM     18  H3  UNL     1      64.643  37.699  15.798  1.00  0.00     0.208 HD
ATOM     19  H4  UNL     1      64.621  36.928  18.156  1.00  0.00     0.190 HD
BRANCH  15  20
HETATM   20  C8  UNL     1      65.684  40.279  15.308  1.00  0.00     0.109 C
HETATM   21  C9  UNL     1      64.337  40.827  14.897  1.00  0.00     0.027 C
HETATM   22  C10 UNL     1      64.454  41.497  13.559  1.00  0.00     0.002 C
HETATM   23  C11 UNL     1      64.790  40.493  12.509  1.00  0.00     0.000 C
HETATM   24  C12 UNL     1      65.564  39.315  12.991  1.00  0.00     0.002 C
HETATM   25  C13 UNL     1      66.381  39.552  14.213  1.00  0.00     0.027 C
ENDBRANCH  15  20
ENDBRANCH  11  13
ENDBRANCH   8  11
ENDBRANCH   4   8
BRANCH   7  26
HETATM   26  N5  UNL     1      64.002  34.226  24.185  1.00  0.00    -0.357 N
ATOM     27  H5  UNL     1      63.910  33.250  23.901  1.00  0.00     0.162 HD
BRANCH  26  28
HETATM   28  C17 UNL     1      63.464  34.618  25.485  1.00  0.00     0.286 C
BRANCH  28  29
HETATM   29  O2  UNL     1      62.059  34.691  25.307  1.00  0.00    -0.370 OA
ATOM     30  H2  UNL     1      61.888  35.571  24.993  1.00  0.00     0.212 HD
ENDBRANCH  28  29
BRANCH  28  31
HETATM   31  C18 UNL     1      63.715  33.535  26.502  1.00  0.00     0.125 C
HETATM   32  N6  UNL     1      62.848  33.198  27.390  1.00  0.00    -0.375 N
HETATM   33  C19 UNL     1      63.329  32.134  28.247  1.00  0.00     0.141 C
ATOM     34  H6  UNL     1      61.928  33.630  27.481  1.00  0.00     0.160 HD
HETATM   35  C20 UNL     1      64.815  32.168  27.946  1.00  0.00     0.144 C
HETATM   36  N7  UNL     1      64.892  32.789  26.611  1.00  0.00    -0.362 N
BRANCH  36  37
HETATM   37  C21 UNL     1      65.963  32.610  25.696  1.00  0.00     0.077 C
HETATM   38  C22 UNL     1      66.260  31.181  25.317  1.00  0.00     0.032 C
HETATM   39  C23 UNL     1      67.252  33.288  26.184  1.00  0.00     0.032 C
ENDBRANCH  36  37
ENDBRANCH  28  31
ENDBRANCH  26  28
ENDBRANCH   7  26
TORSDOF 10
ENDMDL