MODEL 1
REMARK VINA RESULT: -8.355022216      0.000      0.000
REMARK  13 active torsions:
REMARK  status: ('A' for Active; 'I' for Inactive)
REMARK    1  A    between atoms: C5_5  and  C6_6
REMARK    2  A    between atoms: C6_6  and  C7_7
REMARK    3  A    between atoms: C7_7  and  O1_8
REMARK    4  A    between atoms: C7_7  and  C15_16
REMARK    5  A    between atoms: O1_8  and  C8_9
REMARK    6  A    between atoms: C8_9  and  C9_10
REMARK    7  A    between atoms: C16_19  and  C17_20
REMARK    8  A    between atoms: C17_20  and  S1_21
REMARK    9  A    between atoms: S1_21  and  C18_22
REMARK   10  A    between atoms: C18_22  and  O4_23
REMARK   11  A    between atoms: N1_25  and  O5_27
REMARK   12  A    between atoms: C19_29  and  O6_30
REMARK   13  A    between atoms: C20_32  and  O7_33
ROOT
HETATM    1  C15 UNL     1      65.847  37.898  24.263  1.00  0.00     0.220 C
HETATM    2  O2  UNL     1      67.100  38.478  24.137  1.00  0.00    -0.230 OA
HETATM    3  O3  UNL     1      67.306  39.494  24.915  1.00  0.00    -0.232 OA
HETATM    4  C16 UNL     1      67.502  39.135  26.243  1.00  0.00     0.201 C
HETATM    5  C19 UNL     1      66.277  38.379  26.697  1.00  0.00     0.182 C
HETATM    6  C20 UNL     1      65.270  38.448  25.563  1.00  0.00     0.184 C
ENDROOT
BRANCH   1   7
HETATM    7  C7  UNL     1      65.899  36.422  24.352  1.00  0.00     0.162 C
BRANCH   7   8
HETATM    8  C6  UNL     1      65.986  35.668  23.060  1.00  0.00     0.100 C
BRANCH   8   9
HETATM    9  C5  UNL     1      65.976  36.473  21.828  1.00  0.00     0.056 A
HETATM   10  C4  UNL     1      64.874  36.864  21.064  1.00  0.00     0.035 A
HETATM   11  C3  UNL     1      65.356  37.598  20.012  1.00  0.00     0.035 A
HETATM   12  C2  UNL     1      66.724  37.640  20.154  1.00  0.00     0.049 A
HETATM   13  C1  UNL     1      67.664  38.352  19.206  1.00  0.00     0.076 C
HETATM   14  O8  UNL     1      67.024  36.974  21.218  1.00  0.00    -0.320 OA
ENDBRANCH   8   9
ENDBRANCH   7   8
BRANCH   7  15
HETATM   15  O1  UNL     1      64.721  35.972  24.980  1.00  0.00    -0.378 OA
BRANCH  15  16
HETATM   16  C8  UNL     1      64.263  34.767  24.524  1.00  0.00     0.207 C
BRANCH  16  17
HETATM   17  C9  UNL     1      64.142  33.881  25.738  1.00  0.00    -0.035 A
HETATM   18  C10 UNL     1      62.962  33.607  26.353  1.00  0.00     0.009 A
HETATM   19  C11 UNL     1      62.970  32.778  27.465  1.00  0.00     0.001 A
HETATM   20  C12 UNL     1      64.129  32.224  27.967  1.00  0.00     0.000 A
HETATM   21  C13 UNL     1      65.314  32.521  27.320  1.00  0.00     0.001 A
HETATM   22  C14 UNL     1      65.322  33.346  26.212  1.00  0.00     0.009 A
ENDBRANCH  16  17
ENDBRANCH  15  16
ENDBRANCH   7  15
ENDBRANCH   1   7
BRANCH   6  23
HETATM   23  O7  UNL     1      64.867  39.786  25.364  1.00  0.00    -0.390 OA
ATOM     24  H7  UNL     1      64.956  40.264  26.180  1.00  0.00     0.210 HD
ENDBRANCH   6  23
BRANCH   5  25
HETATM   25  O6  UNL     1      65.671  38.989  27.797  1.00  0.00    -0.390 OA
ATOM     26  H6  UNL     1      65.823  38.501  28.598  1.00  0.00     0.210 HD
ENDBRANCH   5  25
BRANCH   4  27
HETATM   27  C17 UNL     1      67.642  40.365  27.105  1.00  0.00     0.120 C
BRANCH  27  28
HETATM   28  S1  UNL     1      69.078  40.245  28.208  1.00  0.00    -0.082 SA
BRANCH  28  29
HETATM   29  C18 UNL     1      68.751  39.006  29.452  1.00  0.00     0.199 C
HETATM   30  N1  UNL     1      69.208  37.814  29.314  1.00  0.00    -0.242 N
ATOM     31  H1  UNL     1      69.757  37.602  28.480  1.00  0.00     0.197 HD
BRANCH  29  32
HETATM   32  O4  UNL     1      68.005  39.298  30.584  1.00  0.00    -0.340 OA
ATOM     33  H4  UNL     1      68.223  38.925  31.430  1.00  0.00     0.220 HD
ENDBRANCH  29  32
BRANCH  30  34
HETATM   34  O5  UNL     1      69.003  36.816  30.217  1.00  0.00    -0.287 OA
ATOM     35  H5  UNL     1      68.415  36.083  30.069  1.00  0.00     0.244 HD
ENDBRANCH  30  34
ENDBRANCH  28  29
ENDBRANCH  27  28
ENDBRANCH   4  27
TORSDOF 13
ENDMDL