MODEL 2
REMARK VINA RESULT: -6.632434901      3.986      8.309
REMARK  11 active torsions:
REMARK  status: ('A' for Active; 'I' for Inactive)
REMARK    1  A    between atoms: C2_2  and  C3_3
REMARK    2  A    between atoms: C3_3  and  C4_4
REMARK    3  A    between atoms: C4_4  and  C5_5
REMARK    4  A    between atoms: C5_5  and  N1_6
REMARK    5  A    between atoms: C10_18  and  S1_19
REMARK    6  A    between atoms: S1_19  and  C11_20
REMARK    7  A    between atoms: N5_23  and  C14_24
REMARK    8  A    between atoms: C16_27  and  C17_28
REMARK    9  A    between atoms: C17_28  and  O1_29
REMARK   10  A    between atoms: C18_31  and  O2_32
REMARK   11  A    between atoms: C19_34  and  O3_35
ROOT
HETATM    1  N1  UNL     1      68.991  40.928  25.058  1.00  0.00    -0.374 N
ATOM      2  H1  UNL     1      69.235  40.881  24.069  1.00  0.00     0.161 HD
HETATM    3  C6  UNL     1      68.199  40.056  25.598  1.00  0.00     0.133 A
HETATM    4  N2  UNL     1      67.879  40.123  26.917  1.00  0.00    -0.337 N
ATOM      5  H2  UNL     1      68.279  40.873  27.480  1.00  0.00     0.168 HD
HETATM    6  C7  UNL     1      67.059  39.243  27.506  1.00  0.00     0.183 A
HETATM    7  N3  UNL     1      66.534  38.258  26.773  1.00  0.00    -0.336 N
ATOM      8  H3  UNL     1      65.912  37.589  27.226  1.00  0.00     0.168 HD
HETATM    9  C8  UNL     1      66.795  38.113  25.460  1.00  0.00     0.142 A
HETATM   10  C9  UNL     1      67.640  39.027  24.873  1.00  0.00     0.123 A
HETATM   11  N4  UNL     1      67.744  38.681  23.590  1.00  0.00    -0.330 N
ATOM     12  H4  UNL     1      68.301  39.163  22.885  1.00  0.00     0.168 HD
HETATM   13  C10 UNL     1      66.988  37.587  23.385  1.00  0.00     0.150 A
HETATM   14  N5  UNL     1      66.383  37.207  24.530  1.00  0.00    -0.295 N
ENDROOT
BRANCH  14  15
HETATM   15  C14 UNL     1      65.498  36.122  24.793  1.00  0.00     0.186 C
HETATM   16  S2  UNL     1      64.432  35.718  23.387  1.00  0.00    -0.140 SA
HETATM   17  C15 UNL     1      63.805  34.045  23.712  1.00  0.00     0.085 C
HETATM   18  C16 UNL     1      64.015  33.595  25.122  1.00  0.00     0.050 C
HETATM   19  C18 UNL     1      65.359  33.780  25.698  1.00  0.00     0.156 C
HETATM   20  C19 UNL     1      66.206  34.875  25.201  1.00  0.00     0.180 C
BRANCH  18  21
HETATM   21  C17 UNL     1      62.902  34.124  26.039  1.00  0.00     0.172 C
BRANCH  21  22
HETATM   22  O1  UNL     1      62.308  33.031  26.678  1.00  0.00    -0.400 OA
ATOM     23  H1  UNL     1      62.364  33.170  27.616  1.00  0.00     0.209 HD
ENDBRANCH  21  22
ENDBRANCH  18  21
BRANCH  19  24
HETATM   24  O2  UNL     1      66.115  32.587  25.609  1.00  0.00    -0.392 OA
ATOM     25  H2  UNL     1      66.793  32.565  26.274  1.00  0.00     0.210 HD
ENDBRANCH  19  24
BRANCH  20  26
HETATM   26  O3  UNL     1      67.046  34.411  24.166  1.00  0.00    -0.390 OA
ATOM     27  H3  UNL     1      66.678  34.614  23.314  1.00  0.00     0.210 HD
ENDBRANCH  20  26
ENDBRANCH  14  15
BRANCH  13  28
HETATM   28  S1  UNL     1      66.802  36.734  21.804  1.00  0.00    -0.089 SA
BRANCH  28  29
HETATM   29  C11 UNL     1      66.484  37.916  20.496  1.00  0.00     0.047 C
HETATM   30  C12 UNL     1      65.330  37.531  19.610  1.00  0.00     0.021 C
HETATM   31  C13 UNL     1      67.711  38.069  19.625  1.00  0.00     0.021 C
ENDBRANCH  28  29
ENDBRANCH  13  28
BRANCH   1  32
HETATM   32  C5  UNL     1      69.515  41.969  25.913  1.00  0.00     0.121 C
BRANCH  32  33
HETATM   33  C4  UNL     1      70.759  42.600  25.326  1.00  0.00     0.020 C
BRANCH  33  34
HETATM   34  C3  UNL     1      71.424  41.713  24.320  1.00  0.00     0.001 C
BRANCH  34  35
HETATM   35  C2  UNL     1      72.130  42.513  23.236  1.00  0.00    -0.004 C
HETATM   36  C1  UNL     1      72.177  41.726  21.957  1.00  0.00     0.005 C
ENDBRANCH  34  35
ENDBRANCH  33  34
ENDBRANCH  32  33
ENDBRANCH   1  32
TORSDOF 11
ENDMDL