MODEL 1
REMARK VINA RESULT: -6.802483690      0.000      0.000
REMARK  2 active torsions:
REMARK  status: ('A' for Active; 'I' for Inactive)
REMARK    1  A    between atoms: C2_2  and  N2_6
REMARK    2  A    between atoms: N2_6  and  C5_8
ROOT
HETATM    1  C1  UNL     1      -2.565  -8.503 -17.540  1.00  0.00     0.054 C
HETATM    2  C2  UNL     1      -1.972  -8.711 -16.134  1.00  0.00     0.110 C
HETATM    3  C3  UNL     1      -2.112  -7.400 -15.441  1.00  0.00     0.054 C
HETATM    4  C4  UNL     1      -2.903  -9.656 -15.447  1.00  0.00     0.089 C
HETATM    5  N1  UNL     1      -3.611 -10.403 -14.916  1.00  0.00    -0.195 NA
ENDROOT
BRANCH   2   6
HETATM    6  N2  UNL     1      -0.694  -9.244 -16.298  1.00  0.00    -0.381 N
ATOM      7  H2  UNL     1      -0.594 -10.258 -16.359  1.00  0.00     0.156 HD
BRANCH   6   8
HETATM    8  C5  UNL     1       0.454  -8.456 -16.381  1.00  0.00     0.117 C
HETATM    9  C6  UNL     1       0.996  -8.217 -15.018  1.00  0.00     0.090 C
HETATM   10  N3  UNL     1       1.403  -8.016 -13.951  1.00  0.00    -0.195 NA
HETATM   11  C7  UNL     1       0.440  -7.244 -17.237  1.00  0.00     0.046 C
HETATM   12  C8  UNL     1       1.312  -7.326 -18.472  1.00  0.00     0.004 C
HETATM   13  C9  UNL     1       2.737  -7.658 -18.216  1.00  0.00     0.000 C
HETATM   14  C10 UNL     1       2.805  -8.542 -16.981  1.00  0.00     0.004 C
HETATM   15  C11 UNL     1       1.538  -9.372 -17.011  1.00  0.00     0.046 C
ENDBRANCH   6   8
ENDBRANCH   2   6
TORSDOF 2
ENDMDL