MODEL 4
REMARK VINA RESULT: -6.255047274      2.607      5.552
REMARK  3 active torsions:
REMARK  status: ('A' for Active; 'I' for Inactive)
REMARK    1  A    between atoms: O1_1  and  C1_3
REMARK    2  A    between atoms: N1_8  and  C6_9
REMARK    3  A    between atoms: C6_9  and  C7_10
ROOT
HETATM    1  C1  UNL     1       2.387  -8.637 -17.393  1.00  0.00     0.146 C
HETATM    2  C2  UNL     1       2.044  -7.264 -17.864  1.00  0.00     0.033 C
HETATM    3  C3  UNL     1       1.157  -7.390 -19.081  1.00  0.00     0.004 C
HETATM    4  C4  UNL     1       0.146  -8.482 -18.774  1.00  0.00     0.030 C
HETATM    5  C5  UNL     1      -0.387  -8.248 -17.417  1.00  0.00     0.273 C
HETATM    6  N1  UNL     1       0.171  -8.983 -16.356  1.00  0.00     0.096 N
HETATM    7  C11 UNL     1       1.552  -9.138 -16.271  1.00  0.00     0.304 C
ENDROOT
BRANCH   6   8
HETATM    8  C6  UNL     1      -0.452  -8.477 -15.122  1.00  0.00     0.324 C
BRANCH   8   9
HETATM    9  C7  UNL     1      -1.906  -8.682 -15.129  1.00  0.00     0.014 C
HETATM   10  N2  UNL     1      -2.755  -7.738 -14.999  1.00  0.00    -0.375 N
HETATM   11  C8  UNL     1      -4.076  -8.209 -15.040  1.00  0.00     0.061 C
ATOM     12  H2  UNL     1      -2.502  -6.757 -14.880  1.00  0.00     0.164 HD
HETATM   13  C9  UNL     1      -4.006  -9.570 -15.693  1.00  0.00     0.050 C
HETATM   14  C10 UNL     1      -2.588  -9.992 -15.285  1.00  0.00     0.059 C
ENDBRANCH   8   9
ENDBRANCH   6   8
BRANCH   1  15
HETATM   15  O1  UNL     1       3.720  -8.602 -16.917  1.00  0.00    -0.394 OA
ATOM     16  H1  UNL     1       3.778  -9.206 -16.185  1.00  0.00     0.210 HD
ENDBRANCH   1  15
TORSDOF 3
ENDMDL