MODEL 2
REMARK VINA RESULT: -6.857638090      2.165      2.803
REMARK  3 active torsions:
REMARK  status: ('A' for Active; 'I' for Inactive)
REMARK    1  A    between atoms: O1_1  and  C1_3
REMARK    2  A    between atoms: C1_3  and  C2_4
REMARK    3  A    between atoms: C1_3  and  C8_10
ROOT
HETATM    1  C1  UNL     1      -0.024  -8.823 -15.365  1.00  0.00     0.154 C
ENDROOT
BRANCH   1   2
HETATM    2  O1  UNL     1       0.730  -9.972 -15.128  1.00  0.00    -0.393 OA
ATOM      3  H1  UNL     1       0.534 -10.603 -15.810  1.00  0.00     0.210 HD
ENDBRANCH   1   2
BRANCH   1   4
HETATM    4  C2  UNL     1       0.705  -7.980 -16.353  1.00  0.00     0.017 C
HETATM    5  C3  UNL     1       0.065  -7.868 -17.679  1.00  0.00     0.007 C
HETATM    6  C4  UNL     1       0.985  -7.688 -18.849  1.00  0.00     0.000 C
HETATM    7  C5  UNL     1       2.368  -7.231 -18.435  1.00  0.00     0.000 C
HETATM    8  C6  UNL     1       2.895  -8.350 -17.601  1.00  0.00     0.000 C
HETATM    9  C7  UNL     1       2.139  -8.451 -16.341  1.00  0.00     0.007 C
ENDBRANCH   1   4
BRANCH   1  10
HETATM   10  C8  UNL     1      -1.407  -9.171 -15.579  1.00  0.00     0.191 C
HETATM   11  C9  UNL     1      -2.450  -8.720 -14.628  1.00  0.00     0.067 C
HETATM   12  C10 UNL     1      -3.615  -9.481 -15.303  1.00  0.00     0.212 C
HETATM   13  O2  UNL     1      -2.994 -10.668 -15.584  1.00  0.00    -0.240 OA
HETATM   14  O3  UNL     1      -1.724 -10.512 -15.700  1.00  0.00    -0.233 OA
ENDBRANCH   1  10
TORSDOF 3
ENDMDL