MODEL 2
REMARK VINA RESULT: -6.408030413      2.036      4.958
REMARK  3 active torsions:
REMARK  status: ('A' for Active; 'I' for Inactive)
REMARK    1  A    between atoms: O1_1  and  C1_3
REMARK    2  A    between atoms: C5_8  and  C6_9
REMARK    3  A    between atoms: C6_9  and  C7_10
ROOT
HETATM    1  C1  UNL     1       0.033  -8.694 -17.587  1.00  0.00     0.147 C
HETATM    2  C2  UNL     1       0.691  -7.882 -18.676  1.00  0.00     0.036 C
HETATM    3  C3  UNL     1       2.100  -7.534 -18.297  1.00  0.00     0.029 C
HETATM    4  C4  UNL     1       2.674  -8.426 -17.239  1.00  0.00     0.168 C
HETATM    5  O2  UNL     1       1.923  -8.523 -16.096  1.00  0.00    -0.383 OA
HETATM    6  C5  UNL     1       0.586  -8.322 -16.233  1.00  0.00     0.155 C
ENDROOT
BRANCH   6   7
HETATM    7  C6  UNL     1      -0.243  -9.057 -15.201  1.00  0.00     0.086 C
BRANCH   7   8
HETATM    8  C7  UNL     1      -1.713  -8.945 -15.498  1.00  0.00    -0.016 C
HETATM    9  N1  UNL     1      -2.499  -9.822 -15.930  1.00  0.00    -0.396 N
HETATM   10  C8  UNL     1      -3.844  -9.330 -16.087  1.00  0.00     0.119 C
ATOM     11  H1  UNL     1      -2.216 -10.778 -16.147  1.00  0.00     0.159 HD
HETATM   12  C9  UNL     1      -3.847  -8.190 -15.054  1.00  0.00     0.025 C
HETATM   13  C10 UNL     1      -2.447  -7.671 -15.298  1.00  0.00     0.054 C
ENDBRANCH   7   8
ENDBRANCH   6   7
BRANCH   1  14
HETATM   14  O1  UNL     1       0.226 -10.055 -17.756  1.00  0.00    -0.393 OA
ATOM     15  H1  UNL     1       1.139 -10.305 -17.667  1.00  0.00     0.210 HD
ENDBRANCH   1  14
TORSDOF 3
ENDMDL