MODEL 2
REMARK VINA RESULT: -5.782838515      1.914      2.286
REMARK  2 active torsions:
REMARK  status: ('A' for Active; 'I' for Inactive)
REMARK    1  A    between atoms: N1_4  and  C4_5
REMARK    2  A    between atoms: C4_5  and  C5_6
ROOT
HETATM    1  C1  UNL     1       2.956  -7.806 -18.197  1.00  0.00     0.003 C
HETATM    2  C2  UNL     1       1.819  -6.857 -18.580  1.00  0.00     0.030 C
HETATM    3  C3  UNL     1       0.600  -7.643 -18.829  1.00  0.00     0.272 C
HETATM    4  N1  UNL     1       0.336  -8.816 -18.115  1.00  0.00     0.089 N
HETATM    5  C8  UNL     1       1.243  -9.222 -17.091  1.00  0.00     0.272 C
HETATM    6  C9  UNL     1       2.469  -8.419 -16.897  1.00  0.00     0.030 C
ENDROOT
BRANCH   4   7
HETATM    7  C4  UNL     1      -1.025  -8.744 -17.599  1.00  0.00     0.289 C
BRANCH   7   8
HETATM    8  C5  UNL     1      -2.058  -9.246 -18.551  1.00  0.00     0.101 C
HETATM    9  C6  UNL     1      -1.713 -10.691 -18.898  1.00  0.00     0.185 C
HETATM   10  O1  UNL     1      -1.916 -11.440 -17.744  1.00  0.00    -0.380 OA
HETATM   11  C7  UNL     1      -3.316 -11.436 -17.531  1.00  0.00     0.242 C
HETATM   12  S1  UNL     1      -3.619  -9.619 -17.620  1.00  0.00    -0.134 SA
ENDBRANCH   7   8
ENDBRANCH   4   7
TORSDOF 2
ENDMDL