MODEL 4
REMARK VINA RESULT: -5.966886124      2.666      3.833
REMARK  3 active torsions:
REMARK  status: ('A' for Active; 'I' for Inactive)
REMARK    1  A    between atoms: C2_2  and  C4_4
REMARK    2  A    between atoms: C7_9  and  C8_10
REMARK    3  A    between atoms: C8_10  and  O3_11
ROOT
HETATM    1  C4  UNL     1      -2.272  -9.496 -16.148  1.00  0.00     0.105 C
HETATM    2  C5  UNL     1      -3.758  -9.784 -15.898  1.00  0.00     0.077 C
HETATM    3  C6  UNL     1      -3.649 -11.176 -16.559  1.00  0.00     0.170 C
HETATM    4  O1  UNL     1      -2.530 -11.650 -15.885  1.00  0.00    -0.234 OA
HETATM    5  O2  UNL     1      -1.738 -10.661 -15.615  1.00  0.00    -0.228 OA
HETATM    6  C7  UNL     1      -3.188 -10.765 -17.936  1.00  0.00     0.048 C
HETATM    7  C9  UNL     1      -2.226  -9.606 -17.628  1.00  0.00     0.028 C
HETATM    8  C10 UNL     1      -2.730  -8.413 -18.369  1.00  0.00     0.014 C
ENDROOT
BRANCH   1   9
HETATM    9  C2  UNL     1      -1.781  -8.250 -15.561  1.00  0.00     0.016 C
HETATM   10  C1  UNL     1      -0.574  -8.620 -14.681  1.00  0.00     0.012 C
HETATM   11  C3  UNL     1      -2.736  -7.517 -14.681  1.00  0.00     0.012 C
ENDBRANCH   1   9
BRANCH   6  12
HETATM   12  C8  UNL     1      -2.379 -11.837 -18.601  1.00  0.00     0.172 C
BRANCH  12  13
HETATM   13  O3  UNL     1      -1.014 -11.601 -18.540  1.00  0.00    -0.400 OA
ATOM     14  H3  UNL     1      -0.501 -12.287 -18.950  1.00  0.00     0.209 HD
ENDBRANCH  12  13
ENDBRANCH   6  12
TORSDOF 3
ENDMDL