MODEL 1
REMARK VINA RESULT: -5.716273720      0.000      0.000
REMARK  5 active torsions:
REMARK  status: ('A' for Active; 'I' for Inactive)
REMARK    1  A    between atoms: C2_2  and  O1_4
REMARK    2  A    between atoms: O1_4  and  C4_5
REMARK    3  A    between atoms: C4_5  and  N1_7
REMARK    4  A    between atoms: N1_7  and  N2_9
REMARK    5  A    between atoms: C5_11  and  C7_13
ROOT
HETATM    1  N1  UNL     1      -0.849  -9.998 -17.862  1.00  0.00    -0.270 N
ATOM      2  H1  UNL     1      -0.347 -10.859 -18.081  1.00  0.00     0.190 HD
ENDROOT
BRANCH   1   3
HETATM    3  C4  UNL     1      -2.120 -10.103 -17.250  1.00  0.00     0.234 C
HETATM    4  S1  UNL     1      -3.388 -10.471 -18.205  1.00  0.00    -0.031 SA
BRANCH   3   5
HETATM    5  O1  UNL     1      -2.345  -9.914 -15.907  1.00  0.00    -0.289 OA
BRANCH   5   6
HETATM    6  C2  UNL     1      -2.076  -8.683 -15.302  1.00  0.00     0.043 C
HETATM    7  C1  UNL     1      -1.244  -8.611 -14.280  1.00  0.00     0.046 C
HETATM    8  C3  UNL     1      -2.750  -7.483 -15.842  1.00  0.00     0.076 C
ENDBRANCH   5   6
ENDBRANCH   3   5
ENDBRANCH   1   3
BRANCH   1   9
HETATM    9  N2  UNL     1      -0.246  -8.788 -18.181  1.00  0.00    -0.306 N
HETATM   10  C5  UNL     1       0.852  -8.480 -17.614  1.00  0.00     0.004 C
HETATM   11  C6  UNL     1       1.426  -9.436 -16.644  1.00  0.00     0.065 C
ATOM     12  H2  UNL     1      -0.677  -8.156 -18.857  1.00  0.00     0.186 HD
BRANCH  10  13
HETATM   13  C7  UNL     1       1.496  -7.186 -17.954  1.00  0.00     0.032 A
HETATM   14  C8  UNL     1       1.677  -6.788 -19.370  1.00  0.00     0.011 A
HETATM   15  C9  UNL     1       2.880  -7.251 -18.637  1.00  0.00     0.011 A
ENDBRANCH  10  13
ENDBRANCH   1   9
TORSDOF 5
ENDMDL