MODEL 1
REMARK VINA RESULT: -6.964501207      0.000      0.000
REMARK  2 active torsions:
REMARK  status: ('A' for Active; 'I' for Inactive)
REMARK    1  A    between atoms: C5_7  and  N1_8
REMARK    2  A    between atoms: N1_8  and  C6_10
ROOT
HETATM    1  C1  UNL     1      -2.369  -7.504 -15.759  1.00  0.00     0.021 C
HETATM    2  C2  UNL     1      -2.796  -8.414 -16.873  1.00  0.00     0.086 C
HETATM    3  C3  UNL     1      -3.632  -9.484 -16.250  1.00  0.00     0.191 C
HETATM    4  O1  UNL     1      -4.190  -9.535 -15.168  1.00  0.00    -0.285 OA
HETATM    5  S1  UNL     1      -3.662 -10.763 -17.480  1.00  0.00    -0.090 SA
HETATM    6  C4  UNL     1      -2.113 -10.245 -18.341  1.00  0.00     0.107 C
HETATM    7  C5  UNL     1      -1.572  -9.153 -17.467  1.00  0.00     0.098 C
ENDROOT
BRANCH   7   8
HETATM    8  N1  UNL     1      -0.753  -8.215 -18.117  1.00  0.00    -0.411 N
ATOM      9  H1  UNL     1      -1.166  -7.349 -18.463  1.00  0.00     0.154 HD
BRANCH   8  10
HETATM   10  C6  UNL     1       0.623  -8.439 -18.303  1.00  0.00     0.077 C
HETATM   11  C7  UNL     1       1.478  -8.351 -17.065  1.00  0.00     0.024 C
HETATM   12  C8  UNL     1       2.851  -8.121 -17.721  1.00  0.00     0.002 C
HETATM   13  C9  UNL     1       2.539  -7.000 -18.649  1.00  0.00     0.002 C
HETATM   14  C10 UNL     1       1.179  -7.327 -19.180  1.00  0.00     0.024 C
ENDBRANCH   8  10
ENDBRANCH   7   8
TORSDOF 2
ENDMDL