MODEL 2
REMARK VINA RESULT: -6.582833097      1.035      1.313
REMARK  4 active torsions:
REMARK  status: ('A' for Active; 'I' for Inactive)
REMARK    1  A    between atoms: O1_1  and  C1_3
REMARK    2  A    between atoms: C1_3  and  C2_4
REMARK    3  A    between atoms: C1_3  and  C8_12
REMARK    4  A    between atoms: C2_4  and  C3_5
ROOT
HETATM    1  C3  UNL     1      -0.102  -8.925 -16.021  1.00  0.00     0.101 C
HETATM    2  C4  UNL     1      -0.834  -9.567 -14.888  1.00  0.00     0.044 C
HETATM    3  C5  UNL     1      -1.913  -8.552 -14.463  1.00  0.00     0.038 C
HETATM    4  C6  UNL     1      -1.808  -7.563 -15.618  1.00  0.00     0.163 C
HETATM    5  C7  UNL     1      -0.272  -7.432 -15.647  1.00  0.00     0.076 C
HETATM    6  O2  UNL     1      -2.020  -8.220 -16.802  1.00  0.00    -0.235 OA
HETATM    7  O3  UNL     1      -0.990  -8.935 -17.103  1.00  0.00    -0.229 OA
ENDROOT
BRANCH   1   8
HETATM    8  C2  UNL     1       1.259  -9.292 -16.309  1.00  0.00     0.073 C
BRANCH   8   9
HETATM    9  C1  UNL     1       2.234  -8.319 -16.834  1.00  0.00     0.125 C
BRANCH   9  10
HETATM   10  O1  UNL     1       3.524  -8.898 -16.594  1.00  0.00    -0.395 OA
ATOM     11  H1  UNL     1       3.363  -9.820 -16.430  1.00  0.00     0.210 HD
ENDBRANCH   9  10
BRANCH   9  12
HETATM   12  C8  UNL     1       2.217  -8.049 -18.303  1.00  0.00     0.014 A
HETATM   13  C9  UNL     1       1.680  -6.651 -18.631  1.00  0.00     0.007 A
HETATM   14  C10 UNL     1       3.114  -6.968 -18.891  1.00  0.00     0.007 A
ENDBRANCH   9  12
ENDBRANCH   8   9
ENDBRANCH   1   8
TORSDOF 4
ENDMDL