MODEL 5
REMARK VINA RESULT: -6.163898938      1.416      2.096
REMARK  2 active torsions:
REMARK  status: ('A' for Active; 'I' for Inactive)
REMARK       I    between atoms: C1_2  and  N1_3
REMARK    1  A    between atoms: C1_2  and  C7_10
REMARK    2  A    between atoms: N1_3  and  C2_5
ROOT
HETATM    1  O1  UNL     1      -0.879  -8.058 -14.995  1.00  0.00    -0.272 OA
HETATM    2  C1  UNL     1      -1.134  -8.804 -15.976  1.00  0.00     0.236 C
HETATM    3  N1  UNL     1      -0.374  -8.765 -17.173  1.00  0.00    -0.355 N
ATOM      4  H1  UNL     1      -0.633  -9.395 -17.933  1.00  0.00     0.162 HD
ENDROOT
BRANCH   3   5
HETATM    5  C2  UNL     1       0.733  -7.888 -17.368  1.00  0.00     0.084 C
HETATM    6  C3  UNL     1       2.053  -8.435 -16.946  1.00  0.00     0.025 C
HETATM    7  C4  UNL     1       3.082  -7.978 -17.958  1.00  0.00     0.002 C
HETATM    8  C5  UNL     1       2.346  -6.895 -18.715  1.00  0.00     0.002 C
HETATM    9  C6  UNL     1       0.970  -7.567 -18.837  1.00  0.00     0.025 C
ENDBRANCH   3   5
BRANCH   2  10
HETATM   10  C7  UNL     1      -2.285  -9.727 -15.794  1.00  0.00     0.192 C
HETATM   11  C8  UNL     1      -2.574 -10.430 -17.102  1.00  0.00     0.212 C
HETATM   12  O2  UNL     1      -3.565  -9.508 -17.348  1.00  0.00    -0.318 OA
HETATM   13  S1  UNL     1      -3.899  -8.916 -15.779  1.00  0.00     0.004 SA
ENDBRANCH   2  10
TORSDOF 2
ENDMDL