MODEL 5
REMARK VINA RESULT: -3.765186706      2.630      4.604
REMARK  7 active torsions:
REMARK  status: ('A' for Active; 'I' for Inactive)
REMARK    1  A    between atoms: N1_2  and  C2_4
REMARK       I    between atoms: N2_6  and  C4_8
REMARK       I    between atoms: C4_8  and  N6_25
REMARK       I    between atoms: N3_9  and  C5_11
REMARK    2  A    between atoms: C5_11  and  C6_13
REMARK    3  A    between atoms: C6_13  and  N4_14
REMARK    4  A    between atoms: C6_13  and  C7_18
REMARK    5  A    between atoms: C7_18  and  N5_19
REMARK    6  A    between atoms: C7_18  and  C8_23
REMARK    7  A    between atoms: N6_25  and  N7_27
ROOT
HETATM    1  C2  UNL     1     -47.422 -24.273 -20.716  1.00  0.00     0.089 C
HETATM    2  C3  UNL     1     -47.934 -25.642 -20.981  1.00  0.00     0.089 C
HETATM    3  N2  UNL     1     -47.357 -23.832 -19.513  1.00  0.00    -0.180 N
ATOM      4  H2  UNL     1     -47.664 -24.446 -18.758  1.00  0.00     0.185 HD
HETATM    5  C4  UNL     1     -46.887 -22.554 -19.176  1.00  0.00     0.702 C
HETATM    6  N3  UNL     1     -46.171 -22.353 -18.123  1.00  0.00    -0.156 N
ATOM      7  H3  UNL     1     -45.934 -23.137 -17.515  1.00  0.00     0.187 HD
HETATM    8  C5  UNL     1     -45.706 -21.046 -17.800  1.00  0.00     0.269 C
HETATM    9  O1  UNL     1     -46.562 -20.131 -17.763  1.00  0.00    -0.270 OA
HETATM   10  N6  UNL     1     -47.220 -21.456 -20.032  1.00  0.00    -0.118 N
ATOM     11  H6  UNL     1     -46.545 -21.067 -20.690  1.00  0.00     0.207 HD
ENDROOT
BRANCH   8  12
HETATM   12  C6  UNL     1     -44.313 -20.717 -17.516  1.00  0.00     0.312 C
BRANCH  12  13
HETATM   13  N4  UNL     1     -43.883 -21.392 -16.323  1.00  0.00    -0.064 N
ATOM     14  H43 UNL     1     -44.641 -21.496 -15.648  1.00  0.00     0.275 HD
ATOM     15  H42 UNL     1     -43.696 -22.382 -16.490  1.00  0.00     0.275 HD
ATOM     16  H41 UNL     1     -43.077 -20.914 -15.923  1.00  0.00     0.275 HD
ENDBRANCH  12  13
BRANCH  12  17
HETATM   17  C7  UNL     1     -43.374 -21.011 -18.657  1.00  0.00     0.283 C
BRANCH  17  18
HETATM   18  N5  UNL     1     -44.018 -20.625 -19.899  1.00  0.00    -0.066 N
ATOM     19  H53 UNL     1     -44.819 -20.012 -19.750  1.00  0.00     0.275 HD
ATOM     20  H52 UNL     1     -43.449 -19.982 -20.451  1.00  0.00     0.275 HD
ATOM     21  H51 UNL     1     -44.264 -21.470 -20.415  1.00  0.00     0.275 HD
ENDBRANCH  17  18
BRANCH  17  22
HETATM   22  C8  UNL     1     -42.173 -20.158 -18.494  1.00  0.00     0.266 C
HETATM   23  O2  UNL     1     -41.977 -19.621 -17.424  1.00  0.00    -0.305 OA
ENDBRANCH  17  22
ENDBRANCH  12  17
ENDBRANCH   8  12
BRANCH  10  24
HETATM   24  N7  UNL     1     -48.515 -20.943 -19.922  1.00  0.00    -0.235 N
HETATM   25  N8  UNL     1     -48.739 -19.746 -20.275  1.00  0.00    -0.330 N
ATOM     26  H82 UNL     1     -47.972 -19.178 -20.633  1.00  0.00     0.178 HD
ATOM     27  H81 UNL     1     -49.684 -19.372 -20.195  1.00  0.00     0.178 HD
ATOM     28  H7  UNL     1     -49.272 -21.525 -19.562  1.00  0.00     0.208 HD
ENDBRANCH  10  24
BRANCH   1  29
HETATM   29  N1  UNL     1     -47.021 -23.502 -21.852  1.00  0.00    -0.384 N
HETATM   30  C1  UNL     1     -45.686 -23.606 -22.428  1.00  0.00     0.147 C
ATOM     31  H1  UNL     1     -47.691 -22.859 -22.273  1.00  0.00     0.160 HD
ENDBRANCH   1  29
TORSDOF 7
ENDMDL