MODEL 5
REMARK VINA RESULT: -5.152576261      1.148      1.575
REMARK  6 active torsions:
REMARK  status: ('A' for Active; 'I' for Inactive)
REMARK    1  A    between atoms: N3_4  and  S1_6
REMARK    2  A    between atoms: S1_6  and  C2_9
REMARK    3  A    between atoms: C5_12  and  C6_13
REMARK    4  A    between atoms: C6_13  and  N4_14
REMARK    5  A    between atoms: C6_13  and  O3_18
REMARK    6  A    between atoms: N5_20  and  O4_21
ROOT
HETATM    1  C2  UNL     1     -46.375 -21.965 -19.020  1.00  0.00     0.097 A
HETATM    2  C3  UNL     1     -47.025 -23.173 -18.841  1.00  0.00     0.029 A
HETATM    3  C4  UNL     1     -47.782 -23.392 -17.708  1.00  0.00     0.034 A
HETATM    4  C5  UNL     1     -47.920 -22.433 -16.727  1.00  0.00     0.095 A
HETATM    5  N5  UNL     1     -47.280 -21.266 -16.920  1.00  0.00    -0.234 N
HETATM    6  C7  UNL     1     -46.528 -21.022 -18.024  1.00  0.00     0.148 A
ENDROOT
BRANCH   1   7
HETATM    7  S1  UNL     1     -45.400 -21.649 -20.454  1.00  0.00     0.266 S
HETATM    8  O1  UNL     1     -44.935 -22.952 -21.066  1.00  0.00    -0.200 OA
HETATM    9  O2  UNL     1     -46.225 -20.951 -21.511  1.00  0.00    -0.200 OA
BRANCH   7  10
HETATM   10  N3  UNL     1     -44.078 -20.619 -20.064  1.00  0.00    -0.256 N
HETATM   11  C1  UNL     1     -43.180 -20.913 -19.204  1.00  0.00     0.210 C
HETATM   12  N1  UNL     1     -43.242 -22.138 -18.515  1.00  0.00    -0.066 NA
HETATM   13  N2  UNL     1     -42.129 -20.010 -18.944  1.00  0.00    -0.066 NA
ATOM     14  H3  UNL     1     -44.007 -19.724 -20.546  1.00  0.00     0.181 HD
ENDBRANCH   7  10
ENDBRANCH   1   7
BRANCH   5  15
HETATM   15  O4  UNL     1     -47.416 -20.301 -15.937  1.00  0.00    -0.283 OA
ATOM     16  H4  UNL     1     -47.174 -20.547 -15.052  1.00  0.00     0.245 HD
ENDBRANCH   5  15
BRANCH   4  17
HETATM   17  C6  UNL     1     -48.748 -22.693 -15.504  1.00  0.00     0.369 C
BRANCH  17  18
HETATM   18  N4  UNL     1     -48.269 -23.867 -14.798  1.00  0.00    -0.047 N
ATOM     19  H43 UNL     1     -48.893 -24.663 -14.923  1.00  0.00     0.277 HD
ATOM     20  H42 UNL     1     -47.434 -24.257 -15.236  1.00  0.00     0.277 HD
ATOM     21  H41 UNL     1     -48.115 -23.658 -13.811  1.00  0.00     0.277 HD
ENDBRANCH  17  18
BRANCH  17  22
HETATM   22  O3  UNL     1     -48.679 -21.628 -14.619  1.00  0.00    -0.365 OA
ATOM     23  H3  UNL     1     -49.435 -21.611 -14.044  1.00  0.00     0.212 HD
ENDBRANCH  17  22
ENDBRANCH   4  17
TORSDOF 6
ENDMDL