MODEL 1
REMARK VINA RESULT: -4.269234871      0.000      0.000
REMARK  6 active torsions:
REMARK  status: ('A' for Active; 'I' for Inactive)
REMARK    1  A    between atoms: N2_4  and  N3_6
REMARK       I    between atoms: N3_6  and  C1_8
REMARK       I    between atoms: C1_8  and  N5_12
REMARK    2  A    between atoms: S1_15  and  C4_16
REMARK    3  A    between atoms: C4_16  and  C5_17
REMARK    4  A    between atoms: C5_17  and  N6_18
REMARK    5  A    between atoms: C5_17  and  C6_22
REMARK    6  A    between atoms: N8_24  and  O1_26
ROOT
HETATM    1  N3  UNL     1     -54.198 -16.040 -18.622  1.00  0.00    -0.118 N
ATOM      2  H3  UNL     1     -53.577 -15.610 -17.937  1.00  0.00     0.207 HD
HETATM    3  C1  UNL     1     -54.070 -15.639 -19.957  1.00  0.00     0.690 C
HETATM    4  N4  UNL     1     -55.062 -15.113 -20.575  1.00  0.00    -0.233 N
ATOM      5  H41 UNL     1     -54.970 -14.821 -21.548  1.00  0.00     0.174 HD
ATOM      6  H42 UNL     1     -55.941 -14.996 -20.072  1.00  0.00     0.174 HD
HETATM    7  N5  UNL     1     -52.851 -15.802 -20.657  1.00  0.00    -0.208 N
HETATM    8  C2  UNL     1     -52.060 -17.042 -20.617  1.00  0.00     0.151 C
HETATM    9  C3  UNL     1     -50.775 -16.491 -19.956  1.00  0.00     0.085 C
HETATM   10  S1  UNL     1     -50.451 -15.213 -21.124  1.00  0.00    -0.197 SA
HETATM   11  C7  UNL     1     -52.185 -14.822 -21.501  1.00  0.00     0.205 C
ENDROOT
BRANCH  10  12
HETATM   12  C4  UNL     1     -49.748 -15.887 -22.595  1.00  0.00     0.105 C
BRANCH  12  13
HETATM   13  C5  UNL     1     -48.604 -16.813 -22.387  1.00  0.00     0.258 C
BRANCH  13  14
HETATM   14  N6  UNL     1     -48.976 -18.164 -22.210  1.00  0.00    -0.068 N
ATOM     15  H63 UNL     1     -49.922 -18.227 -21.834  1.00  0.00     0.275 HD
ATOM     16  H62 UNL     1     -49.118 -18.616 -23.113  1.00  0.00     0.275 HD
ATOM     17  H61 UNL     1     -48.329 -18.706 -21.637  1.00  0.00     0.275 HD
ENDBRANCH  13  14
BRANCH  13  18
HETATM   18  C6  UNL     1     -47.601 -16.734 -23.472  1.00  0.00     0.144 C
HETATM   19  N7  UNL     1     -46.326 -17.408 -23.190  1.00  0.00    -0.083 NA
HETATM   20  N8  UNL     1     -47.756 -16.174 -24.561  1.00  0.00    -0.257 N
ATOM     21  H8  UNL     1     -46.932 -16.241 -25.157  1.00  0.00     0.195 HD
BRANCH  20  22
HETATM   22  O1  UNL     1     -48.743 -15.508 -25.133  1.00  0.00    -0.289 OA
ATOM     23  H1  UNL     1     -49.238 -14.726 -24.916  1.00  0.00     0.244 HD
ENDBRANCH  20  22
ENDBRANCH  13  18
ENDBRANCH  12  13
ENDBRANCH  10  12
BRANCH   1  24
HETATM   24  N2  UNL     1     -55.106 -16.980 -18.163  1.00  0.00    -0.235 N
HETATM   25  N1  UNL     1     -54.842 -18.209 -18.187  1.00  0.00    -0.330 N
ATOM     26  H12 UNL     1     -53.937 -18.503 -18.554  1.00  0.00     0.178 HD
ATOM     27  H11 UNL     1     -55.511 -18.901 -17.849  1.00  0.00     0.178 HD
ATOM     28  H2  UNL     1     -56.007 -16.669 -17.799  1.00  0.00     0.208 HD
ENDBRANCH   1  24
TORSDOF 6
ENDMDL