MODEL 2
REMARK VINA RESULT: -5.815142759      0.915      1.098
REMARK  6 active torsions:
REMARK  status: ('A' for Active; 'I' for Inactive)
REMARK    1  A    between atoms: C6_8  and  N2_9
REMARK    2  A    between atoms: N2_9  and  S1_11
REMARK    3  A    between atoms: S1_11  and  N3_12
REMARK    4  A    between atoms: C7_17  and  C8_18
REMARK    5  A    between atoms: C8_18  and  O3_19
REMARK    6  A    between atoms: C9_21  and  O4_22
ROOT
HETATM    1  C1  UNL     1     -42.365 -20.005 -17.793  1.00  0.00     0.012 C
HETATM    2  C2  UNL     1     -43.448 -20.539 -17.832  1.00  0.00    -0.108 C
HETATM    3  C3  UNL     1     -44.783 -21.177 -17.862  1.00  0.00     0.111 C
HETATM    4  C4  UNL     1     -45.488 -20.734 -16.604  1.00  0.00     0.138 C
HETATM    5  N1  UNL     1     -46.680 -21.497 -16.371  1.00  0.00    -0.399 N
ATOM      6  H1  UNL     1     -46.999 -21.470 -15.403  1.00  0.00     0.158 HD
HETATM    7  C5  UNL     1     -47.423 -22.206 -17.134  1.00  0.00     0.082 C
HETATM    8  C6  UNL     1     -47.197 -22.425 -18.594  1.00  0.00     0.141 C
HETATM    9  C7  UNL     1     -46.921 -21.093 -19.200  1.00  0.00     0.068 C
HETATM   10  C9  UNL     1     -45.484 -20.654 -19.061  1.00  0.00     0.143 C
ENDROOT
BRANCH  10  11
HETATM   11  O4  UNL     1     -44.792 -21.005 -20.232  1.00  0.00    -0.394 OA
ATOM     12  H4  UNL     1     -45.365 -21.463 -20.835  1.00  0.00     0.210 HD
ENDBRANCH  10  11
BRANCH   9  13
HETATM   13  C8  UNL     1     -47.343 -20.979 -20.644  1.00  0.00     0.173 C
BRANCH  13  14
HETATM   14  O3  UNL     1     -48.610 -20.433 -20.739  1.00  0.00    -0.400 OA
ATOM     15  H3  UNL     1     -49.254 -21.111 -20.907  1.00  0.00     0.209 HD
ENDBRANCH  13  14
ENDBRANCH   9  13
BRANCH   8  16
HETATM   16  N2  UNL     1     -48.259 -23.102 -19.232  1.00  0.00    -0.293 N
ATOM     17  H2  UNL     1     -49.218 -22.768 -19.136  1.00  0.00     0.174 HD
BRANCH  16  18
HETATM   18  S1  UNL     1     -47.920 -24.468 -20.152  1.00  0.00     0.313 S
HETATM   19  O1  UNL     1     -47.030 -24.166 -21.351  1.00  0.00    -0.183 OA
HETATM   20  O2  UNL     1     -47.326 -25.575 -19.325  1.00  0.00    -0.183 OA
BRANCH  18  21
HETATM   21  N3  UNL     1     -49.387 -25.087 -20.819  1.00  0.00    -0.312 N
ATOM     22  H32 UNL     1     -50.134 -24.511 -21.206  1.00  0.00     0.170 HD
ATOM     23  H31 UNL     1     -49.381 -26.106 -20.762  1.00  0.00     0.170 HD
ENDBRANCH  18  21
ENDBRANCH  16  18
ENDBRANCH   8  16
TORSDOF 6
ENDMDL