MODEL 3
REMARK VINA RESULT: -6.144324384      4.976      6.767
REMARK  4 active torsions:
REMARK  status: ('A' for Active; 'I' for Inactive)
REMARK       I    between atoms: N1_2  and  C2_4
REMARK    1  A    between atoms: C2_4  and  C3_6
REMARK    2  A    between atoms: C3_6  and  C7_20
REMARK    3  A    between atoms: N2_7  and  N3_9
REMARK       I    between atoms: N3_9  and  C4_11
REMARK    4  A    between atoms: C4_11  and  C5_13
REMARK       I    between atoms: C5_13  and  N4_15
ROOT
HETATM    1  C3  UNL     1     -49.583 -17.919 -21.289  1.00  0.00     0.181 C
HETATM    2  N2  UNL     1     -49.282 -19.017 -20.741  1.00  0.00    -0.288 N
ATOM      3  H2  UNL     1     -49.907 -19.242 -19.967  1.00  0.00     0.187 HD
ENDROOT
BRANCH   2   4
HETATM    4  N3  UNL     1     -48.346 -19.957 -20.925  1.00  0.00    -0.261 N
HETATM    5  C4  UNL     1     -47.970 -20.835 -19.881  1.00  0.00     0.328 C
HETATM    6  O2  UNL     1     -48.517 -20.751 -18.739  1.00  0.00    -0.261 OA
ATOM      7  H3  UNL     1     -47.894 -20.042 -21.836  1.00  0.00     0.190 HD
BRANCH   5   8
HETATM    8  C5  UNL     1     -46.964 -21.846 -20.076  1.00  0.00     0.317 C
HETATM    9  O3  UNL     1     -47.286 -23.068 -20.079  1.00  0.00    -0.262 OA
HETATM   10  N4  UNL     1     -45.589 -21.554 -20.271  1.00  0.00    -0.295 N
HETATM   11  C6  UNL     1     -44.861 -21.132 -19.295  1.00  0.00     0.203 C
ATOM     12  H4  UNL     1     -45.173 -21.679 -21.193  1.00  0.00     0.171 HD
HETATM   13  N5  UNL     1     -45.433 -20.961 -18.030  1.00  0.00    -0.066 NA
HETATM   14  N6  UNL     1     -43.478 -20.857 -19.562  1.00  0.00    -0.066 NA
ENDBRANCH   5   8
ENDBRANCH   2   4
BRANCH   1  15
HETATM   15  C2  UNL     1     -48.909 -17.303 -22.406  1.00  0.00     0.274 C
HETATM   16  N1  UNL     1     -49.427 -16.318 -23.245  1.00  0.00    -0.360 N
HETATM   17  C1  UNL     1     -48.668 -15.753 -24.352  1.00  0.00     0.149 C
ATOM     18  H1  UNL     1     -50.374 -15.979 -23.077  1.00  0.00     0.162 HD
HETATM   19  O1  UNL     1     -47.712 -17.680 -22.677  1.00  0.00    -0.266 OA
ENDBRANCH   1  15
BRANCH   1  20
HETATM   20  C7  UNL     1     -50.753 -17.252 -20.673  1.00  0.00     0.288 C
HETATM   21  N7  UNL     1     -50.745 -15.847 -20.594  1.00  0.00    -0.056 NA
HETATM   22  O4  UNL     1     -51.731 -17.884 -20.228  1.00  0.00    -0.269 OA
ENDBRANCH   1  20
TORSDOF 4
ENDMDL