MODEL 1
REMARK VINA RESULT: -3.708058435      0.000      0.000
REMARK  3 active torsions:
REMARK  status: ('A' for Active; 'I' for Inactive)
REMARK       I    between atoms: N1_2  and  C3_4
REMARK       I    between atoms: N3_6  and  C4_8
REMARK    1  A    between atoms: N5_10  and  C5_12
REMARK    2  A    between atoms: C5_12  and  C6_13
REMARK    3  A    between atoms: C5_12  and  C7_15
REMARK       I    between atoms: C7_15  and  N6_17
ROOT
HETATM    1  C1  UNL     1     -45.365 -22.643 -20.230  1.00  0.00     0.151 C
HETATM    2  N1  UNL     1     -46.205 -21.626 -19.650  1.00  0.00    -0.364 N
HETATM    3  C2  UNL     1     -46.195 -21.499 -18.208  1.00  0.00     0.151 C
HETATM    4  C3  UNL     1     -47.041 -20.740 -20.372  1.00  0.00     0.192 C
HETATM    5  N2  UNL     1     -46.545 -20.167 -21.587  1.00  0.00    -0.063 NA
HETATM    6  N3  UNL     1     -48.245 -20.441 -19.947  1.00  0.00    -0.305 N
ATOM      7  H3  UNL     1     -48.589 -20.852 -19.080  1.00  0.00     0.171 HD
HETATM    8  C4  UNL     1     -49.076 -19.550 -20.679  1.00  0.00     0.191 C
HETATM    9  N4  UNL     1     -50.003 -20.130 -21.592  1.00  0.00    -0.063 NA
HETATM   10  N5  UNL     1     -48.997 -18.267 -20.525  1.00  0.00    -0.345 N
ATOM     11  H5  UNL     1     -48.330 -17.860 -19.868  1.00  0.00     0.163 HD
ENDROOT
BRANCH  10  12
HETATM   12  C5  UNL     1     -49.878 -17.421 -21.307  1.00  0.00     0.238 C
BRANCH  12  13
HETATM   13  C6  UNL     1     -49.060 -16.588 -22.231  1.00  0.00     0.266 C
HETATM   14  O1  UNL     1     -48.321 -17.148 -23.019  1.00  0.00    -0.304 OA
ENDBRANCH  12  13
BRANCH  12  15
HETATM   15  C7  UNL     1     -50.729 -16.569 -20.445  1.00  0.00     0.253 C
HETATM   16  O2  UNL     1     -50.541 -15.341 -20.434  1.00  0.00    -0.270 OA
HETATM   17  N6  UNL     1     -51.734 -17.196 -19.659  1.00  0.00    -0.301 N
HETATM   18  C8  UNL     1     -52.984 -16.978 -19.811  1.00  0.00     0.203 C
ATOM     19  H6  UNL     1     -51.442 -17.855 -18.936  1.00  0.00     0.171 HD
HETATM   20  N7  UNL     1     -53.917 -17.641 -18.990  1.00  0.00    -0.066 NA
HETATM   21  N8  UNL     1     -53.447 -16.078 -20.795  1.00  0.00    -0.066 NA
ENDBRANCH  12  15
ENDBRANCH  10  12
TORSDOF 3
ENDMDL