MODEL 3
REMARK VINA RESULT: -5.483494085      0.900      1.001
REMARK  4 active torsions:
REMARK  status: ('A' for Active; 'I' for Inactive)
REMARK    1  A    between atoms: C1_4  and  N2_5
REMARK    2  A    between atoms: N2_5  and  N3_7
REMARK    3  A    between atoms: C2_8  and  O1_9
REMARK    4  A    between atoms: C5_13  and  O2_14
ROOT
HETATM    1  N3  UNL     1     -45.529 -21.303 -18.101  1.00  0.00    -0.188 NA
HETATM    2  C2  UNL     1     -46.501 -20.677 -17.274  1.00  0.00     0.213 C
HETATM    3  C3  UNL     1     -47.765 -21.479 -17.327  1.00  0.00     0.058 C
HETATM    4  C4  UNL     1     -47.354 -22.808 -17.896  1.00  0.00     0.049 C
HETATM    5  C5  UNL     1     -48.355 -23.390 -18.843  1.00  0.00     0.147 C
HETATM    6  C6  UNL     1     -47.664 -24.404 -19.722  1.00  0.00     0.116 C
HETATM    7  C7  UNL     1     -48.611 -25.114 -20.660  1.00  0.00     0.029 C
HETATM    8  C8  UNL     1     -47.709 -25.354 -21.871  1.00  0.00     0.022 C
HETATM    9  C9  UNL     1     -46.947 -24.081 -21.978  1.00  0.00     0.126 C
HETATM   10  N4  UNL     1     -46.822 -23.617 -20.634  1.00  0.00    -0.344 N
HETATM   11  C10 UNL     1     -46.071 -22.578 -20.022  1.00  0.00     0.240 C
HETATM   12  O3  UNL     1     -45.474 -21.713 -20.708  1.00  0.00    -0.271 OA
HETATM   13  C11 UNL     1     -46.033 -22.576 -18.537  1.00  0.00     0.181 C
ENDROOT
BRANCH   1  14
HETATM   14  N2  UNL     1     -44.250 -21.334 -17.597  1.00  0.00    -0.312 N
ATOM     15  H2  UNL     1     -44.114 -21.846 -16.725  1.00  0.00     0.181 HD
BRANCH  14  16
HETATM   16  C1  UNL     1     -43.115 -20.735 -18.158  1.00  0.00     0.185 C
HETATM   17  N1  UNL     1     -42.328 -19.976 -17.457  1.00  0.00    -0.395 N
ATOM     18  H12 UNL     1     -42.557 -19.822 -16.474  1.00  0.00     0.156 HD
ATOM     19  H11 UNL     1     -41.502 -19.540 -17.865  1.00  0.00     0.156 HD
ENDBRANCH  14  16
ENDBRANCH   1  14
BRANCH   2  20
HETATM   20  O1  UNL     1     -46.071 -20.424 -15.976  1.00  0.00    -0.380 OA
ATOM     21  H1  UNL     1     -45.459 -19.701 -15.900  1.00  0.00     0.211 HD
ENDBRANCH   2  20
BRANCH   5  22
HETATM   22  O2  UNL     1     -49.469 -23.909 -18.208  1.00  0.00    -0.393 OA
ATOM     23  H2  UNL     1     -49.795 -24.703 -18.614  1.00  0.00     0.210 HD
ENDBRANCH   5  22
TORSDOF 4
ENDMDL