MODEL 2
REMARK VINA RESULT: -5.482470138      2.456      4.520
REMARK  5 active torsions:
REMARK  status: ('A' for Active; 'I' for Inactive)
REMARK    1  A    between atoms: N1_2  and  C4_5
REMARK    2  A    between atoms: C4_5  and  C5_6
REMARK    3  A    between atoms: C6_8  and  O2_9
REMARK    4  A    between atoms: C7_11  and  O3_12
REMARK    5  A    between atoms: C8_14  and  C9_15
REMARK       I    between atoms: C9_15  and  N2_17
ROOT
HETATM    1  C5  UNL     1     -46.754 -22.670 -19.745  1.00  0.00     0.166 C
HETATM    2  O1  UNL     1     -46.293 -23.907 -20.148  1.00  0.00    -0.351 OA
HETATM    3  C6  UNL     1     -47.157 -24.868 -19.709  1.00  0.00     0.286 C
HETATM    4  C7  UNL     1     -48.094 -24.246 -18.709  1.00  0.00     0.188 C
HETATM    5  C8  UNL     1     -47.318 -22.944 -18.387  1.00  0.00     0.142 C
ENDROOT
BRANCH   5   6
HETATM    6  C9  UNL     1     -48.278 -21.916 -17.902  1.00  0.00     0.233 C
HETATM    7  O4  UNL     1     -48.715 -20.994 -18.636  1.00  0.00    -0.273 OA
HETATM    8  N2  UNL     1     -48.677 -22.044 -16.538  1.00  0.00    -0.303 N
HETATM    9  C10 UNL     1     -47.939 -21.820 -15.526  1.00  0.00     0.203 C
ATOM     10  H2  UNL     1     -49.636 -22.341 -16.360  1.00  0.00     0.171 HD
HETATM   11  N3  UNL     1     -48.454 -21.985 -14.225  1.00  0.00    -0.066 NA
HETATM   12  N4  UNL     1     -46.603 -21.406 -15.691  1.00  0.00    -0.066 NA
ENDBRANCH   5   6
BRANCH   1  13
HETATM   13  C4  UNL     1     -45.872 -21.538 -19.916  1.00  0.00     0.268 C
BRANCH  13  14
HETATM   14  N1  UNL     1     -44.683 -21.355 -19.200  1.00  0.00    -0.076 N
HETATM   15  C1  UNL     1     -43.827 -20.465 -20.024  1.00  0.00     0.271 C
HETATM   16  C2  UNL     1     -43.852 -22.579 -19.154  1.00  0.00     0.271 C
HETATM   17  C3  UNL     1     -44.733 -20.727 -17.921  1.00  0.00     0.271 C
ENDBRANCH  13  14
ENDBRANCH   1  13
BRANCH   4  18
HETATM   18  O3  UNL     1     -49.292 -23.826 -19.279  1.00  0.00    -0.390 OA
ATOM     19  H3  UNL     1     -49.168 -23.176 -19.961  1.00  0.00     0.210 HD
ENDBRANCH   4  18
BRANCH   3  20
HETATM   20  O2  UNL     1     -47.840 -25.498 -20.749  1.00  0.00    -0.369 OA
ATOM     21  H2  UNL     1     -47.768 -26.444 -20.717  1.00  0.00     0.212 HD
ENDBRANCH   3  20
TORSDOF 5
ENDMDL