MODEL 4
REMARK VINA RESULT: -7.825850305      2.500      7.341
REMARK  3 active torsions:
REMARK  status: ('A' for Active; 'I' for Inactive)
REMARK    1  A    between atoms: C3_4  and  N1_5
REMARK    2  A    between atoms: N1_5  and  C4_7
REMARK    3  A    between atoms: C8_13  and  C9_14
ROOT
HETATM    1  C9  UNL     1      11.298  35.071  16.499  1.00  0.00     0.249 C
HETATM    2  C10 UNL     1      11.736  36.359  15.934  1.00  0.00     0.027 C
HETATM    3  C11 UNL     1      12.649  37.351  16.447  1.00  0.00     0.081 C
HETATM    4  N3  UNL     1      12.883  37.722  17.751  1.00  0.00    -0.399 N
ATOM      5  H3  UNL     1      12.298  38.417  18.214  1.00  0.00     0.158 HD
HETATM    6  C12 UNL     1      14.012  37.080  18.459  1.00  0.00     0.123 C
HETATM    7  C13 UNL     1      13.547  35.804  18.885  1.00  0.00     0.006 C
HETATM    8  C14 UNL     1      13.864  34.981  20.072  1.00  0.00     0.011 C
HETATM    9  C15 UNL     1      12.982  33.744  19.961  1.00  0.00    -0.009 C
HETATM   10  C16 UNL     1      11.772  33.940  19.063  1.00  0.00     0.043 C
HETATM   11  C17 UNL     1      12.685  33.895  17.931  1.00  0.00     0.128 C
HETATM   12  C18 UNL     1      13.835  34.841  17.815  1.00  0.00     0.045 C
HETATM   13  C19 UNL     1      13.273  32.831  18.746  1.00  0.00     0.043 C
HETATM   14  N4  UNL     1      12.075  33.923  16.677  1.00  0.00    -0.054 N
ATOM     15  H41 UNL     1      12.761  33.820  15.928  1.00  0.00     0.279 HD
ATOM     16  H42 UNL     1      11.529  33.077  16.511  1.00  0.00     0.279 HD
ENDROOT
BRANCH   1  17
HETATM   17  C8  UNL     1      10.068  34.664  15.687  1.00  0.00     0.042 A
HETATM   18  C1  UNL     1       9.131  33.784  16.169  1.00  0.00     0.185 A
HETATM   19  O1  UNL     1       9.200  33.272  17.288  1.00  0.00    -0.288 OA
HETATM   20  C2  UNL     1       8.036  33.432  15.368  1.00  0.00     0.103 A
HETATM   21  C3  UNL     1       7.865  33.951  14.104  1.00  0.00     0.104 A
HETATM   22  N2  UNL     1       8.817  34.837  13.653  1.00  0.00    -0.352 N
HETATM   23  C7  UNL     1       9.858  35.166  14.415  1.00  0.00     0.103 A
ATOM     24  H2  UNL     1       8.723  35.247  12.724  1.00  0.00     0.166 HD
BRANCH  21  25
HETATM   25  N1  UNL     1       6.880  33.489  13.189  1.00  0.00    -0.372 N
ATOM     26  H1  UNL     1       6.728  32.484  13.090  1.00  0.00     0.161 HD
BRANCH  25  27
HETATM   27  C4  UNL     1       6.100  34.388  12.408  1.00  0.00     0.083 A
HETATM   28  C5  UNL     1       4.577  34.372  12.468  1.00  0.00     0.027 A
HETATM   29  C6  UNL     1       5.380  35.556  12.968  1.00  0.00     0.027 A
ENDBRANCH  25  27
ENDBRANCH  21  25
ENDBRANCH   1  17
TORSDOF 3
ENDMDL