MODEL 2
REMARK VINA RESULT: -6.423955616      1.470      1.689
REMARK  6 active torsions:
REMARK  status: ('A' for Active; 'I' for Inactive)
REMARK    1  A    between atoms: C2_2  and  C3_3
REMARK    2  A    between atoms: C3_3  and  N1_4
REMARK    3  A    between atoms: C4_5  and  N2_6
REMARK    4  A    between atoms: C6_12  and  N4_13
REMARK    5  A    between atoms: N4_13  and  C7_15
REMARK    6  A    between atoms: N6_24  and  C14_26
ROOT
HETATM    1  N1  UNL     1       9.273  33.505  15.615  1.00  0.00    -0.166 N
HETATM    2  C4  UNL     1       9.120  33.858  16.911  1.00  0.00     0.680 A
HETATM    3  N3  UNL     1      10.305  33.888  17.529  1.00  0.00    -0.184 N
ATOM      4  H3  UNL     1      10.454  34.127  18.510  1.00  0.00     0.184 HD
HETATM    5  C5  UNL     1      11.259  33.558  16.662  1.00  0.00     0.138 A
HETATM    6  C6  UNL     1      12.627  33.430  16.772  1.00  0.00     0.148 A
HETATM    7  N5  UNL     1      13.286  33.068  15.677  1.00  0.00    -0.175 N
ATOM      8  H5  UNL     1      14.299  32.966  15.733  1.00  0.00     0.186 HD
HETATM    9  C13 UNL     1      12.663  32.819  14.457  1.00  0.00     0.681 A
HETATM   10  N6  UNL     1      13.287  32.486  13.480  1.00  0.00    -0.222 N
ATOM     11  H6  UNL     1      14.240  32.469  13.842  1.00  0.00     0.178 HD
HETATM   12  N7  UNL     1      11.303  32.953  14.370  1.00  0.00    -0.173 N
ATOM     13  H7  UNL     1      10.825  32.778  13.486  1.00  0.00     0.186 HD
HETATM   14  C17 UNL     1      10.604  33.317  15.455  1.00  0.00     0.170 A
ENDROOT
BRANCH   6  15
HETATM   15  N4  UNL     1      13.184  33.655  17.880  1.00  0.00    -0.369 N
ATOM     16  H4  UNL     1      13.836  32.927  18.171  1.00  0.00     0.161 HD
BRANCH  15  17
HETATM   17  C7  UNL     1      13.073  34.721  18.794  1.00  0.00     0.083 C
HETATM   18  C8  UNL     1      13.073  34.173  20.203  1.00  0.00     0.025 C
HETATM   19  C9  UNL     1      14.148  34.804  21.064  1.00  0.00     0.002 C
HETATM   20  C10 UNL     1      13.983  36.312  21.088  1.00  0.00     0.000 C
HETATM   21  C11 UNL     1      13.815  36.864  19.684  1.00  0.00     0.002 C
HETATM   22  C12 UNL     1      14.141  35.780  18.645  1.00  0.00     0.025 C
ENDBRANCH  15  17
ENDBRANCH   6  15
BRANCH   2  23
HETATM   23  N2  UNL     1       8.000  34.120  17.505  1.00  0.00    -0.234 N
ATOM     24  H22 UNL     1       7.410  34.916  17.263  1.00  0.00     0.174 HD
ATOM     25  H21 UNL     1       7.585  33.590  18.270  1.00  0.00     0.174 HD
ENDBRANCH   2  23
BRANCH   1  26
HETATM   26  C3  UNL     1       8.211  33.374  14.671  1.00  0.00     0.149 C
BRANCH  26  27
HETATM   27  C2  UNL     1       8.087  34.476  13.672  1.00  0.00     0.016 C
HETATM   28  C1  UNL     1       7.627  35.786  14.234  1.00  0.00     0.006 C
ENDBRANCH  26  27
ENDBRANCH   1  26
BRANCH  10  29
HETATM   29  C14 UNL     1      13.476  32.127  12.214  1.00  0.00     0.091 C
HETATM   30  C15 UNL     1      12.738  30.836  11.818  1.00  0.00     0.032 C
HETATM   31  C16 UNL     1      13.029  33.244  11.239  1.00  0.00     0.032 C
ENDBRANCH  10  29
TORSDOF 6
ENDMDL