MODEL 2
REMARK VINA RESULT: -7.290928554      1.182      1.661
REMARK  6 active torsions:
REMARK  status: ('A' for Active; 'I' for Inactive)
REMARK    1  A    between atoms: N1_1  and  C1_4
REMARK    2  A    between atoms: C2_7  and  O1_8
REMARK    3  A    between atoms: O1_8  and  C3_9
REMARK    4  A    between atoms: C3_9  and  C4_10
REMARK    5  A    between atoms: C11_20  and  N4_21
REMARK    6  A    between atoms: N4_21  and  C12_23
ROOT
HETATM    1  C1  UNL     1      11.884  35.839  12.952  1.00  0.00     0.679 A
HETATM    2  N2  UNL     1      12.701  35.554  13.994  1.00  0.00    -0.171 N
ATOM      3  H2  UNL     1      13.699  35.423  13.828  1.00  0.00     0.186 HD
HETATM    4  C2  UNL     1      12.221  35.440  15.243  1.00  0.00     0.161 A
HETATM    5  C10 UNL     1      10.868  35.627  15.398  1.00  0.00     0.105 A
HETATM    6  C11 UNL     1      10.016  35.922  14.324  1.00  0.00     0.121 A
HETATM    7  N5  UNL     1      10.566  36.020  13.115  1.00  0.00    -0.177 N
ATOM      8  H5  UNL     1       9.980  36.233  12.308  1.00  0.00     0.185 HD
ENDROOT
BRANCH   4   9
HETATM    9  O1  UNL     1      13.074  35.148  16.294  1.00  0.00    -0.335 OA
BRANCH   9  10
HETATM   10  C3  UNL     1      12.628  34.575  17.506  1.00  0.00     0.183 C
BRANCH  10  11
HETATM   11  C4  UNL     1      13.134  35.318  18.708  1.00  0.00     0.028 C
HETATM   12  C5  UNL     1      13.661  34.413  19.780  1.00  0.00     0.009 C
HETATM   13  C6  UNL     1      13.133  34.863  21.125  1.00  0.00     0.010 C
HETATM   14  C7  UNL     1      13.403  36.323  21.390  1.00  0.00     0.103 C
HETATM   15  C8  UNL     1      14.645  36.796  20.741  1.00  0.00     0.217 C
HETATM   16  O2  UNL     1      15.444  37.411  21.487  1.00  0.00    -0.274 OA
HETATM   17  N3  UNL     1      15.055  36.651  19.392  1.00  0.00    -0.361 N
HETATM   18  C9  UNL     1      14.246  36.242  18.245  1.00  0.00     0.129 C
ATOM     19  H3  UNL     1      16.034  36.857  19.198  1.00  0.00     0.162 HD
ENDBRANCH  10  11
ENDBRANCH   9  10
ENDBRANCH   4   9
BRANCH   1  20
HETATM   20  N1  UNL     1      12.399  35.940  11.752  1.00  0.00    -0.234 N
ATOM     21  H12 UNL     1      12.837  35.122  11.329  1.00  0.00     0.174 HD
ATOM     22  H11 UNL     1      12.351  36.837  11.268  1.00  0.00     0.174 HD
ENDBRANCH   1  20
BRANCH   6  23
HETATM   23  N4  UNL     1       8.802  36.068  14.618  1.00  0.00    -0.371 N
ATOM     24  H4  UNL     1       8.573  36.930  15.112  1.00  0.00     0.161 HD
BRANCH  23  25
HETATM   25  C12 UNL     1       7.687  35.194  14.358  1.00  0.00     0.083 C
HETATM   26  C13 UNL     1       8.050  33.740  14.347  1.00  0.00     0.025 C
HETATM   27  C14 UNL     1       7.365  32.915  13.313  1.00  0.00     0.002 C
HETATM   28  C15 UNL     1       5.926  33.401  13.213  1.00  0.00     0.000 C
HETATM   29  C16 UNL     1       5.992  34.742  12.532  1.00  0.00     0.002 C
HETATM   30  C17 UNL     1       6.931  35.699  13.187  1.00  0.00     0.025 C
ENDBRANCH  23  25
ENDBRANCH   6  23
TORSDOF 6
ENDMDL