MODEL 3
REMARK VINA RESULT: -6.514829896      2.270      3.276
REMARK  8 active torsions:
REMARK  status: ('A' for Active; 'I' for Inactive)
REMARK    1  A    between atoms: C6_7  and  O1_8
REMARK    2  A    between atoms: C6_7  and  C7_10
REMARK    3  A    between atoms: C7_10  and  C8_11
REMARK    4  A    between atoms: C8_11  and  C9_12
REMARK    5  A    between atoms: C16_19  and  C17_20
REMARK    6  A    between atoms: C17_20  and  O2_21
REMARK    7  A    between atoms: C18_23  and  O3_24
REMARK    8  A    between atoms: C19_26  and  O4_27
ROOT
HETATM    1  C9  UNL     1      12.996  35.479  16.310  1.00  0.00    -0.052 C
HETATM    2  C10 UNL     1      12.946  34.633  17.327  1.00  0.00    -0.016 C
HETATM    3  C11 UNL     1      12.856  35.145  18.682  1.00  0.00     0.022 C
HETATM    4  C12 UNL     1      13.443  34.322  19.773  1.00  0.00     0.013 C
HETATM    5  C13 UNL     1      13.503  35.329  20.920  1.00  0.00    -0.017 C
HETATM    6  C14 UNL     1      14.674  35.119  21.814  1.00  0.00     0.010 C
HETATM    7  C15 UNL     1      13.508  36.714  20.259  1.00  0.00     0.019 C
HETATM    8  C16 UNL     1      13.682  36.430  18.803  1.00  0.00     0.017 C
HETATM    9  C18 UNL     1      13.069  37.420  17.880  1.00  0.00     0.162 C
HETATM   10  C19 UNL     1      12.966  36.957  16.478  1.00  0.00     0.176 C
ENDROOT
BRANCH   1  11
HETATM   11  C8  UNL     1      13.089  34.975  14.911  1.00  0.00     0.042 C
BRANCH  11  12
HETATM   12  C7  UNL     1      12.141  33.825  14.660  1.00  0.00     0.081 C
BRANCH  12  13
HETATM   13  C6  UNL     1      10.875  34.386  14.045  1.00  0.00     0.282 C
HETATM   14  C2  UNL     1      10.594  33.531  12.834  1.00  0.00    -0.023 C
HETATM   15  C1  UNL     1      11.120  33.673  11.624  1.00  0.00     0.019 C
HETATM   16  C3  UNL     1       9.614  32.524  13.304  1.00  0.00     0.069 C
HETATM   17  C4  UNL     1       8.845  33.289  14.351  1.00  0.00     0.281 C
HETATM   18  N1  UNL     1       9.735  34.285  14.895  1.00  0.00     0.124 N
HETATM   19  C5  UNL     1       9.028  35.560  14.848  1.00  0.00     0.314 C
BRANCH  13  20
HETATM   20  O1  UNL     1      11.076  35.680  13.567  1.00  0.00    -0.359 OA
ATOM     21  H1  UNL     1      11.110  36.241  14.332  1.00  0.00     0.213 HD
ENDBRANCH  13  20
ENDBRANCH  12  13
ENDBRANCH  11  12
ENDBRANCH   1  11
BRANCH  10  22
HETATM   22  O4  UNL     1      11.745  37.393  15.929  1.00  0.00    -0.389 OA
ATOM     23  H4  UNL     1      11.489  38.162  16.425  1.00  0.00     0.210 HD
ENDBRANCH  10  22
BRANCH   9  24
HETATM   24  O3  UNL     1      13.772  38.641  17.910  1.00  0.00    -0.392 OA
ATOM     25  H3  UNL     1      13.950  38.910  18.804  1.00  0.00     0.210 HD
ENDBRANCH   9  24
BRANCH   8  26
HETATM   26  C17 UNL     1      15.143  36.173  18.512  1.00  0.00     0.177 C
BRANCH  26  27
HETATM   27  O2  UNL     1      15.966  37.049  19.217  1.00  0.00    -0.400 OA
ATOM     28  H2  UNL     1      16.806  36.654  19.416  1.00  0.00     0.209 HD
ENDBRANCH  26  27
ENDBRANCH   8  26
TORSDOF 8
ENDMDL