MODEL 5
REMARK VINA RESULT: -6.053867666      1.707      2.064
REMARK  8 active torsions:
REMARK  status: ('A' for Active; 'I' for Inactive)
REMARK    1  A    between atoms: C2_2  and  N1_4
REMARK    2  A    between atoms: N1_4  and  C4_6
REMARK    3  A    between atoms: C6_10  and  C7_11
REMARK    4  A    between atoms: C7_11  and  O1_12
REMARK    5  A    between atoms: C7_11  and  C8_14
REMARK    6  A    between atoms: C11_17  and  N3_18
REMARK    7  A    between atoms: N3_18  and  C12_20
REMARK    8  A    between atoms: C15_23  and  O2_24
ROOT
HETATM    1  C4  UNL     1      13.164  34.195  17.458  1.00  0.00     0.679 A
HETATM    2  N2  UNL     1      14.178  34.186  16.598  1.00  0.00    -0.201 N
ATOM      3  H2  UNL     1      15.087  33.810  16.870  1.00  0.00     0.183 HD
HETATM    4  C5  UNL     1      13.983  34.686  15.356  1.00  0.00     0.123 A
HETATM    5  C6  UNL     1      12.781  35.203  14.940  1.00  0.00     0.053 A
HETATM    6  C11 UNL     1      11.729  35.195  15.877  1.00  0.00     0.131 A
HETATM    7  N4  UNL     1      11.997  34.687  17.079  1.00  0.00    -0.176 N
ATOM      8  H4  UNL     1      11.241  34.677  17.762  1.00  0.00     0.186 HD
ENDROOT
BRANCH   6   9
HETATM    9  N3  UNL     1      10.618  35.662  15.520  1.00  0.00    -0.370 N
ATOM     10  H3  UNL     1      10.432  36.606  15.857  1.00  0.00     0.161 HD
BRANCH   9  11
HETATM   11  C12 UNL     1       9.581  35.111  14.734  1.00  0.00     0.087 C
HETATM   12  C13 UNL     1       8.343  35.995  14.666  1.00  0.00     0.028 C
HETATM   13  C14 UNL     1       7.355  35.449  13.685  1.00  0.00     0.034 C
HETATM   14  C15 UNL     1       7.056  33.990  13.872  1.00  0.00     0.118 C
HETATM   15  C16 UNL     1       8.278  33.157  14.136  1.00  0.00     0.038 C
HETATM   16  C17 UNL     1       9.167  33.713  15.200  1.00  0.00     0.006 C
HETATM   17  C18 UNL     1       8.574  33.716  16.567  1.00  0.00     0.012 C
BRANCH  14  18
HETATM   18  O2  UNL     1       6.471  33.525  12.694  1.00  0.00    -0.396 OA
ATOM     19  H2  UNL     1       7.040  33.769  11.974  1.00  0.00     0.210 HD
ENDBRANCH  14  18
ENDBRANCH   9  11
ENDBRANCH   6   9
BRANCH   5  20
HETATM   20  C7  UNL     1      12.523  35.749  13.630  1.00  0.00     0.062 C
BRANCH  20  21
HETATM   21  O1  UNL     1      12.224  37.025  13.615  1.00  0.00    -0.364 OA
ATOM     22  H1  UNL     1      12.973  37.609  13.604  1.00  0.00     0.217 HD
ENDBRANCH  20  21
BRANCH  20  23
HETATM   23  C8  UNL     1      12.530  35.154  12.307  1.00  0.00     0.043 A
HETATM   24  C9  UNL     1      11.408  34.245  11.853  1.00  0.00     0.012 A
HETATM   25  C10 UNL     1      12.790  33.770  11.933  1.00  0.00     0.012 A
ENDBRANCH  20  23
ENDBRANCH   5  20
BRANCH   1  26
HETATM   26  N1  UNL     1      13.297  33.740  18.629  1.00  0.00    -0.222 N
ATOM     27  H1  UNL     1      13.859  32.892  18.702  1.00  0.00     0.178 HD
BRANCH  26  28
HETATM   28  C2  UNL     1      12.783  34.230  19.863  1.00  0.00     0.091 C
HETATM   29  C1  UNL     1      13.824  34.320  20.964  1.00  0.00     0.032 C
HETATM   30  C3  UNL     1      11.517  33.549  20.323  1.00  0.00     0.032 C
ENDBRANCH  26  28
ENDBRANCH   1  26
TORSDOF 8
ENDMDL