MODEL 1
REMARK VINA RESULT: -7.011795978      0.000      0.000
REMARK  9 active torsions:
REMARK  status: ('A' for Active; 'I' for Inactive)
REMARK    1  A    between atoms: C2_2  and  C3_3
REMARK    2  A    between atoms: C3_3  and  O1_4
REMARK    3  A    between atoms: C3_3  and  C4_6
REMARK    4  A    between atoms: C4_6  and  O2_7
REMARK    5  A    between atoms: C4_6  and  C5_9
REMARK    6  A    between atoms: C5_9  and  N1_10
REMARK    7  A    between atoms: C5_9  and  C6_14
REMARK    8  A    between atoms: C15_23  and  C16_24
REMARK    9  A    between atoms: C16_24  and  O3_26
ROOT
HETATM    1  C6  UNL     1      12.074  35.374  17.357  1.00  0.00     0.035 C
HETATM    2  C7  UNL     1      11.134  34.216  17.093  1.00  0.00     0.043 C
HETATM    3  C8  UNL     1      10.739  34.953  15.838  1.00  0.00    -0.068 C
HETATM    4  C9  UNL     1       9.660  34.881  15.097  1.00  0.00    -0.072 C
HETATM    5  C10 UNL     1       8.461  34.019  15.281  1.00  0.00     0.040 C
HETATM    6  C11 UNL     1       7.502  34.440  14.188  1.00  0.00    -0.003 C
HETATM    7  C12 UNL     1       7.885  35.932  14.089  1.00  0.00     0.014 C
HETATM    8  C13 UNL     1       9.389  35.656  13.871  1.00  0.00     0.016 C
HETATM    9  C14 UNL     1       9.297  34.700  12.700  1.00  0.00     0.016 C
HETATM   10  C15 UNL     1       7.964  33.983  12.848  1.00  0.00     0.019 C
HETATM   11  C18 UNL     1      12.056  35.680  15.917  1.00  0.00    -0.018 C
HETATM   12  C19 UNL     1      11.829  37.142  15.567  1.00  0.00     0.020 C
HETATM   13  C20 UNL     1      12.998  35.037  14.968  1.00  0.00     0.020 C
ENDROOT
BRANCH   1  14
HETATM   14  C5  UNL     1      13.300  34.979  18.078  1.00  0.00     0.220 C
BRANCH  14  15
HETATM   15  C4  UNL     1      14.355  36.034  18.066  1.00  0.00     0.177 C
BRANCH  15  16
HETATM   16  C3  UNL     1      14.715  36.577  19.431  1.00  0.00     0.148 C
BRANCH  16  17
HETATM   17  C2  UNL     1      13.704  36.230  20.498  1.00  0.00     0.030 C
HETATM   18  C1  UNL     1      14.458  35.353  21.507  1.00  0.00     0.007 C
ENDBRANCH  16  17
BRANCH  16  19
HETATM   19  O1  UNL     1      14.630  37.985  19.288  1.00  0.00    -0.393 OA
ATOM     20  H1  UNL     1      15.519  38.298  19.406  1.00  0.00     0.210 HD
ENDBRANCH  16  19
ENDBRANCH  15  16
BRANCH  15  21
HETATM   21  O2  UNL     1      15.532  35.706  17.444  1.00  0.00    -0.391 OA
ATOM     22  H2  UNL     1      15.304  35.308  16.613  1.00  0.00     0.210 HD
ENDBRANCH  15  21
ENDBRANCH  14  15
BRANCH  14  23
HETATM   23  N1  UNL     1      13.801  33.658  17.767  1.00  0.00    -0.072 N
ATOM     24  H13 UNL     1      14.748  33.711  17.392  1.00  0.00     0.274 HD
ATOM     25  H12 UNL     1      13.985  33.131  18.621  1.00  0.00     0.274 HD
ATOM     26  H11 UNL     1      13.193  33.129  17.141  1.00  0.00     0.274 HD
ENDBRANCH  14  23
ENDBRANCH   1  14
BRANCH  10  27
HETATM   27  C16 UNL     1       8.082  32.510  12.661  1.00  0.00     0.118 C
HETATM   28  C17 UNL     1       9.530  32.248  12.215  1.00  0.00     0.040 C
BRANCH  27  29
HETATM   29  O3  UNL     1       7.292  32.118  11.572  1.00  0.00    -0.396 OA
ATOM     30  H3  UNL     1       6.716  31.412  11.842  1.00  0.00     0.210 HD
ENDBRANCH  27  29
ENDBRANCH  10  27
TORSDOF 9
ENDMDL