MODEL 4
REMARK VINA RESULT: -6.708335441      1.775      4.434
REMARK  6 active torsions:
REMARK  status: ('A' for Active; 'I' for Inactive)
REMARK    1  A    between atoms: N1_1  and  C1_4
REMARK    2  A    between atoms: C2_9  and  N4_10
REMARK    3  A    between atoms: N4_10  and  C3_12
REMARK    4  A    between atoms: C3_12  and  C4_13
REMARK    5  A    between atoms: C4_13  and  N5_14
REMARK    6  A    between atoms: C8_18  and  C9_19
ROOT
HETATM    1  C4  UNL     1      11.586  34.897  14.769  1.00  0.00     0.045 C
HETATM    2  C14 UNL     1      11.913  34.105  13.513  1.00  0.00     0.032 C
HETATM    3  C15 UNL     1      13.020  34.727  12.691  1.00  0.00     0.002 C
HETATM    4  C16 UNL     1      12.501  36.025  12.153  1.00  0.00     0.000 C
HETATM    5  C17 UNL     1      12.164  36.884  13.328  1.00  0.00     0.002 C
HETATM    6  C18 UNL     1      11.190  36.285  14.276  1.00  0.00     0.032 C
ENDROOT
BRANCH   1   7
HETATM    7  C3  UNL     1      12.816  35.058  15.624  1.00  0.00     0.169 C
BRANCH   7   8
HETATM    8  N4  UNL     1      12.806  36.124  16.560  1.00  0.00    -0.222 N
ATOM      9  H4  UNL     1      12.401  37.011  16.261  1.00  0.00     0.177 HD
BRANCH   8  10
HETATM   10  C2  UNL     1      13.270  36.054  17.759  1.00  0.00     0.707 A
HETATM   11  N3  UNL     1      13.236  35.044  18.639  1.00  0.00    -0.117 N
HETATM   12  N2  UNL     1      13.846  35.411  19.767  1.00  0.00    -0.118 N
ATOM     13  H3  UNL     1      12.808  34.134  18.472  1.00  0.00     0.206 HD
HETATM   14  C1  UNL     1      14.282  36.682  19.614  1.00  0.00     0.705 A
ATOM     15  H2  UNL     1      13.963  34.834  20.600  1.00  0.00     0.206 HD
HETATM   16  N7  UNL     1      13.918  37.056  18.374  1.00  0.00    -0.020 N
ATOM     17  H7  UNL     1      14.106  37.970  17.962  1.00  0.00     0.203 HD
BRANCH  14  18
HETATM   18  N1  UNL     1      14.928  37.406  20.490  1.00  0.00    -0.233 N
ATOM     19  H12 UNL     1      14.517  37.990  21.218  1.00  0.00     0.174 HD
ATOM     20  H11 UNL     1      15.939  37.500  20.585  1.00  0.00     0.174 HD
ENDBRANCH  14  18
ENDBRANCH   8  10
ENDBRANCH   7   8
ENDBRANCH   1   7
BRANCH   1  21
HETATM   21  N5  UNL     1      10.565  34.281  15.506  1.00  0.00    -0.394 N
HETATM   22  C5  UNL     1      10.944  33.414  16.552  1.00  0.00     0.118 C
HETATM   23  C6  UNL     1       9.983  33.665  17.717  1.00  0.00     0.022 C
HETATM   24  C7  UNL     1       8.770  34.122  16.971  1.00  0.00     0.031 C
HETATM   25  C8  UNL     1       9.368  34.916  15.806  1.00  0.00     0.114 C
BRANCH  25  26
HETATM   26  C9  UNL     1       8.295  34.825  14.785  1.00  0.00    -0.020 A
HETATM   27  C10 UNL     1       7.646  35.941  14.324  1.00  0.00     0.012 A
HETATM   28  C11 UNL     1       6.670  35.763  13.372  1.00  0.00     0.018 A
HETATM   29  C12 UNL     1       6.340  34.518  12.886  1.00  0.00     0.087 A
HETATM   30  N6  UNL     1       6.990  33.436  13.352  1.00  0.00    -0.375 N
HETATM   31  C13 UNL     1       7.955  33.584  14.289  1.00  0.00     0.096 A
ATOM     32  H6  UNL     1       6.757  32.507  13.001  1.00  0.00     0.164 HD
ENDBRANCH  25  26
ENDBRANCH   1  21
TORSDOF 6
ENDMDL