MODEL 1
REMARK VINA RESULT: -6.711847084      0.000      0.000
REMARK  7 active torsions:
REMARK  status: ('A' for Active; 'I' for Inactive)
REMARK    1  A    between atoms: C2_2  and  C4_4
REMARK    2  A    between atoms: C6_6  and  N1_7
REMARK    3  A    between atoms: N1_7  and  C7_9
REMARK    4  A    between atoms: C7_9  and  C8_10
REMARK    5  A    between atoms: C8_10  and  C9_11
REMARK    6  A    between atoms: C9_11  and  O1_12
REMARK    7  A    between atoms: N4_24  and  C15_26
ROOT
HETATM    1  C4  UNL     1      10.110  34.848  15.399  1.00  0.00     0.033 A
HETATM    2  C5  UNL     1      11.111  35.187  16.295  1.00  0.00     0.074 A
HETATM    3  C6  UNL     1      12.327  35.663  15.865  1.00  0.00     0.118 A
HETATM    4  N3  UNL     1      12.491  35.783  14.516  1.00  0.00    -0.177 N
ATOM      5  H3  UNL     1      13.383  36.134  14.166  1.00  0.00     0.185 HD
HETATM    6  C14 UNL     1      11.539  35.461  13.624  1.00  0.00     0.680 A
HETATM    7  N4  UNL     1      11.677  35.566  12.360  1.00  0.00    -0.218 N
ATOM      8  H4  UNL     1      10.863  35.284  11.813  1.00  0.00     0.178 HD
HETATM    9  N5  UNL     1      10.333  34.986  14.089  1.00  0.00    -0.195 N
ATOM     10  H5  UNL     1       9.600  34.737  13.424  1.00  0.00     0.184 HD
ENDROOT
BRANCH   3  11
HETATM   11  N1  UNL     1      13.261  35.981  16.689  1.00  0.00    -0.375 N
ATOM     12  H1  UNL     1      14.202  35.629  16.511  1.00  0.00     0.161 HD
BRANCH  11  13
HETATM   13  C7  UNL     1      13.053  36.798  17.835  1.00  0.00     0.134 C
BRANCH  13  14
HETATM   14  C8  UNL     1      13.802  36.265  19.064  1.00  0.00     0.021 C
HETATM   15  C10 UNL     1      13.143  36.710  20.325  1.00  0.00     0.017 C
HETATM   16  C11 UNL     1      13.923  36.225  21.503  1.00  0.00     0.028 C
HETATM   17  C12 UNL     1      14.326  34.778  21.375  1.00  0.00     0.232 C
HETATM   18  N2  UNL     1      13.601  34.145  20.290  1.00  0.00    -0.074 N
HETATM   19  C13 UNL     1      13.838  34.754  19.021  1.00  0.00     0.245 C
ATOM     20  H22 UNL     1      13.802  33.145  20.254  1.00  0.00     0.277 HD
ATOM     21  H21 UNL     1      12.602  34.109  20.493  1.00  0.00     0.277 HD
BRANCH  14  22
HETATM   22  C9  UNL     1      15.206  36.840  18.961  1.00  0.00     0.177 C
BRANCH  22  23
HETATM   23  O1  UNL     1      15.045  38.241  19.057  1.00  0.00    -0.400 OA
ATOM     24  H1  UNL     1      15.692  38.526  19.691  1.00  0.00     0.209 HD
ENDBRANCH  22  23
ENDBRANCH  14  22
ENDBRANCH  13  14
ENDBRANCH  11  13
ENDBRANCH   3  11
BRANCH   1  25
HETATM   25  C2  UNL     1       8.827  34.341  15.916  1.00  0.00     0.028 C
HETATM   26  C1  UNL     1       8.972  33.607  17.218  1.00  0.00     0.016 C
HETATM   27  C3  UNL     1       8.250  33.381  14.898  1.00  0.00     0.016 C
ENDBRANCH   1  25
BRANCH   7  28
HETATM   28  C15 UNL     1      12.784  36.014  11.598  1.00  0.00     0.036 C
HETATM   29  C16 UNL     1      12.566  35.746  10.109  1.00  0.00     0.038 C
HETATM   30  C17 UNL     1      12.964  37.516  11.713  1.00  0.00     0.038 C
HETATM   31  C18 UNL     1      14.076  35.324  11.991  1.00  0.00     0.038 C
ENDBRANCH   7  28
TORSDOF 7
ENDMDL