MODEL 1
REMARK VINA RESULT: -7.396144714      0.000      0.000
REMARK  5 active torsions:
REMARK  status: ('A' for Active; 'I' for Inactive)
REMARK    1  A    between atoms: C2_2  and  N1_3
REMARK       I    between atoms: N1_3  and  C3_5
REMARK    2  A    between atoms: C3_5  and  C4_7
REMARK    3  A    between atoms: C8_11  and  O2_12
REMARK    4  A    between atoms: C13_18  and  C14_19
REMARK    5  A    between atoms: C20_25  and  O3_26
ROOT
HETATM    1  C4  UNL     1      11.629  34.581  14.258  1.00  0.00     0.071 C
HETATM    2  C5  UNL     1      10.234  35.001  13.780  1.00  0.00     0.029 C
HETATM    3  C6  UNL     1      11.536  33.074  14.438  1.00  0.00     0.025 C
HETATM    4  C7  UNL     1      10.821  32.961  15.744  1.00  0.00     0.043 C
HETATM    5  C8  UNL     1      11.199  34.162  16.562  1.00  0.00     0.097 C
HETATM    6  C9  UNL     1      12.017  33.821  17.771  1.00  0.00    -0.006 C
HETATM    7  C10 UNL     1      13.024  32.752  17.594  1.00  0.00     0.019 C
HETATM    8  C11 UNL     1      11.120  33.458  18.952  1.00  0.00     0.013 C
HETATM    9  C12 UNL     1      11.982  33.768  20.121  1.00  0.00     0.006 C
HETATM   10  C13 UNL     1      13.154  34.633  19.627  1.00  0.00    -0.005 C
HETATM   11  C17 UNL     1      12.655  35.103  18.310  1.00  0.00     0.001 C
HETATM   12  C18 UNL     1      13.673  35.563  17.331  1.00  0.00     0.009 C
HETATM   13  C19 UNL     1      13.348  35.251  15.886  1.00  0.00     0.042 C
HETATM   14  C20 UNL     1      11.871  35.148  15.635  1.00  0.00     0.105 C
ENDROOT
BRANCH   1  15
HETATM   15  C3  UNL     1      12.659  34.914  13.270  1.00  0.00     0.229 C
HETATM   16  N1  UNL     1      12.732  36.231  12.749  1.00  0.00    -0.361 N
ATOM     17  H1  UNL     1      12.065  36.932  13.071  1.00  0.00     0.162 HD
HETATM   18  O1  UNL     1      13.490  34.067  12.860  1.00  0.00    -0.273 OA
BRANCH  16  19
HETATM   19  C2  UNL     1      13.742  36.605  11.761  1.00  0.00     0.118 C
HETATM   20  C1  UNL     1      13.381  37.890  11.087  1.00  0.00     0.026 C
ENDBRANCH  16  19
ENDBRANCH   1  15
BRANCH  14  21
HETATM   21  O3  UNL     1      11.325  36.415  15.702  1.00  0.00    -0.385 OA
ATOM     22  H3  UNL     1      10.763  36.469  16.466  1.00  0.00     0.210 HD
ENDBRANCH  14  21
BRANCH   5  23
HETATM   23  O2  UNL     1      10.028  34.768  17.022  1.00  0.00    -0.386 OA
ATOM     24  H2  UNL     1      10.154  35.710  17.009  1.00  0.00     0.210 HD
ENDBRANCH   5  23
BRANCH  10  25
HETATM   25  C14 UNL     1      13.399  35.652  20.667  1.00  0.00    -0.010 A
HETATM   26  C15 UNL     1      14.658  35.415  21.520  1.00  0.00     0.005 A
HETATM   27  C16 UNL     1      14.522  36.601  20.661  1.00  0.00     0.005 A
ENDBRANCH  10  25
TORSDOF 5
ENDMDL