MODEL 3
REMARK VINA RESULT: -6.594307517      2.484      5.962
REMARK  5 active torsions:
REMARK  status: ('A' for Active; 'I' for Inactive)
REMARK    1  A    between atoms: C2_2  and  C3_3
REMARK    2  A    between atoms: C3_3  and  C4_4
REMARK    3  A    between atoms: C4_4  and  C5_5
REMARK    4  A    between atoms: C5_5  and  C6_6
REMARK    5  A    between atoms: C13_16  and  O1_17
ROOT
HETATM    1  C6  UNL     1       9.423  34.301  15.849  1.00  0.00     0.082 C
HETATM    2  C7  UNL     1       9.018  32.999  15.269  1.00  0.00     0.076 C
HETATM    3  C8  UNL     1      10.057  32.641  14.222  1.00  0.00    -0.016 C
HETATM    4  N1  UNL     1       9.740  32.246  13.061  1.00  0.00    -0.405 N
ATOM      5  H11 UNL     1      10.438  32.005  12.357  1.00  0.00     0.155 HD
ATOM      6  H12 UNL     1       8.774  32.142  12.749  1.00  0.00     0.155 HD
HETATM    7  C9  UNL     1      11.466  32.792  14.677  1.00  0.00     0.085 C
HETATM    8  C10 UNL     1      11.664  34.267  14.926  1.00  0.00     0.061 C
HETATM    9  C11 UNL     1      12.315  34.845  13.684  1.00  0.00     0.036 C
HETATM   10  C12 UNL     1      13.784  34.978  13.989  1.00  0.00     0.037 C
HETATM   11  C13 UNL     1      13.988  34.310  15.336  1.00  0.00     0.151 C
HETATM   12  C14 UNL     1      12.651  34.590  15.991  1.00  0.00     0.105 C
HETATM   13  C15 UNL     1      12.561  36.105  16.223  1.00  0.00     0.205 C
HETATM   14  O2  UNL     1      13.561  36.403  17.147  1.00  0.00    -0.374 OA
HETATM   15  C16 UNL     1      13.067  36.031  18.397  1.00  0.00     0.209 C
HETATM   16  C17 UNL     1      14.057  36.523  19.427  1.00  0.00     0.049 C
HETATM   17  C18 UNL     1      12.922  34.554  18.419  1.00  0.00     0.247 C
HETATM   18  O3  UNL     1      13.194  33.875  19.468  1.00  0.00    -0.271 OA
HETATM   19  N2  UNL     1      12.468  33.919  17.231  1.00  0.00    -0.343 N
ATOM     20  H2  UNL     1      12.021  33.004  17.267  1.00  0.00     0.163 HD
HETATM   21  N3  UNL     1      10.460  34.979  15.148  1.00  0.00    -0.405 N
ATOM     22  H3  UNL     1      10.341  35.937  14.819  1.00  0.00     0.154 HD
ENDROOT
BRANCH  11  23
HETATM   23  O1  UNL     1      14.170  32.954  15.180  1.00  0.00    -0.393 OA
ATOM     24  H1  UNL     1      14.410  32.553  16.007  1.00  0.00     0.210 HD
ENDBRANCH  11  23
BRANCH   1  25
HETATM   25  C5  UNL     1       8.345  35.300  16.105  1.00  0.00     0.025 C
BRANCH  25  26
HETATM   26  C4  UNL     1       7.992  36.283  15.075  1.00  0.00     0.002 C
BRANCH  26  27
HETATM   27  C3  UNL     1       7.146  35.797  13.963  1.00  0.00    -0.000 C
BRANCH  27  28
HETATM   28  C2  UNL     1       7.571  36.460  12.631  1.00  0.00    -0.005 C
HETATM   29  C1  UNL     1       8.734  35.649  12.106  1.00  0.00     0.005 C
ENDBRANCH  27  28
ENDBRANCH  26  27
ENDBRANCH  25  26
ENDBRANCH   1  25
TORSDOF 5
ENDMDL