MODEL 4
REMARK VINA RESULT: -6.465948655      2.966      5.541
REMARK  10 active torsions:
REMARK  status: ('A' for Active; 'I' for Inactive)
REMARK    1  A    between atoms: C2_2  and  C3_3
REMARK    2  A    between atoms: C3_3  and  C4_4
REMARK    3  A    between atoms: C4_4  and  C5_5
REMARK    4  A    between atoms: C6_6  and  C8_8
REMARK    5  A    between atoms: C9_9  and  C10_10
REMARK    6  A    between atoms: C11_11  and  C12_12
REMARK    7  A    between atoms: C13_13  and  C14_14
REMARK    8  A    between atoms: C19_20  and  C20_21
REMARK    9  A    between atoms: C20_21  and  C21_22
REMARK   10  A    between atoms: C22_24  and  O3_25
ROOT
HETATM    1  C3  UNL     1     -44.523  15.666  -8.635  1.00  0.00    -0.009 C
HETATM    2  C16 UNL     1     -45.756  16.512  -9.097  1.00  0.00     0.093 C
HETATM    3  C17 UNL     1     -45.250  17.823  -9.238  1.00  0.00    -0.182 C
HETATM    4  C18 UNL     1     -44.725  19.106  -9.366  1.00  0.00     0.087 C
HETATM    5  C19 UNL     1     -43.143  18.894  -9.252  1.00  0.00     0.031 C
HETATM    6  C22 UNL     1     -42.862  17.706  -8.430  1.00  0.00     0.127 C
HETATM    7  C24 UNL     1     -43.214  16.350  -8.868  1.00  0.00     0.047 C
ENDROOT
BRANCH   1   8
HETATM    8  C2  UNL     1     -44.745  15.202  -7.274  1.00  0.00    -0.026 C
HETATM    9  C1  UNL     1     -43.877  14.711  -6.415  1.00  0.00     0.008 C
ENDBRANCH   1   8
BRANCH   1  10
HETATM   10  C4  UNL     1     -44.468  14.418  -9.542  1.00  0.00     0.042 C
BRANCH  10  11
HETATM   11  C5  UNL     1     -45.740  13.749  -9.641  1.00  0.00    -0.019 C
HETATM   12  C6  UNL     1     -45.958  12.512  -9.184  1.00  0.00    -0.066 C
HETATM   13  C7  UNL     1     -44.888  11.728  -8.530  1.00  0.00     0.048 C
BRANCH  12  14
HETATM   14  C8  UNL     1     -47.284  11.965  -9.353  1.00  0.00     0.006 C
HETATM   15  C9  UNL     1     -48.243  11.656  -8.562  1.00  0.00     0.001 C
BRANCH  15  16
HETATM   16  C10 UNL     1     -48.331  11.754  -7.138  1.00  0.00     0.000 C
HETATM   17  C11 UNL     1     -47.566  10.927  -6.364  1.00  0.00     0.000 C
BRANCH  17  18
HETATM   18  C12 UNL     1     -47.635  11.004  -4.922  1.00  0.00     0.004 C
HETATM   19  C13 UNL     1     -48.405  10.268  -4.184  1.00  0.00     0.049 C
BRANCH  19  20
HETATM   20  C14 UNL     1     -49.341   9.245  -4.540  1.00  0.00     0.145 C
HETATM   21  C15 UNL     1     -50.809   9.428  -4.256  1.00  0.00     0.096 C
HETATM   22  O1  UNL     1     -49.030   8.181  -5.082  1.00  0.00    -0.294 OA
ENDBRANCH  19  20
ENDBRANCH  17  18
ENDBRANCH  15  16
ENDBRANCH  12  14
ENDBRANCH  10  11
ENDBRANCH   1  10
BRANCH   6  23
HETATM   23  O3  UNL     1     -41.490  17.673  -8.199  1.00  0.00    -0.390 OA
HETATM   24  C23 UNL     1     -40.921  16.416  -8.444  1.00  0.00     0.202 C
ENDBRANCH   6  23
BRANCH   5  25
HETATM   25  C20 UNL     1     -42.635  20.169  -8.691  1.00  0.00     0.077 C
BRANCH  25  26
HETATM   26  C21 UNL     1     -42.498  21.308  -9.592  1.00  0.00     0.231 C
HETATM   27  O2  UNL     1     -41.403  21.881  -9.664  1.00  0.00    -0.307 OA
ENDBRANCH  25  26
ENDBRANCH   5  25
TORSDOF 10
ENDMDL