MODEL 3
REMARK VINA RESULT: -6.136272778      2.056      4.815
REMARK  10 active torsions:
REMARK  status: ('A' for Active; 'I' for Inactive)
REMARK    1  A    between atoms: C2_2  and  N1_3
REMARK    2  A    between atoms: N1_3  and  C3_4
REMARK    3  A    between atoms: N1_3  and  C5_6
REMARK    4  A    between atoms: C5_6  and  C6_7
REMARK    5  A    between atoms: C6_7  and  C7_8
REMARK    6  A    between atoms: C7_8  and  N2_9
REMARK    7  A    between atoms: N2_9  and  C8_10
REMARK    8  A    between atoms: N2_9  and  C14_16
REMARK    9  A    between atoms: C8_10  and  C9_11
REMARK   10  A    between atoms: C9_11  and  C10_12
ROOT
HETATM    1  N2  UNL     1     -45.847  12.873  -6.345  1.00  0.00     0.102 N
ENDROOT
BRANCH   1   2
HETATM    2  C7  UNL     1     -46.196  11.579  -6.871  1.00  0.00     0.275 C
BRANCH   2   3
HETATM    3  C6  UNL     1     -47.579  11.080  -6.589  1.00  0.00     0.060 C
BRANCH   3   4
HETATM    4  C5  UNL     1     -47.605  10.948  -5.046  1.00  0.00     0.274 C
BRANCH   4   5
HETATM    5  N1  UNL     1     -48.439   9.896  -4.617  1.00  0.00     0.087 N
BRANCH   5   6
HETATM    6  C2  UNL     1     -49.831  10.103  -4.770  1.00  0.00     0.268 C
HETATM    7  C1  UNL     1     -50.742   9.209  -4.010  1.00  0.00     0.037 C
ENDBRANCH   5   6
BRANCH   5   8
HETATM    8  C3  UNL     1     -48.148   9.556  -3.245  1.00  0.00     0.268 C
HETATM    9  C4  UNL     1     -47.592  10.731  -2.475  1.00  0.00     0.037 C
ENDBRANCH   5   8
ENDBRANCH   4   5
ENDBRANCH   3   4
ENDBRANCH   2   3
ENDBRANCH   1   2
BRANCH   1  10
HETATM   10  C8  UNL     1     -44.591  12.623  -5.600  1.00  0.00     0.277 C
BRANCH  10  11
HETATM   11  C9  UNL     1     -44.242  13.566  -4.537  1.00  0.00     0.057 C
BRANCH  11  12
HETATM   12  C10 UNL     1     -44.978  13.293  -3.289  1.00  0.00    -0.023 C
HETATM   13  C11 UNL     1     -44.783  13.862  -2.135  1.00  0.00    -0.091 C
HETATM   14  C12 UNL     1     -45.631  13.463  -0.947  1.00  0.00     0.042 C
HETATM   15  C13 UNL     1     -43.750  14.912  -1.955  1.00  0.00     0.042 C
ENDBRANCH  11  12
ENDBRANCH  10  11
ENDBRANCH   1  10
BRANCH   1  16
HETATM   16  C14 UNL     1     -45.490  13.815  -7.334  1.00  0.00     0.296 C
HETATM   17  C15 UNL     1     -45.256  13.360  -8.722  1.00  0.00    -0.048 C
HETATM   18  C16 UNL     1     -45.646  12.045  -9.224  1.00  0.00     0.046 C
HETATM   19  C17 UNL     1     -44.664  14.152  -9.632  1.00  0.00    -0.008 C
HETATM   20  C18 UNL     1     -44.137  15.570  -9.477  1.00  0.00     0.097 C
HETATM   21  C19 UNL     1     -42.848  15.616  -8.722  1.00  0.00     0.024 C
HETATM   22  C20 UNL     1     -45.160  16.422  -8.817  1.00  0.00     0.229 C
HETATM   23  O1  UNL     1     -44.982  17.657  -8.819  1.00  0.00    -0.273 OA
HETATM   24  N3  UNL     1     -46.342  15.968  -8.173  1.00  0.00    -0.332 N
HETATM   25  C21 UNL     1     -46.554  14.840  -7.510  1.00  0.00     0.023 C
ATOM     26  H3  UNL     1     -47.141  16.599  -8.229  1.00  0.00     0.168 HD
HETATM   27  C22 UNL     1     -47.926  14.678  -7.055  1.00  0.00     0.066 C
ENDBRANCH   1  16
TORSDOF 10
ENDMDL