MODEL 1
REMARK VINA RESULT: -7.142405280      0.000      0.000
REMARK  11 active torsions:
REMARK  status: ('A' for Active; 'I' for Inactive)
REMARK    1  A    between atoms: C2_2  and  C3_3
REMARK    2  A    between atoms: C3_3  and  C4_4
REMARK    3  A    between atoms: C4_4  and  C5_5
REMARK    4  A    between atoms: C5_5  and  C6_6
REMARK    5  A    between atoms: C6_6  and  C7_7
REMARK    6  A    between atoms: C7_7  and  C8_8
REMARK    7  A    between atoms: C8_8  and  C9_9
REMARK    8  A    between atoms: C9_9  and  N1_10
REMARK    9  A    between atoms: C18_20  and  C19_21
REMARK   10  A    between atoms: C19_21  and  O2_23
REMARK   11  A    between atoms: O2_23  and  C20_24
ROOT
HETATM    1  N1  UNL     1     -46.492  13.207  -7.378  1.00  0.00    -0.057 N
HETATM    2  C10 UNL     1     -47.093  12.454  -8.493  1.00  0.00     0.243 C
HETATM    3  C11 UNL     1     -45.833  12.143  -9.290  1.00  0.00     0.015 C
HETATM    4  C12 UNL     1     -44.982  11.536  -8.163  1.00  0.00     0.044 C
HETATM    5  C13 UNL     1     -45.213  12.650  -7.132  1.00  0.00     0.222 C
HETATM    6  C14 UNL     1     -44.210  13.713  -7.559  1.00  0.00    -0.013 C
HETATM    7  C15 UNL     1     -43.048  13.839  -6.989  1.00  0.00     0.024 C
HETATM    8  C16 UNL     1     -42.018  14.845  -7.345  1.00  0.00     0.060 C
HETATM    9  C17 UNL     1     -42.711  12.911  -5.898  1.00  0.00     0.095 C
HETATM   10  N2  UNL     1     -42.440  12.177  -5.048  1.00  0.00    -0.192 NA
HETATM   11  C18 UNL     1     -44.959  14.367  -8.628  1.00  0.00     0.099 C
HETATM   12  C22 UNL     1     -45.224  13.404  -9.785  1.00  0.00     0.032 C
HETATM   13  C23 UNL     1     -46.311  14.553  -7.909  1.00  0.00     0.263 C
ENDROOT
BRANCH  11  14
HETATM   14  C19 UNL     1     -44.500  15.658  -9.110  1.00  0.00     0.273 C
HETATM   15  O1  UNL     1     -43.694  15.714 -10.073  1.00  0.00    -0.264 OA
BRANCH  14  16
HETATM   16  O2  UNL     1     -44.896  16.866  -8.575  1.00  0.00    -0.321 OA
BRANCH  16  17
HETATM   17  C20 UNL     1     -44.944  18.082  -9.272  1.00  0.00     0.174 C
HETATM   18  C21 UNL     1     -46.336  18.152  -9.913  1.00  0.00     0.034 C
ENDBRANCH  16  17
ENDBRANCH  14  16
ENDBRANCH  11  14
BRANCH   1  19
HETATM   19  C9  UNL     1     -47.444  13.148  -6.309  1.00  0.00     0.238 C
BRANCH  19  20
HETATM   20  C8  UNL     1     -47.344  11.965  -5.421  1.00  0.00     0.028 C
BRANCH  20  21
HETATM   21  C7  UNL     1     -48.361  10.923  -5.826  1.00  0.00     0.002 C
BRANCH  21  22
HETATM   22  C6  UNL     1     -47.818   9.516  -5.778  1.00  0.00     0.000 C
BRANCH  22  23
HETATM   23  C5  UNL     1     -48.634   8.635  -4.862  1.00  0.00     0.000 C
BRANCH  23  24
HETATM   24  C4  UNL     1     -50.056   9.136  -4.724  1.00  0.00     0.000 C
BRANCH  24  25
HETATM   25  C3  UNL     1     -50.481   9.138  -3.267  1.00  0.00    -0.000 C
BRANCH  25  26
HETATM   26  C2  UNL     1     -49.702  10.121  -2.447  1.00  0.00    -0.005 C
HETATM   27  C1  UNL     1     -50.248  11.498  -2.709  1.00  0.00     0.005 C
ENDBRANCH  25  26
ENDBRANCH  24  25
ENDBRANCH  23  24
ENDBRANCH  22  23
ENDBRANCH  21  22
ENDBRANCH  20  21
ENDBRANCH  19  20
ENDBRANCH   1  19
TORSDOF 11
ENDMDL