MODEL 3
REMARK VINA RESULT: -6.170956573      1.264      1.794
REMARK  11 active torsions:
REMARK  status: ('A' for Active; 'I' for Inactive)
REMARK    1  A    between atoms: C3_3  and  C4_4
REMARK    2  A    between atoms: C6_6  and  N1_7
REMARK    3  A    between atoms: C12_14  and  C13_15
REMARK    4  A    between atoms: C14_16  and  C15_17
REMARK    5  A    between atoms: C15_17  and  C16_18
REMARK    6  A    between atoms: C16_18  and  C17_19
REMARK    7  A    between atoms: C17_19  and  C18_20
REMARK    8  A    between atoms: C18_20  and  O2_21
REMARK    9  A    between atoms: O2_21  and  C19_22
REMARK   10  A    between atoms: C19_22  and  C20_24
REMARK   11  A    between atoms: C20_24  and  C21_25
ROOT
HETATM    1  C4  UNL     1     -45.556  13.319  -8.138  1.00  0.00     0.073 C
HETATM    2  C5  UNL     1     -44.534  14.423  -7.883  1.00  0.00    -0.018 C
HETATM    3  C6  UNL     1     -43.272  14.163  -7.589  1.00  0.00     0.207 C
HETATM    4  C10 UNL     1     -45.308  15.654  -8.043  1.00  0.00     0.149 C
HETATM    5  C11 UNL     1     -44.993  16.447  -9.284  1.00  0.00     0.044 C
HETATM    6  O1  UNL     1     -46.664  15.340  -8.102  1.00  0.00    -0.372 OA
HETATM    7  C12 UNL     1     -46.808  14.024  -7.640  1.00  0.00     0.156 C
ENDROOT
BRANCH   7   8
HETATM    8  C13 UNL     1     -46.891  13.971  -6.176  1.00  0.00     0.002 C
HETATM    9  C14 UNL     1     -47.431  12.987  -5.503  1.00  0.00    -0.028 C
BRANCH   9  10
HETATM   10  C15 UNL     1     -48.053  11.764  -5.991  1.00  0.00     0.027 C
BRANCH  10  11
HETATM   11  C16 UNL     1     -47.259  10.545  -6.177  1.00  0.00     0.006 C
BRANCH  11  12
HETATM   12  C17 UNL     1     -47.841   9.201  -6.262  1.00  0.00     0.027 C
BRANCH  12  13
HETATM   13  C18 UNL     1     -48.242   8.484  -5.024  1.00  0.00     0.178 C
BRANCH  13  14
HETATM   14  O2  UNL     1     -49.656   8.490  -4.841  1.00  0.00    -0.321 OA
BRANCH  14  15
HETATM   15  C19 UNL     1     -50.332   9.384  -4.075  1.00  0.00     0.258 C
HETATM   16  O3  UNL     1     -51.352   9.967  -4.477  1.00  0.00    -0.265 OA
BRANCH  15  17
HETATM   17  C20 UNL     1     -49.863   9.707  -2.676  1.00  0.00     0.111 C
BRANCH  17  18
HETATM   18  C21 UNL     1     -49.227  11.088  -2.621  1.00  0.00     0.005 C
HETATM   19  C22 UNL     1     -47.737  11.017  -2.386  1.00  0.00     0.005 C
ENDBRANCH  17  18
ENDBRANCH  15  17
ENDBRANCH  14  15
ENDBRANCH  13  14
ENDBRANCH  12  13
ENDBRANCH  11  12
ENDBRANCH  10  11
ENDBRANCH   9  10
ENDBRANCH   7   8
BRANCH   1  20
HETATM   20  C3  UNL     1     -45.573  13.138  -9.603  1.00  0.00    -0.019 C
HETATM   21  C2  UNL     1     -46.558  12.535 -10.246  1.00  0.00    -0.034 C
HETATM   22  C1  UNL     1     -46.509  12.386 -11.748  1.00  0.00     0.036 C
ENDBRANCH   1  20
BRANCH   3  23
HETATM   23  N1  UNL     1     -42.271  15.129  -7.339  1.00  0.00    -0.058 N
HETATM   24  C7  UNL     1     -41.170  14.445  -6.637  1.00  0.00     0.277 C
HETATM   25  C8  UNL     1     -42.683  16.203  -6.463  1.00  0.00     0.277 C
HETATM   26  C9  UNL     1     -41.720  15.631  -8.563  1.00  0.00     0.277 C
ENDBRANCH   3  23
TORSDOF 11
ENDMDL