MODEL 3
REMARK VINA RESULT: -6.749442490      1.831      2.691
REMARK  11 active torsions:
REMARK  status: ('A' for Active; 'I' for Inactive)
REMARK    1  A    between atoms: C2_2  and  C3_3
REMARK    2  A    between atoms: C3_3  and  C4_4
REMARK    3  A    between atoms: C7_8  and  C9_10
REMARK    4  A    between atoms: C9_10  and  C10_11
REMARK    5  A    between atoms: C10_11  and  C11_12
REMARK    6  A    between atoms: C11_12  and  C12_13
REMARK    7  A    between atoms: C11_12  and  N1_17
REMARK    8  A    between atoms: C12_13  and  O3_15
REMARK    9  A    between atoms: N1_17  and  C15_19
REMARK   10  A    between atoms: C15_19  and  C16_20
REMARK   11  A    between atoms: C16_20  and  C17_21
ROOT
HETATM    1  C4  UNL     1     -46.181  12.887  -9.148  1.00  0.00    -0.000 C
HETATM    2  C5  UNL     1     -45.700  11.838  -8.178  1.00  0.00     0.084 C
HETATM    3  C6  UNL     1     -44.957  12.497  -7.101  1.00  0.00     0.139 C
HETATM    4  O1  UNL     1     -43.891  12.046  -6.742  1.00  0.00    -0.297 OA
HETATM    5  C7  UNL     1     -45.434  13.746  -6.370  1.00  0.00     0.038 C
HETATM    6  C8  UNL     1     -44.186  14.412  -5.865  1.00  0.00     0.028 C
HETATM    7  C19 UNL     1     -46.106  14.629  -7.383  1.00  0.00     0.005 C
HETATM    8  C20 UNL     1     -47.582  14.689  -7.373  1.00  0.00     0.012 C
HETATM    9  C21 UNL     1     -45.702  14.253  -8.829  1.00  0.00    -0.009 C
HETATM   10  C22 UNL     1     -44.302  14.598  -9.146  1.00  0.00     0.011 C
ENDROOT
BRANCH   5  11
HETATM   11  C9  UNL     1     -46.284  13.236  -5.279  1.00  0.00    -0.011 C
BRANCH  11  12
HETATM   12  C10 UNL     1     -45.922  12.068  -4.480  1.00  0.00     0.016 C
BRANCH  12  13
HETATM   13  C11 UNL     1     -46.857  10.967  -4.214  1.00  0.00     0.343 C
BRANCH  13  14
HETATM   14  C12 UNL     1     -47.739  10.575  -5.327  1.00  0.00     0.296 C
HETATM   15  O2  UNL     1     -48.524  11.294  -5.946  1.00  0.00    -0.262 OA
BRANCH  14  16
HETATM   16  O3  UNL     1     -47.711   9.229  -5.761  1.00  0.00    -0.325 OA
HETATM   17  C13 UNL     1     -48.716   8.306  -5.385  1.00  0.00     0.213 C
ENDBRANCH  14  16
ENDBRANCH  13  14
BRANCH  13  18
HETATM   18  N1  UNL     1     -47.630  11.222  -2.998  1.00  0.00     0.102 N
HETATM   19  C14 UNL     1     -46.838  11.791  -1.954  1.00  0.00     0.311 C
BRANCH  18  20
HETATM   20  C15 UNL     1     -48.433  10.171  -2.537  1.00  0.00     0.273 C
BRANCH  20  21
HETATM   21  C16 UNL     1     -49.911  10.346  -2.513  1.00  0.00     0.030 C
BRANCH  21  22
HETATM   22  C17 UNL     1     -50.347  11.711  -2.904  1.00  0.00    -0.003 C
HETATM   23  C18 UNL     1     -50.969  12.485  -1.808  1.00  0.00     0.005 C
ENDBRANCH  21  22
ENDBRANCH  20  21
ENDBRANCH  18  20
ENDBRANCH  13  18
ENDBRANCH  12  13
ENDBRANCH  11  12
ENDBRANCH   5  11
BRANCH   1  24
HETATM   24  C3  UNL     1     -46.099  12.513 -10.577  1.00  0.00     0.031 C
BRANCH  24  25
HETATM   25  C2  UNL     1     -47.351  12.444 -11.334  1.00  0.00    -0.037 C
HETATM   26  C1  UNL     1     -47.660  11.359 -12.014  1.00  0.00     0.007 C
ENDBRANCH  24  25
ENDBRANCH   1  24
TORSDOF 11
ENDMDL