MODEL 3
REMARK VINA RESULT: -5.980141888      4.092      8.919
REMARK  11 active torsions:
REMARK  status: ('A' for Active; 'I' for Inactive)
REMARK    1  A    between atoms: C5_6  and  C6_7
REMARK    2  A    between atoms: C6_7  and  N1_8
REMARK    3  A    between atoms: N1_8  and  C9_11
REMARK    4  A    between atoms: C9_11  and  C10_12
REMARK    5  A    between atoms: C10_12  and  C11_13
REMARK    6  A    between atoms: C11_13  and  C12_14
REMARK    7  A    between atoms: C12_14  and  C13_15
REMARK    8  A    between atoms: C13_15  and  C14_16
REMARK    9  A    between atoms: C14_16  and  C15_17
REMARK   10  A    between atoms: C15_17  and  O1_18
REMARK   11  A    between atoms: O1_18  and  C16_19
REMARK       I    between atoms: C16_19  and  N2_21
ROOT
HETATM    1  C9  UNL     1     -45.072  11.959  -6.408  1.00  0.00     0.242 C
ENDROOT
BRANCH   1   2
HETATM    2  N1  UNL     1     -45.868  12.593  -5.238  1.00  0.00    -0.054 N
HETATM    3  C7  UNL     1     -47.085  13.104  -5.842  1.00  0.00     0.277 C
HETATM    4  C8  UNL     1     -45.094  13.709  -4.825  1.00  0.00     0.277 C
BRANCH   2   5
HETATM    5  C6  UNL     1     -46.076  11.479  -4.469  1.00  0.00     0.214 C
BRANCH   5   6
HETATM    6  C5  UNL     1     -47.317  10.870  -3.951  1.00  0.00     0.007 A
HETATM    7  C3  UNL     1     -47.727  11.409  -2.661  1.00  0.00    -0.009 A
HETATM    8  S1  UNL     1     -49.270  10.902  -2.415  1.00  0.00    -0.099 SA
HETATM    9  C4  UNL     1     -46.711  12.107  -1.786  1.00  0.00     0.057 C
HETATM   10  C2  UNL     1     -49.487   9.971  -3.853  1.00  0.00    -0.014 A
HETATM   11  C1  UNL     1     -50.725   9.245  -4.239  1.00  0.00     0.057 C
HETATM   12  C19 UNL     1     -48.270  10.123  -4.527  1.00  0.00    -0.037 A
HETATM   13  C20 UNL     1     -48.136   9.451  -5.873  1.00  0.00     0.050 C
ENDBRANCH   5   6
ENDBRANCH   2   5
ENDBRANCH   1   2
BRANCH   1  14
HETATM   14  C10 UNL     1     -45.862  11.718  -7.630  1.00  0.00     0.028 C
BRANCH  14  15
HETATM   15  C11 UNL     1     -45.205  12.132  -8.940  1.00  0.00     0.002 C
BRANCH  15  16
HETATM   16  C12 UNL     1     -46.077  13.219  -9.608  1.00  0.00     0.000 C
BRANCH  16  17
HETATM   17  C13 UNL     1     -45.740  14.600  -8.983  1.00  0.00     0.002 C
BRANCH  17  18
HETATM   18  C14 UNL     1     -44.268  14.884  -9.213  1.00  0.00     0.027 C
BRANCH  18  19
HETATM   19  C15 UNL     1     -43.821  16.273  -8.991  1.00  0.00     0.180 C
BRANCH  19  20
HETATM   20  O1  UNL     1     -44.725  17.297  -8.842  1.00  0.00    -0.304 OA
BRANCH  20  21
HETATM   21  C16 UNL     1     -45.017  18.459  -9.475  1.00  0.00     0.362 C
HETATM   22  O2  UNL     1     -45.848  18.419 -10.397  1.00  0.00    -0.238 OA
HETATM   23  N2  UNL     1     -44.413  19.744  -9.168  1.00  0.00    -0.337 N
HETATM   24  C17 UNL     1     -45.011  20.847  -9.971  1.00  0.00     0.154 C
HETATM   25  C18 UNL     1     -43.394  20.088  -8.272  1.00  0.00     0.154 C
ENDBRANCH  20  21
ENDBRANCH  19  20
ENDBRANCH  18  19
ENDBRANCH  17  18
ENDBRANCH  16  17
ENDBRANCH  15  16
ENDBRANCH  14  15
ENDBRANCH   1  14
TORSDOF 11
ENDMDL