MODEL 3
REMARK VINA RESULT: -6.726840362      1.518      1.607
REMARK  9 active torsions:
REMARK  status: ('A' for Active; 'I' for Inactive)
REMARK    1  A    between atoms: C2_2  and  C3_3
REMARK       I    between atoms: N1_10  and  C10_12
REMARK    2  A    between atoms: C10_12  and  C11_14
REMARK    3  A    between atoms: C11_14  and  C12_15
REMARK    4  A    between atoms: C12_15  and  C13_16
REMARK    5  A    between atoms: C13_16  and  C14_17
REMARK    6  A    between atoms: C14_17  and  C15_18
REMARK    7  A    between atoms: C15_18  and  C16_19
REMARK    8  A    between atoms: C16_19  and  C17_20
REMARK    9  A    between atoms: C17_20  and  C18_21
ROOT
HETATM    1  C3  UNL     1     -47.113  12.905  -7.916  1.00  0.00    -0.073 C
HETATM    2  C4  UNL     1     -47.403  13.867  -7.013  1.00  0.00     0.002 C
HETATM    3  C5  UNL     1     -46.498  15.018  -6.920  1.00  0.00     0.109 C
HETATM    4  C6  UNL     1     -46.239  15.454  -8.380  1.00  0.00     0.047 C
HETATM    5  C7  UNL     1     -45.256  14.345  -8.787  1.00  0.00     0.028 C
HETATM    6  C8  UNL     1     -44.536  14.668 -10.058  1.00  0.00     0.025 C
HETATM    7  C9  UNL     1     -44.291  14.535  -7.618  1.00  0.00     0.091 C
HETATM    8  N1  UNL     1     -43.096  14.656  -7.699  1.00  0.00    -0.316 N
ATOM      9  H1  UNL     1     -42.853  14.606  -8.688  1.00  0.00     0.170 HD
HETATM   10  C10 UNL     1     -41.928  14.835  -7.001  1.00  0.00     0.223 C
HETATM   11  O1  UNL     1     -41.359  14.008  -6.231  1.00  0.00    -0.273 OA
HETATM   12  N2  UNL     1     -45.174  14.528  -6.514  1.00  0.00    -0.366 N
HETATM   13  C19 UNL     1     -44.839  14.091  -5.153  1.00  0.00     0.151 C
HETATM   14  C20 UNL     1     -45.913  13.011  -8.789  1.00  0.00    -0.010 C
HETATM   15  C21 UNL     1     -46.319  12.721 -10.246  1.00  0.00     0.021 C
HETATM   16  C22 UNL     1     -44.858  11.955  -8.449  1.00  0.00     0.021 C
ENDROOT
BRANCH  10  17
HETATM   17  C11 UNL     1     -41.230  16.171  -7.160  1.00  0.00     0.103 C
BRANCH  17  18
HETATM   18  C12 UNL     1     -41.600  16.851  -8.437  1.00  0.00     0.009 C
BRANCH  18  19
HETATM   19  C13 UNL     1     -42.414  18.095  -8.211  1.00  0.00     0.000 C
BRANCH  19  20
HETATM   20  C14 UNL     1     -43.632  18.107  -9.084  1.00  0.00     0.000 C
BRANCH  20  21
HETATM   21  C15 UNL     1     -44.325  19.467  -9.094  1.00  0.00     0.000 C
BRANCH  21  22
HETATM   22  C16 UNL     1     -43.502  20.485  -8.367  1.00  0.00     0.007 C
BRANCH  22  23
HETATM   23  C17 UNL     1     -44.347  21.758  -8.272  1.00  0.00     0.069 C
BRANCH  23  24
HETATM   24  C18 UNL     1     -43.929  22.495  -7.056  1.00  0.00     0.231 C
HETATM   25  O2  UNL     1     -44.690  22.518  -6.111  1.00  0.00    -0.307 OA
ENDBRANCH  23  24
ENDBRANCH  22  23
ENDBRANCH  21  22
ENDBRANCH  20  21
ENDBRANCH  19  20
ENDBRANCH  18  19
ENDBRANCH  17  18
ENDBRANCH  10  17
BRANCH   1  26
HETATM   26  C2  UNL     1     -48.040  11.759  -7.991  1.00  0.00     0.030 C
HETATM   27  C1  UNL     1     -48.010  10.819  -6.834  1.00  0.00     0.010 C
ENDBRANCH   1  26
TORSDOF 9
ENDMDL