MODEL 1
REMARK VINA RESULT: -7.055091185      0.000      0.000
REMARK  10 active torsions:
REMARK  status: ('A' for Active; 'I' for Inactive)
REMARK    1  A    between atoms: C2_2  and  C3_3
REMARK    2  A    between atoms: C3_3  and  C15_16
REMARK    3  A    between atoms: C4_4  and  C5_5
REMARK    4  A    between atoms: C5_5  and  C6_7
REMARK    5  A    between atoms: C7_8  and  C9_10
REMARK    6  A    between atoms: C9_10  and  C10_11
REMARK    7  A    between atoms: C10_11  and  C11_12
REMARK    8  A    between atoms: C19_21  and  C20_22
REMARK    9  A    between atoms: C20_22  and  N2_23
REMARK   10  A    between atoms: N2_23  and  C22_25
ROOT
HETATM    1  C3  UNL     1     -46.769  12.186  -5.335  1.00  0.00    -0.070 C
HETATM    2  C4  UNL     1     -46.298  13.394  -5.482  1.00  0.00     0.058 C
ENDROOT
BRANCH   1   3
HETATM    3  C2  UNL     1     -47.735  11.618  -6.261  1.00  0.00     0.030 C
HETATM    4  C1  UNL     1     -47.563  10.167  -6.636  1.00  0.00     0.010 C
ENDBRANCH   1   3
BRANCH   1   5
HETATM    5  C15 UNL     1     -46.302  11.475  -4.100  1.00  0.00     0.050 C
HETATM    6  C16 UNL     1     -44.933  11.949  -3.678  1.00  0.00     0.281 C
HETATM    7  N1  UNL     1     -45.169  12.775  -2.558  1.00  0.00     0.085 N
HETATM    8  C17 UNL     1     -44.022  12.973  -1.707  1.00  0.00     0.309 C
HETATM    9  C18 UNL     1     -46.328  12.301  -1.836  1.00  0.00     0.279 C
HETATM   10  C19 UNL     1     -47.118  11.613  -2.877  1.00  0.00     0.052 C
BRANCH  10  11
HETATM   11  C20 UNL     1     -47.780  10.315  -2.518  1.00  0.00     0.279 C
BRANCH  11  12
HETATM   12  N2  UNL     1     -49.163  10.184  -2.638  1.00  0.00     0.084 N
HETATM   13  C21 UNL     1     -49.928  11.376  -2.768  1.00  0.00     0.309 C
BRANCH  12  14
HETATM   14  C22 UNL     1     -49.567   9.253  -3.680  1.00  0.00     0.267 C
HETATM   15  C23 UNL     1     -50.858   9.694  -4.343  1.00  0.00     0.037 C
ENDBRANCH  12  14
ENDBRANCH  11  12
ENDBRANCH  10  11
ENDBRANCH   1   5
BRANCH   2  16
HETATM   16  C5  UNL     1     -46.525  14.432  -6.462  1.00  0.00     0.172 C
HETATM   17  O1  UNL     1     -47.665  14.919  -6.576  1.00  0.00    -0.289 OA
BRANCH  16  18
HETATM   18  C6  UNL     1     -45.401  14.898  -7.306  1.00  0.00     0.057 C
HETATM   19  C7  UNL     1     -44.759  14.283  -8.230  1.00  0.00    -0.080 C
HETATM   20  C8  UNL     1     -43.648  15.110  -8.884  1.00  0.00     0.043 C
BRANCH  19  21
HETATM   21  C9  UNL     1     -44.976  12.916  -8.675  1.00  0.00     0.037 C
BRANCH  21  22
HETATM   22  C10 UNL     1     -45.751  12.873  -9.990  1.00  0.00     0.031 C
BRANCH  22  23
HETATM   23  C11 UNL     1     -46.999  12.094  -9.747  1.00  0.00    -0.024 C
HETATM   24  C12 UNL     1     -47.772  11.708 -10.757  1.00  0.00    -0.091 C
HETATM   25  C13 UNL     1     -47.359  12.075 -12.148  1.00  0.00     0.042 C
HETATM   26  C14 UNL     1     -49.000  10.941 -10.471  1.00  0.00     0.042 C
ENDBRANCH  22  23
ENDBRANCH  21  22
ENDBRANCH  19  21
ENDBRANCH  16  18
ENDBRANCH   2  16
TORSDOF 10
ENDMDL