MODEL 1
REMARK VINA RESULT: -7.016335913      0.000      0.000
REMARK  12 active torsions:
REMARK  status: ('A' for Active; 'I' for Inactive)
REMARK    1  A    between atoms: C2_2  and  C4_4
REMARK    2  A    between atoms: C4_4  and  O1_5
REMARK    3  A    between atoms: C4_4  and  C5_7
REMARK    4  A    between atoms: C5_7  and  C6_8
REMARK    5  A    between atoms: C6_8  and  C8_10
REMARK    6  A    between atoms: C8_10  and  C9_11
REMARK       I    between atoms: C9_11  and  N1_13
REMARK    7  A    between atoms: C14_18  and  C15_19
REMARK    8  A    between atoms: C15_19  and  C16_20
REMARK    9  A    between atoms: C18_22  and  C19_23
REMARK   10  A    between atoms: C19_23  and  C20_24
REMARK   11  A    between atoms: C20_24  and  C21_25
REMARK   12  A    between atoms: C21_25  and  C22_26
ROOT
HETATM    1  C9  UNL     1     -45.780  12.059  -4.185  1.00  0.00     0.220 C
HETATM    2  O2  UNL     1     -45.694  11.500  -3.022  1.00  0.00    -0.273 OA
HETATM    3  N1  UNL     1     -44.584  12.588  -4.716  1.00  0.00    -0.343 N
HETATM    4  C10 UNL     1     -43.294  12.535  -4.010  1.00  0.00     0.083 C
HETATM    5  C11 UNL     1     -43.090  11.274  -3.226  1.00  0.00     0.032 C
HETATM    6  C12 UNL     1     -42.325  12.567  -5.202  1.00  0.00     0.027 C
HETATM    7  C13 UNL     1     -42.936  13.691  -5.996  1.00  0.00     0.028 C
HETATM    8  C14 UNL     1     -44.406  13.226  -5.987  1.00  0.00     0.091 C
ENDROOT
BRANCH   1   9
HETATM    9  C8  UNL     1     -47.106  12.072  -4.809  1.00  0.00     0.107 C
BRANCH   9  10
HETATM   10  C6  UNL     1     -47.189  10.994  -5.925  1.00  0.00    -0.004 C
HETATM   11  C7  UNL     1     -48.044  11.577  -7.033  1.00  0.00     0.011 C
BRANCH  10  12
HETATM   12  C5  UNL     1     -47.874   9.794  -5.361  1.00  0.00     0.069 C
BRANCH  12  13
HETATM   13  C4  UNL     1     -48.613   9.954  -4.128  1.00  0.00     0.048 C
BRANCH  13  14
HETATM   14  C2  UNL     1     -49.902  10.436  -3.765  1.00  0.00    -0.042 C
HETATM   15  C1  UNL     1     -50.958   9.834  -4.360  1.00  0.00     0.021 C
HETATM   16  C3  UNL     1     -50.265  11.523  -2.834  1.00  0.00     0.050 C
ENDBRANCH  13  14
BRANCH  13  17
HETATM   17  O1  UNL     1     -47.906   9.545  -3.078  1.00  0.00    -0.364 OA
ATOM     18  H1  UNL     1     -47.620   8.643  -3.159  1.00  0.00     0.217 HD
ENDBRANCH  13  17
ENDBRANCH  12  13
ENDBRANCH  10  12
ENDBRANCH   9  10
ENDBRANCH   1   9
BRANCH   8  19
HETATM   19  C15 UNL     1     -45.306  14.370  -6.309  1.00  0.00     0.058 C
BRANCH  19  20
HETATM   20  C16 UNL     1     -45.671  14.378  -7.771  1.00  0.00    -0.086 C
HETATM   21  C17 UNL     1     -46.523  15.452  -8.327  1.00  0.00     0.043 C
HETATM   22  C18 UNL     1     -45.216  13.417  -8.543  1.00  0.00    -0.024 C
BRANCH  22  23
HETATM   23  C19 UNL     1     -45.542  13.363 -10.007  1.00  0.00     0.028 C
BRANCH  23  24
HETATM   24  C20 UNL     1     -46.404  12.198 -10.344  1.00  0.00     0.011 C
BRANCH  24  25
HETATM   25  C21 UNL     1     -47.031  12.246 -11.706  1.00  0.00     0.078 C
BRANCH  25  26
HETATM   26  C22 UNL     1     -48.031  11.193 -11.936  1.00  0.00     0.123 C
HETATM   27  C23 UNL     1     -48.995  10.941 -10.806  1.00  0.00     0.091 C
HETATM   28  O3  UNL     1     -48.150  10.518 -12.936  1.00  0.00    -0.298 OA
ENDBRANCH  25  26
ENDBRANCH  24  25
ENDBRANCH  23  24
ENDBRANCH  22  23
ENDBRANCH  19  20
ENDBRANCH   8  19
TORSDOF 12
ENDMDL