MODEL 5
REMARK VINA RESULT: -6.154506014      1.982      5.383
REMARK  11 active torsions:
REMARK  status: ('A' for Active; 'I' for Inactive)
REMARK    1  A    between atoms: C2_2  and  C3_3
REMARK    2  A    between atoms: C4_4  and  C5_5
REMARK    3  A    between atoms: C5_5  and  C6_6
REMARK    4  A    between atoms: C6_6  and  C7_7
REMARK    5  A    between atoms: C8_8  and  C9_9
REMARK    6  A    between atoms: C13_14  and  O2_15
REMARK    7  A    between atoms: O2_15  and  C14_16
REMARK    8  A    between atoms: C14_16  and  C15_17
REMARK    9  A    between atoms: C15_17  and  C16_18
REMARK   10  A    between atoms: C16_18  and  C17_19
REMARK   11  A    between atoms: C17_19  and  C18_20
ROOT
HETATM    1  C9  UNL     1     -46.217  13.370  -5.943  1.00  0.00     0.174 C
HETATM    2  O1  UNL     1     -45.737  13.646  -4.642  1.00  0.00    -0.371 OA
HETATM    3  C10 UNL     1     -44.360  13.830  -4.775  1.00  0.00     0.165 C
HETATM    4  C11 UNL     1     -43.795  12.447  -5.050  1.00  0.00     0.164 C
HETATM    5  C12 UNL     1     -44.167  12.118  -6.470  1.00  0.00     0.070 C
HETATM    6  C13 UNL     1     -45.703  12.062  -6.456  1.00  0.00     0.156 C
HETATM    7  O3  UNL     1     -42.445  12.638  -4.797  1.00  0.00    -0.313 OA
HETATM    8  C20 UNL     1     -42.424  13.348  -3.575  1.00  0.00     0.265 C
HETATM    9  O4  UNL     1     -41.529  13.294  -2.679  1.00  0.00    -0.265 OA
HETATM   10  C21 UNL     1     -43.653  14.191  -3.510  1.00  0.00     0.113 C
HETATM   11  C22 UNL     1     -43.303  15.662  -3.434  1.00  0.00     0.023 C
ENDROOT
BRANCH   1  12
HETATM   12  C8  UNL     1     -45.962  14.483  -6.859  1.00  0.00     0.015 C
HETATM   13  C7  UNL     1     -46.943  15.065  -7.616  1.00  0.00     0.054 C
BRANCH  13  14
HETATM   14  C6  UNL     1     -46.673  16.104  -8.459  1.00  0.00    -0.128 C
BRANCH  14  15
HETATM   15  C5  UNL     1     -46.425  17.057  -9.233  1.00  0.00     0.055 C
BRANCH  15  16
HETATM   16  C4  UNL     1     -45.250  17.902  -9.356  1.00  0.00     0.004 C
HETATM   17  C3  UNL     1     -45.287  19.198  -9.572  1.00  0.00    -0.026 C
BRANCH  17  18
HETATM   18  C2  UNL     1     -44.085  20.025  -9.691  1.00  0.00     0.022 C
HETATM   19  C1  UNL     1     -42.872  19.232  -9.328  1.00  0.00     0.009 C
ENDBRANCH  17  18
ENDBRANCH  15  16
ENDBRANCH  14  15
ENDBRANCH  13  14
ENDBRANCH   1  12
BRANCH   6  20
HETATM   20  O2  UNL     1     -46.242  11.798  -7.681  1.00  0.00    -0.383 OA
BRANCH  20  21
HETATM   21  C14 UNL     1     -45.297  11.671  -8.693  1.00  0.00     0.168 C
BRANCH  21  22
HETATM   22  C15 UNL     1     -45.591  12.611  -9.842  1.00  0.00     0.026 C
BRANCH  22  23
HETATM   23  C16 UNL     1     -46.964  12.379 -10.413  1.00  0.00     0.002 C
BRANCH  23  24
HETATM   24  C17 UNL     1     -47.007  12.163 -11.885  1.00  0.00    -0.000 C
BRANCH  24  25
HETATM   25  C18 UNL     1     -48.285  11.442 -12.232  1.00  0.00    -0.005 C
HETATM   26  C19 UNL     1     -49.011  10.860 -11.069  1.00  0.00     0.005 C
ENDBRANCH  24  25
ENDBRANCH  23  24
ENDBRANCH  22  23
ENDBRANCH  21  22
ENDBRANCH  20  21
ENDBRANCH   6  20
TORSDOF 11
ENDMDL