MODEL 1
REMARK VINA RESULT: -6.515984522      0.000      0.000
REMARK  2 active torsions:
REMARK  status: ('A' for Active; 'I' for Inactive)
REMARK    1  A    between atoms: O1_2  and  N1_3
REMARK    2  A    between atoms: N1_3  and  C2_5
ROOT
HETATM    1  C2  UNL     1      20.241 126.535  -9.162  1.00  0.00     0.196 C
HETATM    2  N2  UNL     1      21.137 125.717  -9.749  1.00  0.00    -0.324 N
ATOM      3  H2  UNL     1      21.606 126.122 -10.560  1.00  0.00     0.169 HD
HETATM    4  C3  UNL     1      21.525 124.456  -9.455  1.00  0.00     0.144 C
HETATM    5  N3  UNL     1      22.616 123.892 -10.148  1.00  0.00    -0.081 NA
HETATM    6  C4  UNL     1      20.934 123.645  -8.510  1.00  0.00     0.153 C
HETATM    7  C5  UNL     1      21.315 122.269  -8.618  1.00  0.00     0.108 C
HETATM    8  N4  UNL     1      21.627 121.156  -8.700  1.00  0.00    -0.191 NA
HETATM    9  C6  UNL     1      20.037 123.952  -7.483  1.00  0.00     0.272 C
HETATM   10  O2  UNL     1      19.900 123.059  -6.600  1.00  0.00    -0.266 OA
HETATM   11  N5  UNL     1      19.328 125.088  -7.364  1.00  0.00    -0.286 N
ATOM     12  H5  UNL     1      18.696 125.142  -6.564  1.00  0.00     0.172 HD
HETATM   13  C7  UNL     1      19.352 126.162  -8.174  1.00  0.00     0.294 C
HETATM   14  O3  UNL     1      18.408 126.977  -8.018  1.00  0.00    -0.264 OA
ENDROOT
BRANCH   1  15
HETATM   15  N1  UNL     1      20.236 127.759  -9.575  1.00  0.00    -0.246 N
ATOM     16  H1  UNL     1      19.600 128.028 -10.326  1.00  0.00     0.196 HD
BRANCH  15  17
HETATM   17  O1  UNL     1      21.054 128.695  -9.035  1.00  0.00    -0.284 OA
HETATM   18  C1  UNL     1      20.632 129.769  -8.243  1.00  0.00     0.237 C
ENDBRANCH  15  17
ENDBRANCH   1  15
TORSDOF 2
ENDMDL