MODEL 5
REMARK VINA RESULT: -5.660557164      2.269      4.264
REMARK  2 active torsions:
REMARK  status: ('A' for Active; 'I' for Inactive)
REMARK    1  A    between atoms: O1_2  and  C2_3
REMARK    2  A    between atoms: C2_3  and  C3_5
ROOT
HETATM    1  C3  UNL     1      19.978 126.109  -8.148  1.00  0.00     0.106 A
HETATM    2  C4  UNL     1      20.851 126.941  -8.808  1.00  0.00     0.137 A
HETATM    3  N1  UNL     1      20.470 128.277  -9.104  1.00  0.00    -0.081 NA
HETATM    4  N2  UNL     1      22.086 126.493  -9.185  1.00  0.00    -0.309 N
ATOM      5  H2  UNL     1      22.717 127.128  -9.674  1.00  0.00     0.170 HD
HETATM    6  C5  UNL     1      22.491 125.233  -8.926  1.00  0.00     0.273 A
HETATM    7  O3  UNL     1      23.640 124.875  -9.296  1.00  0.00    -0.266 OA
HETATM    8  C6  UNL     1      21.649 124.362  -8.265  1.00  0.00     0.139 A
HETATM    9  N3  UNL     1      22.091 123.049  -8.003  1.00  0.00    -0.094 NA
HETATM   10  C7  UNL     1      20.386 124.824  -7.881  1.00  0.00     0.095 A
HETATM   11  N4  UNL     1      19.507 123.938  -7.199  1.00  0.00    -0.099 NA
ENDROOT
BRANCH   1  12
HETATM   12  C2  UNL     1      18.675 126.634  -7.769  1.00  0.00     0.298 C
HETATM   13  O2  UNL     1      17.660 126.518  -8.522  1.00  0.00    -0.259 OA
BRANCH  12  14
HETATM   14  O1  UNL     1      18.466 127.289  -6.567  1.00  0.00    -0.322 OA
HETATM   15  C1  UNL     1      17.949 128.590  -6.455  1.00  0.00     0.213 C
ENDBRANCH  12  14
ENDBRANCH   1  12
TORSDOF 2
ENDMDL