MODEL 1
REMARK VINA RESULT: -6.266125208      0.000      0.000
REMARK  3 active torsions:
REMARK  status: ('A' for Active; 'I' for Inactive)
REMARK    1  A    between atoms: C3_4  and  N2_5
REMARK    2  A    between atoms: N2_5  and  N3_6
REMARK    3  A    between atoms: N2_5  and  N4_9
ROOT
HETATM    1  N1  UNL     1      22.081 120.389  -7.474  1.00  0.00    -0.191 NA
HETATM    2  C1  UNL     1      21.656 121.428  -7.787  1.00  0.00     0.109 C
HETATM    3  C2  UNL     1      21.112 122.714  -8.161  1.00  0.00     0.159 A
HETATM    4  C3  UNL     1      21.480 123.255  -9.374  1.00  0.00     0.173 A
HETATM    5  N5  UNL     1      20.978 124.470  -9.733  1.00  0.00    -0.315 N
ATOM      6  H5  UNL     1      21.236 124.887 -10.627  1.00  0.00     0.170 HD
HETATM    7  C4  UNL     1      20.138 125.116  -8.901  1.00  0.00     0.180 A
HETATM    8  S1  UNL     1      19.530 126.581  -9.330  1.00  0.00    -0.040 SA
HETATM    9  N6  UNL     1      19.767 124.607  -7.713  1.00  0.00    -0.299 N
ATOM     10  H6  UNL     1      19.128 125.125  -7.109  1.00  0.00     0.171 HD
HETATM   11  C5  UNL     1      20.242 123.411  -7.327  1.00  0.00     0.272 A
HETATM   12  O1  UNL     1      19.906 122.916  -6.218  1.00  0.00    -0.266 OA
ENDROOT
BRANCH   4  13
HETATM   13  N2  UNL     1      22.386 122.565 -10.242  1.00  0.00    -0.191 N
BRANCH  13  14
HETATM   14  N3  UNL     1      21.895 121.523 -11.070  1.00  0.00    -0.323 N
ATOM     15  H32 UNL     1      22.311 120.592 -11.027  1.00  0.00     0.179 HD
ATOM     16  H31 UNL     1      21.123 121.715 -11.708  1.00  0.00     0.179 HD
ENDBRANCH  13  14
BRANCH  13  17
HETATM   17  N4  UNL     1      23.733 122.911 -10.273  1.00  0.00    -0.323 N
ATOM     18  H42 UNL     1      24.274 122.954  -9.409  1.00  0.00     0.179 HD
ATOM     19  H41 UNL     1      24.192 123.123 -11.159  1.00  0.00     0.179 HD
ENDBRANCH  13  17
ENDBRANCH   4  13
TORSDOF 3
ENDMDL