MODEL 4
REMARK VINA RESULT: -7.015741711      2.016      2.653
REMARK  4 active torsions:
REMARK  status: ('A' for Active; 'I' for Inactive)
REMARK    1  A    between atoms: N1_1  and  N2_4
REMARK    2  A    between atoms: C1_6  and  O1_7
REMARK    3  A    between atoms: C1_6  and  N3_9
REMARK    4  A    between atoms: N4_11  and  C2_13
ROOT
HETATM    1  N3  UNL     1      21.345 127.547  -8.994  1.00  0.00    -0.263 N
ATOM      2  H3  UNL     1      21.360 128.356  -9.614  1.00  0.00     0.190 HD
HETATM    3  N4  UNL     1      21.328 126.423  -9.541  1.00  0.00    -0.290 N
ATOM      4  H4  UNL     1      21.332 126.412 -10.561  1.00  0.00     0.187 HD
ENDROOT
BRANCH   3   5
HETATM    5  C2  UNL     1      21.305 125.177  -8.897  1.00  0.00     0.158 A
HETATM    6  C3  UNL     1      22.446 124.404  -8.834  1.00  0.00     0.154 A
HETATM    7  N5  UNL     1      23.684 124.836  -9.414  1.00  0.00    -0.080 NA
HETATM    8  N6  UNL     1      22.378 123.223  -8.211  1.00  0.00    -0.295 N
HETATM    9  C4  UNL     1      21.233 122.792  -7.659  1.00  0.00     0.328 A
ATOM     10  H6  UNL     1      23.212 122.639  -8.154  1.00  0.00     0.172 HD
HETATM   11  O2  UNL     1      21.196 121.663  -7.072  1.00  0.00    -0.247 OA
HETATM   12  N7  UNL     1      20.086 123.515  -7.696  1.00  0.00    -0.273 N
HETATM   13  C5  UNL     1      20.141 124.710  -8.321  1.00  0.00     0.281 A
ATOM     14  H7  UNL     1      19.224 123.173  -7.272  1.00  0.00     0.173 HD
HETATM   15  O3  UNL     1      19.097 125.417  -8.378  1.00  0.00    -0.265 OA
ENDBRANCH   3   5
BRANCH   1  16
HETATM   16  C1  UNL     1      21.345 127.812  -7.620  1.00  0.00     0.250 C
HETATM   17  N2  UNL     1      22.498 128.100  -7.068  1.00  0.00    -0.271 N
ATOM     18  H2  UNL     1      23.327 128.117  -7.660  1.00  0.00     0.190 HD
BRANCH  17  19
HETATM   19  N1  UNL     1      22.644 128.381  -5.728  1.00  0.00    -0.342 N
ATOM     20  H12 UNL     1      22.406 129.323  -5.419  1.00  0.00     0.176 HD
ATOM     21  H11 UNL     1      22.975 127.699  -5.046  1.00  0.00     0.176 HD
ENDBRANCH  17  19
BRANCH  16  22
HETATM   22  O1  UNL     1      20.228 127.794  -6.803  1.00  0.00    -0.330 OA
ATOM     23  H1  UNL     1      19.375 127.807  -7.222  1.00  0.00     0.221 HD
ENDBRANCH  16  22
ENDBRANCH   1  16
TORSDOF 4
ENDMDL