MODEL 4
REMARK VINA RESULT: -6.174896801      1.786      3.421
REMARK  4 active torsions:
REMARK  status: ('A' for Active; 'I' for Inactive)
REMARK    1  A    between atoms: C3_4  and  N2_5
REMARK    2  A    between atoms: C4_10  and  N4_11
REMARK    3  A    between atoms: C5_16  and  N6_17
REMARK    4  A    between atoms: N6_17  and  N7_19
ROOT
HETATM    1  N1  UNL     1      21.512 127.038  -7.585  1.00  0.00    -0.191 NA
HETATM    2  C1  UNL     1      21.548 126.012  -8.158  1.00  0.00     0.107 C
HETATM    3  C2  UNL     1      21.614 124.769  -8.877  1.00  0.00     0.141 A
HETATM    4  C3  UNL     1      20.781 123.739  -8.509  1.00  0.00     0.212 A
HETATM    5  N3  UNL     1      20.889 122.582  -9.228  1.00  0.00    -0.169 N
ATOM      6  H3  UNL     1      20.286 121.799  -8.980  1.00  0.00     0.186 HD
HETATM    7  C4  UNL     1      21.749 122.427 -10.244  1.00  0.00     0.679 A
HETATM    8  N5  UNL     1      22.551 123.453 -10.580  1.00  0.00    -0.174 N
ATOM      9  H5  UNL     1      23.207 123.337 -11.353  1.00  0.00     0.186 HD
HETATM   10  C5  UNL     1      22.513 124.609  -9.938  1.00  0.00     0.160 A
ENDROOT
BRANCH   4  11
HETATM   11  N2  UNL     1      19.845 123.820  -7.451  1.00  0.00    -0.096 N
HETATM   12  O1  UNL     1      19.972 123.197  -6.404  1.00  0.00    -0.530 OA
HETATM   13  O2  UNL     1      18.750 124.629  -7.598  1.00  0.00    -0.530 OA
ENDBRANCH   4  11
BRANCH  10  14
HETATM   14  N6  UNL     1      23.247 125.626 -10.206  1.00  0.00    -0.290 N
ATOM     15  H6  UNL     1      22.771 126.519 -10.328  1.00  0.00     0.188 HD
BRANCH  14  16
HETATM   16  N7  UNL     1      24.614 125.626 -10.344  1.00  0.00    -0.344 N
ATOM     17  H72 UNL     1      25.110 124.886  -9.847  1.00  0.00     0.176 HD
ATOM     18  H71 UNL     1      25.164 126.289 -10.890  1.00  0.00     0.176 HD
ENDBRANCH  14  16
ENDBRANCH  10  14
BRANCH   7  19
HETATM   19  N4  UNL     1      21.785 121.300 -10.869  1.00  0.00    -0.234 N
ATOM     20  H42 UNL     1      20.945 120.869 -11.254  1.00  0.00     0.174 HD
ATOM     21  H41 UNL     1      22.680 120.825 -10.983  1.00  0.00     0.174 HD
ENDBRANCH   7  19
TORSDOF 4
ENDMDL