MODEL 2
REMARK VINA RESULT: -6.979490963      1.261      3.840
REMARK  2 active torsions:
REMARK  status: ('A' for Active; 'I' for Inactive)
REMARK    1  A    between atoms: N1_1  and  C1_4
REMARK    2  A    between atoms: C2_5  and  N2_6
ROOT
HETATM    1  C1  UNL     1      22.746 123.685  -9.429  1.00  0.00     0.131 C
HETATM    2  C2  UNL     1      21.707 123.227  -8.629  1.00  0.00     0.175 C
HETATM    3  C3  UNL     1      20.767 123.991  -7.960  1.00  0.00     0.156 C
HETATM    4  N3  UNL     1      20.079 123.286  -6.944  1.00  0.00    -0.080 NA
HETATM    5  N4  UNL     1      20.436 125.293  -8.153  1.00  0.00    -0.295 N
ATOM      6  H4  UNL     1      19.575 125.604  -7.702  1.00  0.00     0.172 HD
HETATM    7  C4  UNL     1      21.100 126.233  -8.867  1.00  0.00     0.328 C
HETATM    8  O3  UNL     1      20.461 127.284  -9.123  1.00  0.00    -0.247 OA
HETATM    9  N5  UNL     1      22.373 126.123  -9.315  1.00  0.00    -0.274 N
ATOM     10  H5  UNL     1      22.852 127.012  -9.459  1.00  0.00     0.173 HD
HETATM   11  C5  UNL     1      23.123 125.014  -9.608  1.00  0.00     0.278 C
HETATM   12  O4  UNL     1      24.245 125.200 -10.076  1.00  0.00    -0.265 OA
ENDROOT
BRANCH   1  13
HETATM   13  N1  UNL     1      23.414 122.809 -10.084  1.00  0.00    -0.393 N
ATOM     14  H12 UNL     1      24.032 123.161 -10.815  1.00  0.00     0.156 HD
ATOM     15  H11 UNL     1      23.269 121.830  -9.838  1.00  0.00     0.156 HD
ENDBRANCH   1  13
BRANCH   2  16
HETATM   16  N2  UNL     1      21.561 121.829  -8.458  1.00  0.00    -0.110 N
HETATM   17  O1  UNL     1      21.955 121.209  -7.475  1.00  0.00    -0.532 OA
HETATM   18  O2  UNL     1      20.938 121.145  -9.471  1.00  0.00    -0.532 OA
ENDBRANCH   2  16
TORSDOF 2
ENDMDL