MODEL 1
REMARK VINA RESULT: -6.964024779      0.000      0.000
REMARK  3 active torsions:
REMARK  status: ('A' for Active; 'I' for Inactive)
REMARK    1  A    between atoms: C3_5  and  N2_6
REMARK    2  A    between atoms: N2_6  and  N3_8
REMARK       I    between atoms: N3_8  and  C4_10
REMARK    3  A    between atoms: C5_17  and  O1_18
ROOT
HETATM    1  N1  UNL     1      21.705 120.781  -8.306  1.00  0.00    -0.191 NA
HETATM    2  C1  UNL     1      21.819 121.904  -8.552  1.00  0.00     0.111 C
HETATM    3  C2  UNL     1      21.944 123.328  -8.848  1.00  0.00     0.139 A
HETATM    4  S1  UNL     1      20.986 124.637  -8.324  1.00  0.00    -0.037 SA
HETATM    5  C3  UNL     1      21.819 125.896  -9.124  1.00  0.00     0.166 A
HETATM    6  N6  UNL     1      22.799 125.248  -9.758  1.00  0.00    -0.315 N
ATOM      7  H6  UNL     1      23.474 125.754 -10.332  1.00  0.00     0.170 HD
HETATM    8  C5  UNL     1      22.874 123.951  -9.627  1.00  0.00     0.170 A
ENDROOT
BRANCH   8   9
HETATM    9  O1  UNL     1      23.884 123.174 -10.265  1.00  0.00    -0.344 OA
ATOM     10  H1  UNL     1      24.570 123.614 -10.754  1.00  0.00     0.219 HD
ENDBRANCH   8   9
BRANCH   5  11
HETATM   11  N2  UNL     1      21.577 127.191  -9.130  1.00  0.00    -0.277 N
ATOM     12  H2  UNL     1      21.225 127.677  -9.955  1.00  0.00     0.189 HD
BRANCH  11  13
HETATM   13  N3  UNL     1      21.839 127.859  -7.919  1.00  0.00    -0.272 N
HETATM   14  C4  UNL     1      21.174 129.036  -7.529  1.00  0.00     0.200 C
HETATM   15  N4  UNL     1      20.506 129.058  -6.443  1.00  0.00    -0.372 N
HETATM   16  N5  UNL     1      21.250 130.182  -8.341  1.00  0.00    -0.062 NA
ATOM     17  H42 UNL     1      20.451 128.227  -5.854  1.00  0.00     0.158 HD
ATOM     18  H41 UNL     1      20.024 129.912  -6.161  1.00  0.00     0.158 HD
ATOM     19  H3  UNL     1      22.546 127.471  -7.294  1.00  0.00     0.189 HD
ENDBRANCH  11  13
ENDBRANCH   5  11
TORSDOF 3
ENDMDL