MODEL 2
REMARK VINA RESULT: -6.306577402      2.311      4.213
REMARK  4 active torsions:
REMARK  status: ('A' for Active; 'I' for Inactive)
REMARK    1  A    between atoms: N1_2  and  C2_4
REMARK    2  A    between atoms: C3_7  and  N3_8
REMARK    3  A    between atoms: N3_8  and  N4_10
REMARK    4  A    between atoms: C5_17  and  N7_18
ROOT
HETATM    1  C2  UNL     1      22.305 124.543  -8.993  1.00  0.00     0.153 A
HETATM    2  N2  UNL     1      22.330 125.876  -9.164  1.00  0.00    -0.173 N
ATOM      3  H2  UNL     1      23.111 126.313  -9.654  1.00  0.00     0.186 HD
HETATM    4  C3  UNL     1      21.327 126.634  -8.691  1.00  0.00     0.699 A
HETATM    5  N5  UNL     1      20.319 126.030  -8.054  1.00  0.00    -0.175 N
ATOM      6  H5  UNL     1      19.559 126.610  -7.697  1.00  0.00     0.185 HD
HETATM    7  C4  UNL     1      20.248 124.706  -7.858  1.00  0.00     0.168 A
HETATM    8  N6  UNL     1      19.161 124.087  -7.176  1.00  0.00    -0.079 NA
HETATM    9  C5  UNL     1      21.258 123.891  -8.329  1.00  0.00     0.188 A
ENDROOT
BRANCH   4  10
HETATM   10  N3  UNL     1      21.359 127.929  -8.863  1.00  0.00    -0.138 N
ATOM     11  H3  UNL     1      21.162 128.330  -9.780  1.00  0.00     0.205 HD
BRANCH  10  12
HETATM   12  N4  UNL     1      21.663 128.759  -7.786  1.00  0.00    -0.331 N
ATOM     13  H42 UNL     1      22.587 128.701  -7.357  1.00  0.00     0.177 HD
ATOM     14  H41 UNL     1      20.960 129.412  -7.439  1.00  0.00     0.177 HD
ENDBRANCH  10  12
ENDBRANCH   4  10
BRANCH   1  15
HETATM   15  N1  UNL     1      23.244 123.761  -9.427  1.00  0.00    -0.378 N
HETATM   16  C1  UNL     1      23.344 123.588 -10.881  1.00  0.00     0.147 C
ATOM     17  H1  UNL     1      23.883 123.289  -8.789  1.00  0.00     0.160 HD
ENDBRANCH   1  15
BRANCH   9  18
HETATM   18  N7  UNL     1      21.253 122.485  -8.159  1.00  0.00    -0.108 N
HETATM   19  O1  UNL     1      21.711 121.932  -7.154  1.00  0.00    -0.532 OA
HETATM   20  O2  UNL     1      20.721 121.711  -9.150  1.00  0.00    -0.532 OA
ENDBRANCH   9  18
TORSDOF 4
ENDMDL