MODEL 1
REMARK VINA RESULT: -6.561823045      0.000      0.000
REMARK  2 active torsions:
REMARK  status: ('A' for Active; 'I' for Inactive)
REMARK    1  A    between atoms: N1_1  and  C1_4
REMARK    2  A    between atoms: C5_15  and  N5_16
ROOT
HETATM    1  C1  UNL     1      21.628 125.780  -8.139  1.00  0.00     0.138 C
HETATM    2  N2  UNL     1      20.310 125.966  -7.866  1.00  0.00    -0.293 N
ATOM      3  H2  UNL     1      19.992 126.931  -7.771  1.00  0.00     0.172 HD
HETATM    4  C2  UNL     1      19.383 125.005  -7.710  1.00  0.00     0.328 C
HETATM    5  O1  UNL     1      18.192 125.382  -7.582  1.00  0.00    -0.247 OA
HETATM    6  N3  UNL     1      19.543 123.673  -7.668  1.00  0.00    -0.274 N
ATOM      7  H3  UNL     1      18.778 123.160  -7.229  1.00  0.00     0.173 HD
HETATM    8  C3  UNL     1      20.574 122.900  -8.123  1.00  0.00     0.276 C
HETATM    9  O2  UNL     1      20.507 121.672  -7.991  1.00  0.00    -0.266 OA
HETATM   10  C4  UNL     1      21.731 123.359  -8.742  1.00  0.00     0.151 C
HETATM   11  N4  UNL     1      22.442 122.416  -9.522  1.00  0.00    -0.094 NA
HETATM   12  C5  UNL     1      22.254 124.647  -8.670  1.00  0.00     0.176 C
ENDROOT
BRANCH   1  13
HETATM   13  N1  UNL     1      22.415 126.765  -7.879  1.00  0.00    -0.383 N
ATOM     14  H12 UNL     1      21.955 127.669  -7.773  1.00  0.00     0.157 HD
ATOM     15  H11 UNL     1      23.409 126.549  -7.807  1.00  0.00     0.157 HD
ENDBRANCH   1  13
BRANCH  12  16
HETATM   16  N5  UNL     1      23.548 124.825  -9.188  1.00  0.00    -0.110 N
HETATM   17  O3  UNL     1      23.769 125.074 -10.391  1.00  0.00    -0.532 OA
HETATM   18  O4  UNL     1      24.634 124.725  -8.351  1.00  0.00    -0.532 OA
ENDBRANCH  12  16
TORSDOF 2
ENDMDL