MODEL 1
REMARK VINA RESULT: -6.584863339      0.000      0.000
REMARK  3 active torsions:
REMARK  status: ('A' for Active; 'I' for Inactive)
REMARK    1  A    between atoms: N1_2  and  N2_4
REMARK    2  A    between atoms: N2_4  and  C2_6
REMARK    3  A    between atoms: C4_11  and  N5_12
ROOT
HETATM    1  C2  UNL     1      21.820 126.107  -8.343  1.00  0.00     0.700 A
HETATM    2  N3  UNL     1      22.721 125.437  -9.080  1.00  0.00    -0.175 N
ATOM      3  H3  UNL     1      23.514 125.943  -9.475  1.00  0.00     0.185 HD
HETATM    4  C3  UNL     1      22.604 124.108  -9.310  1.00  0.00     0.170 A
HETATM    5  N4  UNL     1      23.563 123.401 -10.093  1.00  0.00    -0.079 NA
HETATM    6  C4  UNL     1      21.553 123.370  -8.801  1.00  0.00     0.212 A
HETATM    7  C5  UNL     1      20.632 124.066  -8.045  1.00  0.00     0.296 A
HETATM    8  O3  UNL     1      19.663 123.411  -7.569  1.00  0.00    -0.265 OA
HETATM    9  N6  UNL     1      20.788 125.380  -7.842  1.00  0.00    -0.152 N
ATOM     10  H6  UNL     1      20.090 125.865  -7.278  1.00  0.00     0.187 HD
ENDROOT
BRANCH   1  11
HETATM   11  N2  UNL     1      21.863 127.347  -8.088  1.00  0.00    -0.137 N
ATOM     12  H2  UNL     1      22.129 127.938  -8.876  1.00  0.00     0.205 HD
BRANCH  11  13
HETATM   13  N1  UNL     1      21.611 128.017  -6.934  1.00  0.00    -0.327 N
HETATM   14  C1  UNL     1      22.702 128.633  -6.230  1.00  0.00     0.168 C
ATOM     15  H1  UNL     1      20.660 128.081  -6.572  1.00  0.00     0.180 HD
ENDBRANCH  11  13
ENDBRANCH   1  11
BRANCH   6  16
HETATM   16  N5  UNL     1      21.457 121.983  -9.059  1.00  0.00    -0.106 N
HETATM   17  O1  UNL     1      20.926 121.627 -10.122  1.00  0.00    -0.531 OA
HETATM   18  O2  UNL     1      21.910 121.005  -8.218  1.00  0.00    -0.531 OA
ENDBRANCH   6  16
TORSDOF 3
ENDMDL