MODEL 3
REMARK VINA RESULT: -3.979468656      7.363      7.918
REMARK  2 active torsions:
REMARK  status: ('A' for Active; 'I' for Inactive)
REMARK    1  A    between atoms: C2_2  and  N1_3
REMARK    2  A    between atoms: N2_5  and  N3_7
ROOT
HETATM    1  N1  UNL     1      59.457  69.136  37.570  1.00  0.00    -0.317 N
HETATM    2  C3  UNL     1      60.671  69.869  37.292  1.00  0.00     0.172 C
HETATM    3  N2  UNL     1      58.360  69.711  37.423  1.00  0.00    -0.231 N
ATOM      4  H2  UNL     1      57.522  69.170  37.638  1.00  0.00     0.209 HD
ENDROOT
BRANCH   3   5
HETATM    5  N3  UNL     1      58.175  71.006  36.999  1.00  0.00    -0.235 N
HETATM    6  N4  UNL     1      57.020  71.534  37.026  1.00  0.00    -0.330 N
ATOM      7  H42 UNL     1      56.235  70.980  37.369  1.00  0.00     0.178 HD
ATOM      8  H41 UNL     1      56.883  72.495  36.712  1.00  0.00     0.178 HD
ATOM      9  H3  UNL     1      58.971  71.546  36.659  1.00  0.00     0.209 HD
ENDBRANCH   3   5
BRANCH   1  10
HETATM   10  C2  UNL     1      59.460  67.770  38.022  1.00  0.00     0.139 C
HETATM   11  C1  UNL     1      58.128  67.294  38.540  1.00  0.00     0.028 C
ENDBRANCH   1  10
TORSDOF 2
ENDMDL