MODEL 1
REMARK VINA RESULT: -4.044755946      0.000      0.000
REMARK  2 active torsions:
REMARK  status: ('A' for Active; 'I' for Inactive)
REMARK    1  A    between atoms: N1_2  and  N2_4
REMARK    2  A    between atoms: C2_6  and  N3_7
ROOT
HETATM    1  N2  UNL     1      52.352  73.973  39.474  1.00  0.00    -0.300 N
ATOM      2  H2  UNL     1      52.367  74.196  40.470  1.00  0.00     0.187 HD
HETATM    3  C2  UNL     1      52.418  74.922  38.602  1.00  0.00     0.212 C
ENDROOT
BRANCH   3   4
HETATM    4  N3  UNL     1      52.512  76.292  38.965  1.00  0.00    -0.301 N
HETATM    5  N4  UNL     1      52.211  77.223  38.172  1.00  0.00    -0.344 N
ATOM      6  H42 UNL     1      51.890  76.967  37.239  1.00  0.00     0.176 HD
ATOM      7  H41 UNL     1      52.278  78.208  38.433  1.00  0.00     0.176 HD
ATOM      8  H3  UNL     1      52.836  76.531  39.902  1.00  0.00     0.187 HD
ENDBRANCH   3   4
BRANCH   1   9
HETATM    9  N1  UNL     1      52.260  72.644  39.061  1.00  0.00    -0.340 N
HETATM   10  C1  UNL     1      51.790  71.599  39.945  1.00  0.00     0.167 C
ATOM     11  H1  UNL     1      52.533  72.402  38.109  1.00  0.00     0.179 HD
ENDBRANCH   1   9
TORSDOF 2
ENDMDL