MODEL 3
REMARK VINA RESULT: -3.451257200      1.109      1.359
REMARK  2 active torsions:
REMARK  status: ('A' for Active; 'I' for Inactive)
REMARK    1  A    between atoms: C4_5  and  N2_6
REMARK    2  A    between atoms: N2_6  and  C5_8
ROOT
HETATM    1  N2  UNL     1      56.711  72.091  36.151  1.00  0.00    -0.357 N
ATOM      2  H2  UNL     1      55.732  72.197  36.415  1.00  0.00     0.162 HD
ENDROOT
BRANCH   1   3
HETATM    3  C4  UNL     1      57.135  72.428  34.820  1.00  0.00     0.315 A
HETATM    4  N1  UNL     1      56.862  73.804  34.445  1.00  0.00    -0.049 N
HETATM    5  C1  UNL     1      57.839  74.544  33.695  1.00  0.00     0.274 C
HETATM    6  C2  UNL     1      55.949  74.560  35.296  1.00  0.00     0.274 C
HETATM    7  C3  UNL     1      56.217  72.644  33.723  1.00  0.00     0.293 A
ENDBRANCH   1   3
BRANCH   1   8
HETATM    8  C5  UNL     1      57.644  71.613  37.091  1.00  0.00     0.170 C
HETATM    9  N3  UNL     1      58.622  72.326  37.543  1.00  0.00    -0.395 N
ATOM     10  H32 UNL     1      58.708  73.280  37.192  1.00  0.00     0.156 HD
ATOM     11  H31 UNL     1      59.298  71.980  38.223  1.00  0.00     0.156 HD
ENDBRANCH   1   8
TORSDOF 2
ENDMDL