MODEL 3
REMARK VINA RESULT: -3.909690296      1.671      3.882
REMARK  2 active torsions:
REMARK  status: ('A' for Active; 'I' for Inactive)
REMARK    1  A    between atoms: C2_2  and  N1_3
REMARK    2  A    between atoms: N1_3  and  N2_5
ROOT
HETATM    1  N2  UNL     1      60.278  69.687  37.510  1.00  0.00    -0.288 N
ATOM      2  H2  UNL     1      61.263  69.861  37.708  1.00  0.00     0.188 HD
HETATM    3  C3  UNL     1      59.542  70.693  37.296  1.00  0.00     0.110 A
HETATM    4  C4  UNL     1      58.296  71.401  36.992  1.00  0.00     0.198 A
HETATM    5  N3  UNL     1      59.526  72.177  37.209  1.00  0.00    -0.370 N
ATOM      6  H3  UNL     1      60.010  73.074  37.261  1.00  0.00     0.161 HD
ENDROOT
BRANCH   1   7
HETATM    7  N1  UNL     1      59.857  68.378  37.495  1.00  0.00    -0.311 N
ATOM      8  H1  UNL     1      60.428  67.598  37.171  1.00  0.00     0.186 HD
BRANCH   7   9
HETATM    9  C2  UNL     1      58.527  68.242  37.987  1.00  0.00     0.097 C
HETATM   10  C1  UNL     1      58.189  67.140  38.643  1.00  0.00     0.031 C
ENDBRANCH   7   9
ENDBRANCH   1   7
TORSDOF 2
ENDMDL