MODEL 4
REMARK VINA RESULT: -4.033013305      7.642      8.286
REMARK  3 active torsions:
REMARK  status: ('A' for Active; 'I' for Inactive)
REMARK    1  A    between atoms: C2_2  and  C3_3
REMARK    2  A    between atoms: C3_3  and  C4_4
REMARK    3  A    between atoms: N1_5  and  N2_7
ROOT
HETATM    1  C4  UNL     1      60.548  69.807  37.273  1.00  0.00     0.162 C
HETATM    2  N1  UNL     1      60.671  71.071  37.722  1.00  0.00    -0.309 N
ATOM      3  H1  UNL     1      61.254  71.339  38.514  1.00  0.00     0.186 HD
ENDROOT
BRANCH   2   4
HETATM    4  N2  UNL     1      59.935  71.941  37.005  1.00  0.00    -0.341 N
HETATM    5  C5  UNL     1      58.481  72.027  37.022  1.00  0.00     0.167 C
ATOM      6  H2  UNL     1      60.437  72.592  36.400  1.00  0.00     0.179 HD
ENDBRANCH   2   4
BRANCH   1   7
HETATM    7  C3  UNL     1      60.061  68.720  37.657  1.00  0.00    -0.111 C
BRANCH   7   8
HETATM    8  C2  UNL     1      59.560  67.600  38.054  1.00  0.00     0.047 C
HETATM    9  C1  UNL     1      58.217  67.510  38.355  1.00  0.00     0.020 C
ENDBRANCH   7   8
ENDBRANCH   1   7
TORSDOF 3
ENDMDL