MODEL 5
REMARK VINA RESULT: -3.069973733      1.334      2.367
REMARK  2 active torsions:
REMARK  status: ('A' for Active; 'I' for Inactive)
REMARK    1  A    between atoms: C2_2  and  N1_3
REMARK    2  A    between atoms: N1_3  and  N2_4
ROOT
HETATM    1  N1  UNL     1      56.507  72.974  35.156  1.00  0.00     0.011 N
HETATM    2  C4  UNL     1      56.156  72.454  33.855  1.00  0.00     0.294 A
HETATM    3  C5  UNL     1      57.247  73.481  33.963  1.00  0.00     0.294 A
ENDROOT
BRANCH   1   4
HETATM    4  C2  UNL     1      57.298  72.177  36.063  1.00  0.00     0.260 C
HETATM    5  C1  UNL     1      58.620  72.779  36.403  1.00  0.00     0.037 C
ENDBRANCH   1   4
BRANCH   1   6
HETATM    6  N2  UNL     1      55.673  73.932  35.718  1.00  0.00    -0.257 N
HETATM    7  C3  UNL     1      55.891  75.257  35.270  1.00  0.00     0.175 C
ATOM      8  H2  UNL     1      54.956  73.698  36.404  1.00  0.00     0.186 HD
ENDBRANCH   1   6
TORSDOF 2
ENDMDL