MODEL 3
REMARK VINA RESULT: -2.912941886      0.984      1.696
REMARK  3 active torsions:
REMARK  status: ('A' for Active; 'I' for Inactive)
REMARK    1  A    between atoms: N1_2  and  C4_5
REMARK    2  A    between atoms: C4_5  and  N2_6
REMARK    3  A    between atoms: N2_6  and  N3_7
ROOT
HETATM    1  C4  UNL     1      57.408  72.395  35.879  1.00  0.00     0.369 C
ENDROOT
BRANCH   1   2
HETATM    2  N1  UNL     1      56.277  72.947  35.165  1.00  0.00    -0.064 N
HETATM    3  C1  UNL     1      56.483  74.353  34.909  1.00  0.00     0.273 C
HETATM    4  C2  UNL     1      56.118  72.316  33.854  1.00  0.00     0.273 C
HETATM    5  C3  UNL     1      55.046  72.689  35.881  1.00  0.00     0.273 C
ENDBRANCH   1   2
BRANCH   1   6
HETATM    6  N2  UNL     1      56.994  71.499  36.957  1.00  0.00    -0.120 NA
BRANCH   6   7
HETATM    7  N3  UNL     1      57.986  70.529  37.205  1.00  0.00    -0.347 N
ATOM      8  H32 UNL     1      58.423  69.964  36.477  1.00  0.00     0.172 HD
ATOM      9  H31 UNL     1      58.198  70.479  38.201  1.00  0.00     0.172 HD
ENDBRANCH   6   7
ENDBRANCH   1   6
TORSDOF 3
ENDMDL