MODEL 5
REMARK VINA RESULT: -3.645182355      4.343      5.462
REMARK  3 active torsions:
REMARK  status: ('A' for Active; 'I' for Inactive)
REMARK    1  A    between atoms: C2_2  and  C3_3
REMARK    2  A    between atoms: C3_3  and  N1_4
REMARK    3  A    between atoms: N1_4  and  C4_6
ROOT
HETATM    1  N1  UNL     1      56.802  71.963  36.243  1.00  0.00    -0.383 N
ATOM      2  H1  UNL     1      55.809  71.752  36.147  1.00  0.00     0.160 HD
ENDROOT
BRANCH   1   3
HETATM    3  C3  UNL     1      57.626  71.268  37.213  1.00  0.00     0.147 C
BRANCH   3   4
HETATM    4  C2  UNL     1      59.017  71.740  37.022  1.00  0.00    -0.018 C
HETATM    5  C1  UNL     1      60.086  71.034  37.262  1.00  0.00     0.008 C
ENDBRANCH   3   4
ENDBRANCH   1   3
BRANCH   1   6
HETATM    6  C4  UNL     1      57.420  72.942  35.435  1.00  0.00     0.171 C
HETATM    7  N2  UNL     1      57.056  73.073  34.182  1.00  0.00    -0.391 N
HETATM    8  C5  UNL     1      56.029  72.209  33.665  1.00  0.00     0.147 C
ATOM      9  H2  UNL     1      57.493  73.775  33.585  1.00  0.00     0.159 HD
ENDBRANCH   1   6
TORSDOF 3
ENDMDL