MODEL 5
REMARK VINA RESULT: -8.501342778      0.993      1.699
REMARK  19 active torsions:
REMARK  status: ('A' for Active; 'I' for Inactive)
REMARK    1  A    between atoms: N1_1  and  C1_4
REMARK    2  A    between atoms: N3_8  and  C3_10
REMARK    3  A    between atoms: C3_10  and  C4_11
REMARK    4  A    between atoms: C4_11  and  O1_12
REMARK    5  A    between atoms: C6_17  and  C7_18
REMARK       I    between atoms: C7_18  and  N5_20
REMARK    6  A    between atoms: N5_20  and  C8_22
REMARK    7  A    between atoms: C8_22  and  C9_23
REMARK    8  A    between atoms: C8_22  and  C20_36
REMARK    9  A    between atoms: C9_23  and  C10_24
REMARK   10  A    between atoms: C10_24  and  C11_25
REMARK   11  A    between atoms: C11_25  and  C12_26
REMARK   12  A    between atoms: C12_26  and  N6_27
REMARK   13  A    between atoms: N6_27  and  C13_29
REMARK   14  A    between atoms: C13_29  and  C14_30
REMARK   15  A    between atoms: C20_36  and  O3_37
REMARK   16  A    between atoms: C20_36  and  N7_39
REMARK   17  A    between atoms: C25_44  and  C26_45
REMARK   18  A    between atoms: C26_45  and  N8_46
REMARK   19  A    between atoms: C26_45  and  C27_50
ROOT
HETATM    1  C8  UNL     1     -14.240   0.587  13.072  1.00  0.00     0.159 C
ENDROOT
BRANCH   1   2
HETATM    2  N5  UNL     1     -13.802  -0.477  13.974  1.00  0.00    -0.345 N
HETATM    3  C7  UNL     1     -14.600  -0.958  15.024  1.00  0.00     0.257 C
HETATM    4  O2  UNL     1     -15.723  -0.486  15.237  1.00  0.00    -0.267 OA
ATOM      5  H5  UNL     1     -12.879  -0.888  13.834  1.00  0.00     0.163 HD
BRANCH   3   6
HETATM    6  C6  UNL     1     -14.122  -2.045  15.906  1.00  0.00     0.091 A
HETATM    7  C1  UNL     1     -14.561  -3.347  15.780  1.00  0.00     0.132 A
HETATM    8  N2  UNL     1     -14.055  -4.314  16.602  1.00  0.00    -0.176 N
HETATM    9  C2  UNL     1     -13.135  -4.069  17.545  1.00  0.00     0.679 A
ATOM     10  H2  UNL     1     -14.393  -5.270  16.492  1.00  0.00     0.186 HD
HETATM   11  N3  UNL     1     -12.612  -4.960  18.309  1.00  0.00    -0.224 N
HETATM   12  N4  UNL     1     -12.704  -2.775  17.666  1.00  0.00    -0.201 N
ATOM     13  H3  UNL     1     -11.918  -4.684  19.003  1.00  0.00     0.177 HD
HETATM   14  C5  UNL     1     -13.172  -1.797  16.883  1.00  0.00     0.127 A
ATOM     15  H4  UNL     1     -12.005  -2.551  18.374  1.00  0.00     0.183 HD
BRANCH   7  16
HETATM   16  N1  UNL     1     -15.448  -3.656  14.892  1.00  0.00    -0.384 N
ATOM     17  H12 UNL     1     -16.130  -2.966  14.579  1.00  0.00     0.157 HD
ATOM     18  H11 UNL     1     -15.467  -4.598  14.500  1.00  0.00     0.157 HD
ENDBRANCH   7  16
BRANCH  11  19
HETATM   19  C3  UNL     1     -12.990  -6.337  18.199  1.00  0.00     0.164 C
BRANCH  19  20
HETATM   20  C4  UNL     1     -14.039  -6.700  19.242  1.00  0.00     0.184 C
BRANCH  20  21
HETATM   21  O1  UNL     1     -15.289  -6.169  18.961  1.00  0.00    -0.399 OA
ATOM     22  H1  UNL     1     -15.717  -6.595  18.227  1.00  0.00     0.209 HD
ENDBRANCH  20  21
ENDBRANCH  19  20
ENDBRANCH  11  19
ENDBRANCH   3   6
ENDBRANCH   1   2
BRANCH   1  23
HETATM   23  C9  UNL     1     -13.932   0.138  11.675  1.00  0.00     0.034 C
BRANCH  23  24
HETATM   24  C10 UNL     1     -12.673  -0.708  11.565  1.00  0.00     0.004 C
BRANCH  24  25
HETATM   25  C11 UNL     1     -11.932  -0.165  10.338  1.00  0.00     0.019 C
BRANCH  25  26
HETATM   26  C12 UNL     1     -10.542  -0.699  10.309  1.00  0.00     0.113 C
BRANCH  26  27
HETATM   27  N6  UNL     1     -10.302  -1.807   9.456  1.00  0.00    -0.421 N
ATOM     28  H6  UNL     1     -10.210  -1.704   8.445  1.00  0.00     0.153 HD
BRANCH  27  29
HETATM   29  C13 UNL     1     -10.195  -3.082  10.105  1.00  0.00     0.118 C
BRANCH  29  30
HETATM   30  C14 UNL     1     -10.925  -4.083   9.223  1.00  0.00     0.003 C
HETATM   31  C15 UNL     1     -11.197  -3.535   7.864  1.00  0.00     0.006 C
HETATM   32  C16 UNL     1     -12.474  -2.712   7.845  1.00  0.00     0.000 C
HETATM   33  C17 UNL     1     -13.587  -3.595   8.354  1.00  0.00     0.000 C
HETATM   34  C18 UNL     1     -13.341  -3.835   9.832  1.00  0.00     0.000 C
HETATM   35  C19 UNL     1     -12.096  -4.698   9.911  1.00  0.00     0.006 C
ENDBRANCH  29  30
ENDBRANCH  27  29
ENDBRANCH  26  27
ENDBRANCH  25  26
ENDBRANCH  24  25
ENDBRANCH  23  24
ENDBRANCH   1  23
BRANCH   1  36
HETATM   36  C20 UNL     1     -13.754   1.886  13.507  1.00  0.00     0.137 C
BRANCH  36  37
HETATM   37  O3  UNL     1     -14.711   2.775  13.586  1.00  0.00    -0.348 OA
ATOM     38  H3  UNL     1     -15.565   2.377  13.706  1.00  0.00     0.219 HD
ENDBRANCH  36  37
BRANCH  36  39
HETATM   39  N7  UNL     1     -12.502   2.374  13.849  1.00  0.00    -0.357 N
HETATM   40  C21 UNL     1     -11.569   3.008  12.895  1.00  0.00     0.125 C
HETATM   41  C22 UNL     1     -10.199   2.481  13.319  1.00  0.00     0.020 C
HETATM   42  C23 UNL     1     -10.271   1.112  13.943  1.00  0.00     0.004 C
HETATM   43  C24 UNL     1     -11.083   1.088  15.233  1.00  0.00     0.028 C
HETATM   44  C25 UNL     1     -11.922   2.354  15.193  1.00  0.00     0.123 C
BRANCH  44  45
HETATM   45  C26 UNL     1     -12.831   2.543  16.338  1.00  0.00     0.267 C
BRANCH  45  46
HETATM   46  N8  UNL     1     -12.245   1.698  17.428  1.00  0.00    -0.067 N
ATOM     47  H83 UNL     1     -12.793   1.691  18.288  1.00  0.00     0.275 HD
ATOM     48  H82 UNL     1     -12.299   0.695  17.251  1.00  0.00     0.275 HD
ATOM     49  H81 UNL     1     -11.294   2.049  17.543  1.00  0.00     0.275 HD
ENDBRANCH  45  46
BRANCH  45  50
HETATM   50  C27 UNL     1     -12.770   3.914  16.875  1.00  0.00     0.266 C
HETATM   51  O4  UNL     1     -13.672   4.531  17.400  1.00  0.00    -0.305 OA
ENDBRANCH  45  50
ENDBRANCH  44  45
ENDBRANCH  36  39
ENDBRANCH   1  36
TORSDOF 19
ENDMDL