MODEL 4
REMARK VINA RESULT: -7.879293512      7.873     14.350
REMARK  16 active torsions:
REMARK  status: ('A' for Active; 'I' for Inactive)
REMARK    1  A    between atoms: C2_2  and  C3_3
REMARK    2  A    between atoms: C3_3  and  C4_4
REMARK    3  A    between atoms: C4_4  and  C5_5
REMARK    4  A    between atoms: C5_5  and  C6_6
REMARK    5  A    between atoms: C6_6  and  C7_7
REMARK    6  A    between atoms: C8_10  and  O1_11
REMARK    7  A    between atoms: C9_13  and  C10_14
REMARK    8  A    between atoms: C15_22  and  C16_23
REMARK    9  A    between atoms: C16_23  and  C17_24
REMARK   10  A    between atoms: C17_24  and  C18_25
REMARK   11  A    between atoms: C18_25  and  C19_26
REMARK   12  A    between atoms: C21_33  and  C22_34
REMARK   13  A    between atoms: C22_34  and  C23_35
REMARK   14  A    between atoms: C23_35  and  C24_36
REMARK   15  A    between atoms: C24_36  and  C25_37
REMARK   16  A    between atoms: C25_37  and  N4_38
ROOT
HETATM    1  C7  UNL     1     -11.270  -4.993  11.272  1.00  0.00     0.175 C
HETATM    2  N1  UNL     1     -10.018  -5.653  11.261  1.00  0.00    -0.359 N
ATOM      3  H1  UNL     1      -9.667  -5.841  10.322  1.00  0.00     0.162 HD
HETATM    4  C8  UNL     1      -9.162  -6.101  12.269  1.00  0.00     0.135 C
HETATM    5  C9  UNL     1      -9.348  -7.057  13.368  1.00  0.00     0.162 C
HETATM    6  N2  UNL     1      -9.049  -6.450  14.662  1.00  0.00    -0.349 N
ATOM      7  H2  UNL     1      -8.073  -6.256  14.888  1.00  0.00     0.163 HD
HETATM    8  C13 UNL     1     -10.042  -6.113  15.628  1.00  0.00     0.220 C
HETATM    9  O2  UNL     1      -9.834  -5.090  16.327  1.00  0.00    -0.274 OA
HETATM   10  C14 UNL     1     -11.218  -6.949  15.754  1.00  0.00     0.128 C
HETATM   11  C15 UNL     1     -12.242  -6.632  16.756  1.00  0.00     0.093 C
HETATM   12  N3  UNL     1     -13.132  -5.539  16.472  1.00  0.00    -0.354 N
ATOM     13  H3  UNL     1     -13.446  -5.038  17.302  1.00  0.00     0.162 HD
HETATM   14  C20 UNL     1     -13.645  -5.036  15.293  1.00  0.00     0.240 C
HETATM   15  O5  UNL     1     -14.905  -5.161  15.033  1.00  0.00    -0.271 OA
HETATM   16  C21 UNL     1     -12.957  -4.304  14.161  1.00  0.00     0.176 C
HETATM   17  N5  UNL     1     -13.214  -5.055  12.963  1.00  0.00    -0.346 N
ATOM     18  H5  UNL     1     -14.205  -5.154  12.742  1.00  0.00     0.163 HD
HETATM   19  C26 UNL     1     -12.365  -5.674  12.048  1.00  0.00     0.241 C
HETATM   20  O6  UNL     1     -12.477  -6.940  11.796  1.00  0.00    -0.271 OA
ENDROOT
BRANCH  16  21
HETATM   21  C22 UNL     1     -13.683  -2.931  14.115  1.00  0.00     0.035 C
BRANCH  21  22
HETATM   22  C23 UNL     1     -13.077  -2.006  13.136  1.00  0.00     0.004 C
BRANCH  22  23
HETATM   23  C24 UNL     1     -14.048  -1.431  12.167  1.00  0.00     0.027 C
BRANCH  23  24
HETATM   24  C25 UNL     1     -13.703   0.002  11.783  1.00  0.00     0.229 C
BRANCH  24  25
HETATM   25  N4  UNL     1     -14.496   0.415  10.641  1.00  0.00    -0.079 N
ATOM     26  H43 UNL     1     -15.289   0.995  10.915  1.00  0.00     0.274 HD
ATOM     27  H42 UNL     1     -14.005   1.098  10.062  1.00  0.00     0.274 HD
ATOM     28  H41 UNL     1     -14.788  -0.401  10.104  1.00  0.00     0.274 HD
ENDBRANCH  24  25
ENDBRANCH  23  24
ENDBRANCH  22  23
ENDBRANCH  21  22
ENDBRANCH  16  21
BRANCH  11  29
HETATM   29  C16 UNL     1     -11.665  -6.522  18.138  1.00  0.00     0.026 C
BRANCH  29  30
HETATM   30  C17 UNL     1     -12.115  -7.670  19.034  1.00  0.00     0.012 C
BRANCH  30  31
HETATM   31  C18 UNL     1     -13.626  -7.865  18.900  1.00  0.00     0.113 C
BRANCH  31  32
HETATM   32  C19 UNL     1     -14.279  -6.689  19.520  1.00  0.00     0.172 C
HETATM   33  O3  UNL     1     -14.978  -5.878  18.847  1.00  0.00    -0.648 OA
HETATM   34  O4  UNL     1     -14.140  -6.436  20.885  1.00  0.00    -0.648 OA
ENDBRANCH  31  32
ENDBRANCH  30  31
ENDBRANCH  29  30
ENDBRANCH  11  29
BRANCH   1  35
HETATM   35  C6  UNL     1     -11.898  -4.774   9.910  1.00  0.00     0.035 C
BRANCH  35  36
HETATM   36  C5  UNL     1     -13.163  -4.047   9.808  1.00  0.00     0.002 C
BRANCH  36  37
HETATM   37  C4  UNL     1     -13.319  -2.926   8.867  1.00  0.00     0.000 C
BRANCH  37  38
HETATM   38  C3  UNL     1     -12.947  -3.283   7.424  1.00  0.00    -0.000 C
BRANCH  38  39
HETATM   39  C2  UNL     1     -11.780  -2.463   6.955  1.00  0.00    -0.005 C
HETATM   40  C1  UNL     1     -10.624  -3.446   6.754  1.00  0.00     0.005 C
ENDBRANCH  38  39
ENDBRANCH  37  38
ENDBRANCH  36  37
ENDBRANCH  35  36
ENDBRANCH   1  35
BRANCH   4  41
HETATM   41  O1  UNL     1      -7.950  -5.601  12.276  1.00  0.00    -0.348 OA
ATOM     42  H1  UNL     1      -7.260  -6.161  12.613  1.00  0.00     0.219 HD
ENDBRANCH   4  41
BRANCH   5  43
HETATM   43  C10 UNL     1      -8.412  -8.253  13.131  1.00  0.00     0.008 C
HETATM   44  C11 UNL     1      -7.201  -8.255  13.981  1.00  0.00     0.012 C
HETATM   45  C12 UNL     1      -9.160  -9.554  13.241  1.00  0.00     0.012 C
ENDBRANCH   5  43
TORSDOF 16
ENDMDL