MODEL 2
REMARK VINA RESULT: -8.652888117      2.411      5.296
REMARK  16 active torsions:
REMARK  status: ('A' for Active; 'I' for Inactive)
REMARK    1  A    between atoms: C2_2  and  C3_3
REMARK    2  A    between atoms: C3_3  and  N2_7
REMARK       I    between atoms: N2_7  and  C6_9
REMARK       I    between atoms: C6_9  and  N7_29
REMARK    3  A    between atoms: N3_10  and  C7_12
REMARK    4  A    between atoms: C11_16  and  C12_17
REMARK    5  A    between atoms: C12_17  and  N5_21
REMARK    6  A    between atoms: N5_21  and  C13_23
REMARK    7  A    between atoms: C13_23  and  C14_24
REMARK    8  A    between atoms: C14_24  and  N6_25
REMARK    9  A    between atoms: N7_29  and  N8_31
REMARK       I    between atoms: N8_31  and  C18_33
REMARK       I    between atoms: C18_33  and  N9_35
REMARK   10  A    between atoms: N9_35  and  C19_37
REMARK   11  A    between atoms: C19_37  and  C20_38
REMARK   12  A    between atoms: C20_38  and  C21_39
REMARK       I    between atoms: C21_39  and  N10_41
REMARK   13  A    between atoms: N10_41  and  C22_43
REMARK   14  A    between atoms: C22_43  and  C23_44
REMARK   15  A    between atoms: C23_44  and  C24_45
REMARK   16  A    between atoms: C24_45  and  N11_46
ROOT
HETATM    1  C3  UNL     1     -14.499 -12.041  21.876  1.00  0.00     0.132 C
HETATM    2  C4  UNL     1     -15.580 -11.168  21.304  1.00  0.00     0.055 C
HETATM    3  C5  UNL     1     -14.010 -13.029  20.896  1.00  0.00     0.091 C
HETATM    4  N1  UNL     1     -13.636 -13.804  20.118  1.00  0.00    -0.195 NA
ENDROOT
BRANCH   1   5
HETATM    5  C2  UNL     1     -15.169 -12.915  22.963  1.00  0.00     0.042 C
HETATM    6  C1  UNL     1     -14.148 -13.354  23.979  1.00  0.00     0.009 C
ENDBRANCH   1   5
BRANCH   1   7
HETATM    7  N2  UNL     1     -13.464 -11.330  22.539  1.00  0.00    -0.203 N
HETATM    8  C6  UNL     1     -13.437  -9.880  22.747  1.00  0.00     0.694 C
HETATM    9  N3  UNL     1     -14.104  -9.484  23.689  1.00  0.00    -0.191 N
HETATM   10  N7  UNL     1     -12.627  -9.173  21.837  1.00  0.00    -0.128 N
ATOM     11  H3  UNL     1     -14.515 -10.331  24.080  1.00  0.00     0.184 HD
ATOM     12  H7  UNL     1     -11.765  -9.646  21.567  1.00  0.00     0.205 HD
ATOM     13  H2  UNL     1     -12.677 -11.871  22.898  1.00  0.00     0.179 HD
BRANCH   9  14
HETATM   14  C7  UNL     1     -14.570  -8.500  24.473  1.00  0.00     0.050 A
HETATM   15  C8  UNL     1     -13.812  -7.425  24.927  1.00  0.00     0.030 A
HETATM   16  C9  UNL     1     -14.397  -6.476  25.729  1.00  0.00     0.003 A
HETATM   17  C10 UNL     1     -15.716  -6.563  26.095  1.00  0.00     0.015 A
HETATM   18  C11 UNL     1     -16.520  -7.603  25.673  1.00  0.00     0.009 A
HETATM   19  C17 UNL     1     -15.916  -8.543  24.873  1.00  0.00     0.045 A
BRANCH  18  20
HETATM   20  C12 UNL     1     -17.920  -7.689  26.057  1.00  0.00     0.105 C
HETATM   21  N4  UNL     1     -18.824  -7.937  25.216  1.00  0.00    -0.385 N
ATOM     22  H42 UNL     1     -18.506  -8.048  24.253  1.00  0.00     0.157 HD
ATOM     23  H41 UNL     1     -19.806  -7.997  25.485  1.00  0.00     0.157 HD
BRANCH  20  24
HETATM   24  N5  UNL     1     -18.371  -7.533  27.422  1.00  0.00    -0.374 N
ATOM     25  H5  UNL     1     -18.453  -6.604  27.835  1.00  0.00     0.161 HD
BRANCH  24  26
HETATM   26  C13 UNL     1     -18.705  -8.714  28.198  1.00  0.00     0.151 C
BRANCH  26  27
HETATM   27  C14 UNL     1     -17.502  -9.207  28.920  1.00  0.00     0.290 C
BRANCH  27  28
HETATM   28  N6  UNL     1     -16.944 -10.408  28.315  1.00  0.00     0.081 N
HETATM   29  C15 UNL     1     -15.523 -10.266  28.043  1.00  0.00     0.309 C
HETATM   30  C16 UNL     1     -17.237 -11.609  29.035  1.00  0.00     0.309 C
ENDBRANCH  27  28
ENDBRANCH  26  27
ENDBRANCH  24  26
ENDBRANCH  20  24
ENDBRANCH  18  20
ENDBRANCH   9  14
BRANCH  10  31
HETATM   31  N8  UNL     1     -12.824  -7.938  21.257  1.00  0.00    -0.237 N
HETATM   32  C18 UNL     1     -13.433  -7.630  20.033  1.00  0.00     0.335 C
HETATM   33  O1  UNL     1     -13.897  -8.541  19.312  1.00  0.00    -0.246 OA
HETATM   34  N9  UNL     1     -13.547  -6.295  19.575  1.00  0.00    -0.341 N
ATOM     35  H9  UNL     1     -13.164  -5.538  20.142  1.00  0.00     0.164 HD
ATOM     36  H8  UNL     1     -12.479  -7.140  21.792  1.00  0.00     0.192 HD
BRANCH  34  37
HETATM   37  C19 UNL     1     -14.185  -5.987  18.341  1.00  0.00     0.134 C
BRANCH  37  38
HETATM   38  C20 UNL     1     -13.478  -5.043  17.432  1.00  0.00     0.122 C
BRANCH  38  39
HETATM   39  C21 UNL     1     -14.361  -4.486  16.360  1.00  0.00     0.219 C
HETATM   40  O2  UNL     1     -15.118  -5.262  15.751  1.00  0.00    -0.274 OA
HETATM   41  N10 UNL     1     -14.308  -3.105  16.071  1.00  0.00    -0.361 N
ATOM     42  H10 UNL     1     -13.677  -2.509  16.607  1.00  0.00     0.162 HD
BRANCH  41  43
HETATM   43  C22 UNL     1     -15.116  -2.521  15.044  1.00  0.00     0.124 C
BRANCH  43  44
HETATM   44  C23 UNL     1     -15.057  -1.017  15.041  1.00  0.00     0.050 C
BRANCH  44  45
HETATM   45  C24 UNL     1     -14.277  -0.513  16.259  1.00  0.00     0.273 C
BRANCH  45  46
HETATM   46  N11 UNL     1     -13.340   0.476  15.745  1.00  0.00     0.080 N
HETATM   47  C25 UNL     1     -13.050   1.489  16.753  1.00  0.00     0.309 C
HETATM   48  C26 UNL     1     -13.854   1.089  14.531  1.00  0.00     0.309 C
ENDBRANCH  45  46
ENDBRANCH  44  45
ENDBRANCH  43  44
ENDBRANCH  41  43
ENDBRANCH  38  39
ENDBRANCH  37  38
ENDBRANCH  34  37
ENDBRANCH  10  31
ENDBRANCH   1   7
TORSDOF 16
ENDMDL