MODEL 5
REMARK VINA RESULT: -8.337819171      1.210      1.422
REMARK  20 active torsions:
REMARK  status: ('A' for Active; 'I' for Inactive)
REMARK    1  A    between atoms: N1_2  and  O1_3
REMARK    2  A    between atoms: N1_2  and  C2_5
REMARK    3  A    between atoms: C2_5  and  C3_6
REMARK    4  A    between atoms: C3_6  and  N2_7
REMARK    5  A    between atoms: C3_6  and  C4_11
REMARK    6  A    between atoms: C4_11  and  C5_12
REMARK    7  A    between atoms: C5_12  and  C6_13
REMARK    8  A    between atoms: C9_16  and  C10_17
REMARK    9  A    between atoms: C10_17  and  C11_18
REMARK   10  A    between atoms: C11_18  and  N3_19
REMARK   11  A    between atoms: N3_19  and  C12_21
REMARK   12  A    between atoms: C13_24  and  N5_25
REMARK   13  A    between atoms: N5_25  and  C14_27
REMARK   14  A    between atoms: C14_27  and  C15_28
REMARK   15  A    between atoms: C15_28  and  O2_29
REMARK   16  A    between atoms: C16_33  and  N7_34
REMARK   17  A    between atoms: N7_34  and  C17_36
REMARK   18  A    between atoms: C20_39  and  C21_40
REMARK   19  A    between atoms: C21_40  and  C22_41
REMARK   20  A    between atoms: C22_41  and  C23_42
ROOT
HETATM    1  C12 UNL     1     -13.008  -8.278  21.577  1.00  0.00     0.707 A
HETATM    2  N4  UNL     1     -13.075  -7.648  20.403  1.00  0.00    -0.022 N
ATOM      3  H4  UNL     1     -12.502  -6.818  20.256  1.00  0.00     0.203 HD
HETATM    4  C13 UNL     1     -13.888  -8.077  19.393  1.00  0.00     0.707 A
HETATM    5  N6  UNL     1     -14.638  -9.184  19.627  1.00  0.00    -0.021 N
ATOM      6  H6  UNL     1     -15.253  -9.524  18.888  1.00  0.00     0.203 HD
HETATM    7  C16 UNL     1     -14.602  -9.847  20.787  1.00  0.00     0.711 A
HETATM    8  N8  UNL     1     -13.793  -9.391  21.744  1.00  0.00    -0.021 N
ATOM      9  H8  UNL     1     -13.756  -9.888  22.634  1.00  0.00     0.203 HD
ENDROOT
BRANCH   1  10
HETATM   10  N3  UNL     1     -12.262  -7.864  22.504  1.00  0.00    -0.225 N
ATOM     11  H3  UNL     1     -11.728  -7.012  22.330  1.00  0.00     0.177 HD
BRANCH  10  12
HETATM   12  C11 UNL     1     -12.105  -8.483  23.767  1.00  0.00     0.142 C
BRANCH  12  13
HETATM   13  C10 UNL     1     -12.613  -7.521  24.851  1.00  0.00     0.058 C
BRANCH  13  14
HETATM   14  C9  UNL     1     -13.537  -8.333  25.699  1.00  0.00    -0.057 A
HETATM   15  C8  UNL     1     -14.092  -7.789  26.838  1.00  0.00     0.007 A
HETATM   16  C7  UNL     1     -14.951  -8.493  27.644  1.00  0.00     0.007 A
HETATM   17  C6  UNL     1     -15.314  -9.817  27.352  1.00  0.00    -0.058 A
HETATM   18  C27 UNL     1     -14.763 -10.359  26.221  1.00  0.00     0.007 A
HETATM   19  C26 UNL     1     -13.886  -9.632  25.403  1.00  0.00     0.007 A
BRANCH  17  20
HETATM   20  C5  UNL     1     -16.190 -10.583  28.219  1.00  0.00     0.040 C
BRANCH  20  21
HETATM   21  C4  UNL     1     -17.420 -11.171  27.682  1.00  0.00     0.038 C
BRANCH  21  22
HETATM   22  C3  UNL     1     -18.548 -10.235  27.377  1.00  0.00     0.199 C
BRANCH  22  23
HETATM   23  C2  UNL     1     -18.537  -9.793  25.932  1.00  0.00     0.152 C
BRANCH  23  24
HETATM   24  N1  UNL     1     -18.393  -8.331  25.966  1.00  0.00    -0.202 NA
HETATM   25  C1  UNL     1     -17.436  -7.862  24.991  1.00  0.00     0.143 C
BRANCH  24  26
HETATM   26  O1  UNL     1     -19.574  -7.733  25.708  1.00  0.00    -0.313 OA
ATOM     27  H1  UNL     1     -20.241  -8.172  26.223  1.00  0.00     0.237 HD
ENDBRANCH  24  26
ENDBRANCH  23  24
ENDBRANCH  22  23
BRANCH  22  28
HETATM   28  N2  UNL     1     -18.586  -9.077  28.278  1.00  0.00    -0.074 N
ATOM     29  H23 UNL     1     -18.677  -8.201  27.763  1.00  0.00     0.274 HD
ATOM     30  H22 UNL     1     -19.459  -9.036  28.805  1.00  0.00     0.274 HD
ATOM     31  H21 UNL     1     -17.773  -9.069  28.894  1.00  0.00     0.274 HD
ENDBRANCH  22  28
ENDBRANCH  21  22
ENDBRANCH  20  21
ENDBRANCH  17  20
ENDBRANCH  13  14
ENDBRANCH  12  13
ENDBRANCH  10  12
ENDBRANCH   1  10
BRANCH   4  32
HETATM   32  N5  UNL     1     -13.973  -7.482  18.259  1.00  0.00    -0.223 N
ATOM     33  H5  UNL     1     -14.728  -7.772  17.636  1.00  0.00     0.177 HD
BRANCH  32  34
HETATM   34  C14 UNL     1     -13.104  -6.449  17.793  1.00  0.00     0.164 C
BRANCH  34  35
HETATM   35  C15 UNL     1     -13.678  -5.056  17.932  1.00  0.00     0.184 C
BRANCH  35  36
HETATM   36  O2  UNL     1     -13.749  -4.661  19.271  1.00  0.00    -0.399 OA
ATOM     37  H2  UNL     1     -14.529  -5.000  19.695  1.00  0.00     0.209 HD
ENDBRANCH  35  36
ENDBRANCH  34  35
ENDBRANCH  32  34
ENDBRANCH   4  32
BRANCH   7  38
HETATM   38  N7  UNL     1     -15.303 -10.873  21.022  1.00  0.00    -0.191 N
ATOM     39  H7  UNL     1     -16.313 -10.740  20.980  1.00  0.00     0.184 HD
BRANCH  38  40
HETATM   40  C17 UNL     1     -14.869 -12.174  21.333  1.00  0.00     0.049 A
HETATM   41  C18 UNL     1     -15.176 -12.781  22.554  1.00  0.00     0.030 A
HETATM   42  C19 UNL     1     -14.749 -14.054  22.864  1.00  0.00     0.009 A
HETATM   43  C20 UNL     1     -13.988 -14.797  21.969  1.00  0.00    -0.058 A
HETATM   44  C24 UNL     1     -13.688 -14.196  20.766  1.00  0.00     0.009 A
HETATM   45  C25 UNL     1     -14.115 -12.922  20.455  1.00  0.00     0.030 A
BRANCH  43  46
HETATM   46  C21 UNL     1     -13.559 -16.166  22.352  1.00  0.00     0.049 C
BRANCH  46  47
HETATM   47  C22 UNL     1     -12.325 -16.219  23.185  1.00  0.00     0.117 C
BRANCH  47  48
HETATM   48  C23 UNL     1     -11.304 -15.219  22.887  1.00  0.00     0.172 C
HETATM   49  O3  UNL     1     -11.261 -14.149  23.546  1.00  0.00    -0.648 OA
HETATM   50  O4  UNL     1     -10.338 -15.359  21.897  1.00  0.00    -0.648 OA
ENDBRANCH  47  48
ENDBRANCH  46  47
ENDBRANCH  43  46
ENDBRANCH  38  40
ENDBRANCH   7  38
TORSDOF 20
ENDMDL