MODEL 1
REMARK VINA RESULT: -9.527756701      0.000      0.000
REMARK  14 active torsions:
REMARK  status: ('A' for Active; 'I' for Inactive)
REMARK    1  A    between atoms: C2_2  and  C3_3
REMARK    2  A    between atoms: N2_9  and  N3_10
REMARK       I    between atoms: N3_10  and  C6_12
REMARK    3  A    between atoms: C6_12  and  C7_14
REMARK    4  A    between atoms: C7_14  and  N4_15
REMARK    5  A    between atoms: C12_21  and  C13_22
REMARK    6  A    between atoms: C13_22  and  C14_23
REMARK    7  A    between atoms: C14_23  and  C15_24
REMARK    8  A    between atoms: C15_24  and  N5_25
REMARK       I    between atoms: N5_25  and  C16_27
REMARK    9  A    between atoms: C16_27  and  C17_29
REMARK   10  A    between atoms: C17_29  and  C18_30
REMARK   11  A    between atoms: C18_30  and  C19_31
REMARK   12  A    between atoms: C19_31  and  C20_32
REMARK   13  A    between atoms: C20_32  and  C21_33
REMARK   14  A    between atoms: C21_33  and  N6_34
REMARK       I    between atoms: N6_34  and  C22_36
ROOT
HETATM    1  N4  UNL     1     -13.187  -7.218  18.630  1.00  0.00    -0.261 N
HETATM    2  C8  UNL     1     -13.675  -6.262  17.690  1.00  0.00     0.228 C
HETATM    3  O3  UNL     1     -14.800  -5.761  18.019  1.00  0.00    -0.273 OA
HETATM    4  C9  UNL     1     -13.125  -5.753  16.430  1.00  0.00     0.113 C
HETATM    5  C10 UNL     1     -11.656  -5.477  16.436  1.00  0.00     0.036 C
HETATM    6  C11 UNL     1     -11.299  -4.332  17.386  1.00  0.00     0.016 C
HETATM    7  C12 UNL     1     -10.789  -6.629  16.713  1.00  0.00    -0.005 C
HETATM    8  N9  UNL     1     -10.846  -7.497  17.662  1.00  0.00    -0.316 N
ATOM      9  H9  UNL     1     -10.126  -8.219  17.649  1.00  0.00     0.170 HD
HETATM   10  C23 UNL     1     -11.787  -7.575  18.725  1.00  0.00     0.329 C
HETATM   11  O5  UNL     1     -11.452  -7.974  19.852  1.00  0.00    -0.246 OA
ENDROOT
BRANCH   7  12
HETATM   12  C13 UNL     1      -9.656  -6.856  15.795  1.00  0.00     0.054 C
BRANCH  12  13
HETATM   13  C14 UNL     1      -9.901  -7.914  14.750  1.00  0.00     0.025 C
BRANCH  13  14
HETATM   14  C15 UNL     1      -9.266  -7.594  13.426  1.00  0.00     0.123 C
BRANCH  14  15
HETATM   15  N5  UNL     1     -10.148  -6.745  12.655  1.00  0.00    -0.361 N
HETATM   16  C16 UNL     1     -10.102  -6.636  11.256  1.00  0.00     0.217 C
HETATM   17  O4  UNL     1      -9.280  -7.301  10.540  1.00  0.00    -0.274 OA
ATOM     18  H5  UNL     1     -10.844  -6.194  13.157  1.00  0.00     0.162 HD
BRANCH  16  19
HETATM   19  C17 UNL     1     -11.017  -5.729  10.487  1.00  0.00     0.103 C
BRANCH  19  20
HETATM   20  C18 UNL     1     -12.335  -5.563  11.219  1.00  0.00     0.009 C
BRANCH  20  21
HETATM   21  C19 UNL     1     -12.478  -4.137  11.645  1.00  0.00     0.002 C
BRANCH  21  22
HETATM   22  C20 UNL     1     -12.388  -3.990  13.155  1.00  0.00     0.020 C
BRANCH  22  23
HETATM   23  C21 UNL     1     -12.821  -2.650  13.635  1.00  0.00     0.122 C
BRANCH  23  24
HETATM   24  N6  UNL     1     -14.211  -2.338  13.481  1.00  0.00    -0.365 N
HETATM   25  C22 UNL     1     -15.086  -2.459  14.587  1.00  0.00     0.181 C
HETATM   26  N7  UNL     1     -15.527  -3.607  14.958  1.00  0.00    -0.374 N
HETATM   27  N8  UNL     1     -15.500  -1.306  15.298  1.00  0.00    -0.064 NA
ATOM     28  H72 UNL     1     -15.229  -4.437  14.446  1.00  0.00     0.158 HD
ATOM     29  H71 UNL     1     -16.158  -3.694  15.755  1.00  0.00     0.158 HD
ATOM     30  H6  UNL     1     -14.569  -2.030  12.577  1.00  0.00     0.162 HD
ENDBRANCH  23  24
ENDBRANCH  22  23
ENDBRANCH  21  22
ENDBRANCH  20  21
ENDBRANCH  19  20
ENDBRANCH  16  19
ENDBRANCH  14  15
ENDBRANCH  13  14
ENDBRANCH  12  13
ENDBRANCH   7  12
BRANCH   1  31
HETATM   31  C7  UNL     1     -14.129  -7.829  19.487  1.00  0.00     0.241 C
BRANCH  31  32
HETATM   32  C6  UNL     1     -14.094  -7.380  20.905  1.00  0.00     0.256 C
HETATM   33  N3  UNL     1     -13.759  -8.237  21.988  1.00  0.00    -0.246 N
ATOM     34  H3  UNL     1     -13.524  -9.212  21.797  1.00  0.00     0.192 HD
HETATM   35  O2  UNL     1     -14.374  -6.171  21.204  1.00  0.00    -0.270 OA
BRANCH  33  36
HETATM   36  N2  UNL     1     -13.743  -7.776  23.319  1.00  0.00    -0.142 N
HETATM   37  C5  UNL     1     -12.490  -7.716  24.038  1.00  0.00     0.355 C
HETATM   38  N1  UNL     1     -12.823  -7.468  25.376  1.00  0.00    -0.316 N
HETATM   39  O1  UNL     1     -11.336  -7.859  23.563  1.00  0.00    -0.244 OA
HETATM   40  C3  UNL     1     -14.268  -7.381  25.461  1.00  0.00     0.123 C
ATOM     41  H1  UNL     1     -12.168  -7.366  26.151  1.00  0.00     0.166 HD
HETATM   42  C4  UNL     1     -14.551  -6.124  26.264  1.00  0.00     0.060 C
HETATM   43  N10 UNL     1     -14.764  -7.333  24.130  1.00  0.00    -0.082 NA
BRANCH  40  44
HETATM   44  C2  UNL     1     -14.743  -8.576  26.252  1.00  0.00     0.046 C
HETATM   45  C1  UNL     1     -14.387  -8.464  27.699  1.00  0.00     0.009 C
ENDBRANCH  40  44
ENDBRANCH  33  36
ENDBRANCH  31  32
ENDBRANCH   1  31
TORSDOF 14
ENDMDL