MODEL 2
REMARK VINA RESULT: -8.644461637      1.806      2.967
REMARK  16 active torsions:
REMARK  status: ('A' for Active; 'I' for Inactive)
REMARK    1  A    between atoms: C4_4  and  O1_5
REMARK    2  A    between atoms: O1_5  and  C5_6
REMARK    3  A    between atoms: C5_6  and  C6_7
REMARK    4  A    between atoms: C5_6  and  C10_17
REMARK    5  A    between atoms: C6_7  and  C7_8
REMARK    6  A    between atoms: C7_8  and  C8_9
REMARK    7  A    between atoms: C8_9  and  N1_10
REMARK       I    between atoms: N1_10  and  C9_12
REMARK    8  A    between atoms: N5_22  and  C13_23
REMARK    9  A    between atoms: C13_23  and  C14_24
REMARK   10  A    between atoms: C14_24  and  C15_25
REMARK   11  A    between atoms: C15_25  and  C16_26
REMARK   12  A    between atoms: C16_26  and  C17_27
REMARK   13  A    between atoms: C17_27  and  C18_28
REMARK   14  A    between atoms: C18_28  and  N6_29
REMARK   15  A    between atoms: C19_30  and  O3_31
REMARK   16  A    between atoms: C22_35  and  O4_36
ROOT
HETATM    1  C13 UNL     1     -13.582  -7.280  25.765  1.00  0.00     0.128 C
ENDROOT
BRANCH   1   2
HETATM    2  N5  UNL     1     -13.535  -7.585  24.373  1.00  0.00    -0.360 N
HETATM    3  C2  UNL     1     -12.618  -8.310  23.764  1.00  0.00     0.010 A
HETATM    4  C1  UNL     1     -11.430  -8.837  24.488  1.00  0.00     0.068 C
HETATM    5  C3  UNL     1     -12.731  -8.563  22.401  1.00  0.00     0.061 A
HETATM    6  C4  UNL     1     -13.752  -8.098  21.622  1.00  0.00     0.073 A
HETATM    7  C11 UNL     1     -14.717  -7.326  22.288  1.00  0.00     0.054 A
HETATM    8  C12 UNL     1     -14.572  -7.103  23.618  1.00  0.00     0.093 A
BRANCH   6   9
HETATM    9  O1  UNL     1     -13.877  -8.335  20.291  1.00  0.00    -0.337 OA
BRANCH   9  10
HETATM   10  C5  UNL     1     -13.265  -7.829  19.171  1.00  0.00     0.218 C
BRANCH  10  11
HETATM   11  C6  UNL     1     -11.793  -7.642  19.283  1.00  0.00     0.043 C
BRANCH  11  12
HETATM   12  C7  UNL     1     -11.174  -7.544  17.921  1.00  0.00     0.023 C
BRANCH  12  13
HETATM   13  C8  UNL     1     -10.468  -6.248  17.714  1.00  0.00     0.122 C
BRANCH  13  14
HETATM   14  N1  UNL     1     -11.314  -5.276  17.081  1.00  0.00    -0.365 N
HETATM   15  C9  UNL     1     -11.232  -3.922  17.458  1.00  0.00     0.181 C
HETATM   16  N2  UNL     1     -11.637  -3.557  18.643  1.00  0.00    -0.374 N
HETATM   17  N3  UNL     1     -10.725  -2.898  16.618  1.00  0.00    -0.064 NA
ATOM     18  H22 UNL     1     -12.001  -4.293  19.247  1.00  0.00     0.158 HD
ATOM     19  H21 UNL     1     -11.578  -2.576  18.916  1.00  0.00     0.158 HD
ATOM     20  H1  UNL     1     -11.973  -5.566  16.359  1.00  0.00     0.162 HD
ENDBRANCH  13  14
ENDBRANCH  12  13
ENDBRANCH  11  12
ENDBRANCH  10  11
BRANCH  10  21
HETATM   21  C10 UNL     1     -13.982  -6.625  18.644  1.00  0.00     0.260 C
HETATM   22  N4  UNL     1     -13.896  -5.377  19.320  1.00  0.00    -0.060 NA
HETATM   23  O2  UNL     1     -14.654  -6.747  17.602  1.00  0.00    -0.274 OA
ENDBRANCH  10  21
ENDBRANCH   9  10
ENDBRANCH   6   9
ENDBRANCH   1   2
BRANCH   1  24
HETATM   24  C14 UNL     1     -14.852  -7.625  26.479  1.00  0.00     0.020 C
BRANCH  24  25
HETATM   25  C15 UNL     1     -14.600  -8.369  27.742  1.00  0.00     0.002 C
BRANCH  25  26
HETATM   26  C16 UNL     1     -15.866  -8.938  28.378  1.00  0.00     0.002 C
BRANCH  26  27
HETATM   27  C17 UNL     1     -16.965  -8.918  27.382  1.00  0.00     0.020 C
BRANCH  27  28
HETATM   28  C18 UNL     1     -17.521 -10.307  27.098  1.00  0.00     0.133 C
BRANCH  28  29
HETATM   29  N6  UNL     1     -16.408 -11.055  26.509  1.00  0.00    -0.307 N
HETATM   30  C19 UNL     1     -15.960 -10.843  25.238  1.00  0.00     0.155 A
HETATM   31  C20 UNL     1     -14.911 -11.708  25.007  1.00  0.00     0.027 A
HETATM   32  C21 UNL     1     -14.706 -12.461  26.139  1.00  0.00     0.025 A
HETATM   33  C27 UNL     1     -14.282 -11.641  23.692  1.00  0.00     0.013 C
HETATM   34  C22 UNL     1     -15.662 -12.015  27.039  1.00  0.00     0.153 A
HETATM   35  C23 UNL     1     -13.827 -13.532  26.641  1.00  0.00     0.166 C
HETATM   36  N7  UNL     1     -12.501 -13.490  26.131  1.00  0.00    -0.356 N
HETATM   37  C24 UNL     1     -11.896 -13.252  24.873  1.00  0.00     0.221 C
ATOM     38  H7  UNL     1     -11.809 -13.677  26.856  1.00  0.00     0.162 HD
HETATM   39  O5  UNL     1     -10.696 -12.880  24.923  1.00  0.00    -0.273 OA
HETATM   40  C25 UNL     1     -12.370 -13.346  23.489  1.00  0.00     0.130 C
HETATM   41  C26 UNL     1     -13.291 -12.273  23.087  1.00  0.00    -0.017 C
BRANCH  30  42
HETATM   42  O3  UNL     1     -16.486  -9.906  24.342  1.00  0.00    -0.345 OA
ATOM     43  H3  UNL     1     -16.118  -9.692  23.493  1.00  0.00     0.219 HD
ENDBRANCH  30  42
BRANCH  34  44
HETATM   44  O4  UNL     1     -15.828 -12.504  28.335  1.00  0.00    -0.345 OA
ATOM     45  H4  UNL     1     -15.127 -12.885  28.852  1.00  0.00     0.219 HD
ENDBRANCH  34  44
ENDBRANCH  28  29
ENDBRANCH  27  28
ENDBRANCH  26  27
ENDBRANCH  25  26
ENDBRANCH  24  25
ENDBRANCH   1  24
TORSDOF 16
ENDMDL