MODEL 1
REMARK VINA RESULT: -9.408805153      0.000      0.000
REMARK  15 active torsions:
REMARK  status: ('A' for Active; 'I' for Inactive)
REMARK       I    between atoms: C1_4  and  N3_6
REMARK    1  A    between atoms: N3_6  and  C2_8
REMARK    2  A    between atoms: C2_8  and  C3_9
REMARK    3  A    between atoms: C3_9  and  C4_10
REMARK    4  A    between atoms: C4_10  and  C5_11
REMARK    5  A    between atoms: C5_11  and  N4_12
REMARK    6  A    between atoms: C5_11  and  C6_16
REMARK       I    between atoms: C6_16  and  N5_18
REMARK    7  A    between atoms: N5_18  and  C7_20
REMARK    8  A    between atoms: C7_20  and  C8_21
REMARK    9  A    between atoms: C7_20  and  N11_38
REMARK       I    between atoms: C8_21  and  N6_23
REMARK   10  A    between atoms: N6_23  and  C9_25
REMARK   11  A    between atoms: C13_29  and  C14_30
REMARK   12  A    between atoms: N11_38  and  C22_45
REMARK   13  A    between atoms: C16_39  and  C17_40
REMARK   14  A    between atoms: C17_40  and  C18_41
REMARK   15  A    between atoms: C22_45  and  C23_46
ROOT
HETATM    1  C7  UNL     1     -14.259  -8.553  21.861  1.00  0.00     0.182 C
ENDROOT
BRANCH   1   2
HETATM    2  N5  UNL     1     -13.450  -8.048  20.831  1.00  0.00    -0.306 N
HETATM    3  C6  UNL     1     -13.929  -7.121  19.883  1.00  0.00     0.254 C
HETATM    4  O1  UNL     1     -15.151  -6.764  19.978  1.00  0.00    -0.271 OA
ATOM      5  H5  UNL     1     -12.482  -8.362  20.766  1.00  0.00     0.170 HD
BRANCH   3   6
HETATM    6  C5  UNL     1     -13.083  -6.547  18.797  1.00  0.00     0.275 C
BRANCH   6   7
HETATM    7  C4  UNL     1     -13.853  -5.492  18.074  1.00  0.00     0.044 C
BRANCH   7   8
HETATM    8  C3  UNL     1     -13.144  -4.254  17.677  1.00  0.00     0.022 C
BRANCH   8   9
HETATM    9  C2  UNL     1     -12.925  -4.037  16.227  1.00  0.00     0.122 C
BRANCH   9  10
HETATM   10  N3  UNL     1     -13.502  -2.724  15.857  1.00  0.00    -0.365 N
HETATM   11  C1  UNL     1     -14.811  -2.603  15.351  1.00  0.00     0.181 C
HETATM   12  N1  UNL     1     -15.432  -3.629  14.884  1.00  0.00    -0.374 N
HETATM   13  N2  UNL     1     -15.446  -1.330  15.356  1.00  0.00    -0.064 NA
ATOM     14  H12 UNL     1     -16.380  -3.542  14.517  1.00  0.00     0.158 HD
ATOM     15  H11 UNL     1     -14.976  -4.541  14.881  1.00  0.00     0.158 HD
ATOM     16  H3  UNL     1     -12.935  -1.884  15.972  1.00  0.00     0.162 HD
ENDBRANCH   9  10
ENDBRANCH   8   9
ENDBRANCH   7   8
ENDBRANCH   6   7
BRANCH   6  17
HETATM   17  N4  UNL     1     -12.605  -7.545  17.876  1.00  0.00    -0.066 N
ATOM     18  H43 UNL     1     -13.015  -8.460  18.063  1.00  0.00     0.275 HD
ATOM     19  H42 UNL     1     -12.975  -7.402  16.937  1.00  0.00     0.275 HD
ATOM     20  H41 UNL     1     -11.585  -7.579  17.882  1.00  0.00     0.275 HD
ENDBRANCH   6  17
ENDBRANCH   3   6
ENDBRANCH   1   2
BRANCH   1  21
HETATM   21  C8  UNL     1     -14.015  -9.983  22.119  1.00  0.00     0.286 C
HETATM   22  O2  UNL     1     -12.822 -10.346  22.290  1.00  0.00    -0.264 OA
HETATM   23  N6  UNL     1     -15.077 -10.951  22.181  1.00  0.00    -0.350 N
ATOM     24  H6  UNL     1     -16.047 -10.661  22.049  1.00  0.00     0.163 HD
BRANCH  23  25
HETATM   25  C9  UNL     1     -14.757 -12.341  22.431  1.00  0.00     0.085 C
HETATM   26  C10 UNL     1     -15.331 -12.754  23.778  1.00  0.00     0.025 C
HETATM   27  C11 UNL     1     -15.351 -14.254  23.929  1.00  0.00     0.003 C
HETATM   28  C12 UNL     1     -16.023 -14.943  22.787  1.00  0.00     0.012 C
HETATM   29  C13 UNL     1     -15.233 -14.656  21.535  1.00  0.00     0.057 C
HETATM   30  C15 UNL     1     -15.210 -13.180  21.311  1.00  0.00     0.037 C
BRANCH  29  31
HETATM   31  C14 UNL     1     -15.835 -15.294  20.350  1.00  0.00     0.111 A
HETATM   32  N7  UNL     1     -17.065 -15.818  20.320  1.00  0.00    -0.274 N
HETATM   33  N8  UNL     1     -17.308 -16.314  19.096  1.00  0.00    -0.007 NA
ATOM     34  H7  UNL     1     -17.717 -15.837  21.104  1.00  0.00     0.185 HD
HETATM   35  N9  UNL     1     -16.219 -16.094  18.361  1.00  0.00    -0.007 NA
HETATM   36  N10 UNL     1     -15.316 -15.468  19.129  1.00  0.00    -0.274 N
ATOM     37  H10 UNL     1     -14.385 -15.173  18.832  1.00  0.00     0.185 HD
ENDBRANCH  29  31
ENDBRANCH  23  25
ENDBRANCH   1  21
BRANCH   1  38
HETATM   38  N11 UNL     1     -14.449  -7.751  23.049  1.00  0.00    -0.322 N
HETATM   39  C16 UNL     1     -15.705  -7.567  23.551  1.00  0.00     0.071 C
BRANCH  39  40
HETATM   40  C17 UNL     1     -16.499  -8.725  24.111  1.00  0.00     0.049 C
BRANCH  40  41
HETATM   41  C18 UNL     1     -17.787  -8.262  24.741  1.00  0.00    -0.010 C
HETATM   42  C19 UNL     1     -17.699  -7.485  26.010  1.00  0.00     0.005 C
HETATM   43  C20 UNL     1     -17.801  -8.840  26.742  1.00  0.00     0.001 C
HETATM   44  C21 UNL     1     -18.555  -9.313  25.491  1.00  0.00     0.005 C
ENDBRANCH  40  41
ENDBRANCH  39  40
BRANCH  38  45
HETATM   45  C22 UNL     1     -13.258  -7.785  23.773  1.00  0.00     0.075 C
BRANCH  45  46
HETATM   46  C23 UNL     1     -13.138  -7.758  25.229  1.00  0.00     0.025 C
HETATM   47  C24 UNL     1     -13.700  -8.810  26.109  1.00  0.00     0.010 C
HETATM   48  C25 UNL     1     -14.238  -7.749  27.069  1.00  0.00     0.001 C
HETATM   49  C26 UNL     1     -13.981  -6.738  25.984  1.00  0.00     0.010 C
ENDBRANCH  45  46
ENDBRANCH  38  45
ENDBRANCH   1  38
TORSDOF 15
ENDMDL