MODEL 3
REMARK VINA RESULT: -9.033480319      0.986      1.469
REMARK  17 active torsions:
REMARK  status: ('A' for Active; 'I' for Inactive)
REMARK    1  A    between atoms: C2_2  and  C4_4
REMARK    2  A    between atoms: C4_4  and  N1_5
REMARK    3  A    between atoms: C4_4  and  C5_9
REMARK    4  A    between atoms: C7_12  and  N2_13
REMARK       I    between atoms: N2_13  and  C8_15
REMARK    5  A    between atoms: C8_15  and  C9_17
REMARK    6  A    between atoms: C9_17  and  N3_18
REMARK    7  A    between atoms: C9_17  and  C10_22
REMARK    8  A    between atoms: C10_22  and  C11_23
REMARK    9  A    between atoms: C11_23  and  C12_24
REMARK   10  A    between atoms: C12_24  and  N4_25
REMARK   11  A    between atoms: C16_32  and  O3_33
REMARK   12  A    between atoms: O3_33  and  C17_34
REMARK   13  A    between atoms: C17_34  and  C18_35
REMARK   14  A    between atoms: C18_35  and  C19_36
REMARK   15  A    between atoms: C18_35  and  C20_41
REMARK   16  A    between atoms: C19_36  and  N7_37
REMARK   17  A    between atoms: C20_41  and  C21_42
ROOT
HETATM    1  C5  UNL     1     -14.875 -10.577  23.089  1.00  0.00     0.117 C
HETATM    2  C6  UNL     1     -14.244  -9.768  22.043  1.00  0.00     0.158 C
HETATM    3  O1  UNL     1     -13.078  -9.883  21.660  1.00  0.00    -0.295 OA
HETATM    4  C7  UNL     1     -15.025  -8.699  21.355  1.00  0.00     0.154 C
HETATM    5  C14 UNL     1     -16.448  -9.179  21.314  1.00  0.00     0.035 C
HETATM    6  C15 UNL     1     -16.967  -9.246  22.698  1.00  0.00     0.035 C
HETATM    7  C16 UNL     1     -15.997  -9.730  23.762  1.00  0.00     0.134 C
ENDROOT
BRANCH   7   8
HETATM    8  O3  UNL     1     -15.615  -8.796  24.511  1.00  0.00    -0.385 OA
BRANCH   8   9
HETATM    9  C17 UNL     1     -15.249  -7.895  25.271  1.00  0.00     0.174 C
BRANCH   9  10
HETATM   10  C18 UNL     1     -13.987  -8.181  26.127  1.00  0.00     0.039 C
BRANCH  10  11
HETATM   11  C19 UNL     1     -12.951  -7.115  25.909  1.00  0.00     0.236 C
BRANCH  11  12
HETATM   12  N7  UNL     1     -11.862  -7.478  25.063  1.00  0.00    -0.079 N
ATOM     13  H73 UNL     1     -11.598  -8.449  25.232  1.00  0.00     0.274 HD
ATOM     14  H72 UNL     1     -12.179  -7.542  24.096  1.00  0.00     0.274 HD
ATOM     15  H71 UNL     1     -11.040  -6.878  25.121  1.00  0.00     0.274 HD
ENDBRANCH  11  12
ENDBRANCH  10  11
BRANCH  10  16
HETATM   16  C20 UNL     1     -14.382  -8.280  27.585  1.00  0.00     0.049 C
BRANCH  16  17
HETATM   17  C21 UNL     1     -15.124  -9.539  27.851  1.00  0.00    -0.030 A
HETATM   18  C22 UNL     1     -14.521 -10.790  27.724  1.00  0.00     0.096 A
HETATM   19  N8  UNL     1     -15.410 -11.754  28.013  1.00  0.00    -0.365 N
HETATM   20  C23 UNL     1     -16.596 -11.163  28.332  1.00  0.00     0.042 A
ATOM     21  H8  UNL     1     -15.229 -12.758  27.997  1.00  0.00     0.165 HD
HETATM   22  C24 UNL     1     -17.811 -11.713  28.701  1.00  0.00     0.030 A
HETATM   23  C28 UNL     1     -16.406  -9.787  28.227  1.00  0.00    -0.002 A
HETATM   24  C25 UNL     1     -18.837 -10.842  28.964  1.00  0.00     0.002 A
HETATM   25  C26 UNL     1     -18.664  -9.475  28.865  1.00  0.00     0.001 A
HETATM   26  C27 UNL     1     -17.444  -8.922  28.494  1.00  0.00     0.014 A
ENDBRANCH  16  17
ENDBRANCH  10  16
ENDBRANCH   9  10
ENDBRANCH   8   9
ENDBRANCH   7   8
BRANCH   1  27
HETATM   27  C4  UNL     1     -15.391 -11.881  22.661  1.00  0.00     0.200 C
BRANCH  27  28
HETATM   28  C2  UNL     1     -14.704 -12.689  21.631  1.00  0.00     0.009 C
HETATM   29  C1  UNL     1     -13.511 -13.475  21.974  1.00  0.00     0.011 C
HETATM   30  C3  UNL     1     -15.707 -13.677  20.974  1.00  0.00     0.011 C
ENDBRANCH  27  28
BRANCH  27  31
HETATM   31  N1  UNL     1     -15.291 -12.818  23.873  1.00  0.00    -0.074 N
ATOM     32  H13 UNL     1     -15.183 -13.808  23.656  1.00  0.00     0.274 HD
ATOM     33  H12 UNL     1     -14.426 -12.752  24.410  1.00  0.00     0.274 HD
ATOM     34  H11 UNL     1     -16.142 -12.567  24.378  1.00  0.00     0.274 HD
ENDBRANCH  27  31
ENDBRANCH   1  27
BRANCH   4  35
HETATM   35  N2  UNL     1     -14.488  -8.404  20.054  1.00  0.00    -0.348 N
HETATM   36  C8  UNL     1     -14.118  -7.098  19.638  1.00  0.00     0.248 C
HETATM   37  O2  UNL     1     -14.289  -6.170  20.495  1.00  0.00    -0.271 OA
ATOM     38  H2  UNL     1     -14.366  -9.174  19.395  1.00  0.00     0.163 HD
BRANCH  36  39
HETATM   39  C9  UNL     1     -13.568  -6.740  18.327  1.00  0.00     0.274 C
BRANCH  39  40
HETATM   40  N3  UNL     1     -12.651  -7.682  17.764  1.00  0.00    -0.067 N
ATOM     41  H33 UNL     1     -12.801  -7.757  16.757  1.00  0.00     0.275 HD
ATOM     42  H32 UNL     1     -11.705  -7.299  17.778  1.00  0.00     0.275 HD
ATOM     43  H31 UNL     1     -12.657  -8.611  18.187  1.00  0.00     0.275 HD
ENDBRANCH  39  40
BRANCH  39  44
HETATM   44  C10 UNL     1     -14.652  -6.329  17.371  1.00  0.00     0.044 C
BRANCH  44  45
HETATM   45  C11 UNL     1     -14.295  -5.247  16.419  1.00  0.00     0.022 C
BRANCH  45  46
HETATM   46  C12 UNL     1     -13.662  -4.028  17.003  1.00  0.00     0.122 C
BRANCH  46  47
HETATM   47  N4  UNL     1     -12.415  -3.665  16.381  1.00  0.00    -0.367 N
HETATM   48  C13 UNL     1     -11.332  -3.427  17.055  1.00  0.00     0.196 C
HETATM   49  N5  UNL     1     -10.161  -3.078  16.362  1.00  0.00    -0.067 NA
HETATM   50  N6  UNL     1     -11.352  -3.523  18.470  1.00  0.00    -0.067 NA
ATOM     51  H4  UNL     1     -12.381  -3.590  15.364  1.00  0.00     0.161 HD
ENDBRANCH  46  47
ENDBRANCH  45  46
ENDBRANCH  44  45
ENDBRANCH  39  44
ENDBRANCH  36  39
ENDBRANCH   4  35
TORSDOF 17
ENDMDL