MODEL 1
REMARK VINA RESULT: -8.282226832      0.000      0.000
REMARK  20 active torsions:
REMARK  status: ('A' for Active; 'I' for Inactive)
REMARK    1  A    between atoms: C4_4  and  N1_5
REMARK    2  A    between atoms: N1_5  and  C5_7
REMARK    3  A    between atoms: C5_7  and  C6_8
REMARK    4  A    between atoms: C6_8  and  C7_9
REMARK    5  A    between atoms: C7_9  and  C8_10
REMARK    6  A    between atoms: C8_10  and  N2_11
REMARK    7  A    between atoms: N2_11  and  C9_13
REMARK    8  A    between atoms: C10_16  and  N4_17
REMARK    9  A    between atoms: N4_17  and  C11_19
REMARK   10  A    between atoms: C11_19  and  C12_20
REMARK   11  A    between atoms: C12_20  and  O1_21
REMARK   12  A    between atoms: C13_25  and  N6_26
REMARK   13  A    between atoms: N6_26  and  C14_27
REMARK   14  A    between atoms: C16_29  and  C17_30
REMARK   15  A    between atoms: C17_30  and  N7_31
REMARK   16  A    between atoms: N7_31  and  C18_33
REMARK   17  A    between atoms: C18_33  and  C19_34
REMARK   18  A    between atoms: C18_33  and  C20_36
REMARK   19  A    between atoms: C20_36  and  C21_37
REMARK   20  A    between atoms: C21_37  and  N8_38
ROOT
HETATM    1  C9  UNL     1     -14.229 -11.153  20.649  1.00  0.00     0.696 A
HETATM    2  N3  UNL     1     -14.113 -10.270  19.658  1.00  0.00    -0.022 N
ATOM      3  H3  UNL     1     -14.056 -10.629  18.705  1.00  0.00     0.203 HD
HETATM    4  C10 UNL     1     -14.065  -8.947  19.827  1.00  0.00     0.696 A
HETATM    5  N5  UNL     1     -14.140  -8.500  21.086  1.00  0.00    -0.148 N
ATOM      6  H5  UNL     1     -14.106  -7.493  21.244  1.00  0.00     0.188 HD
HETATM    7  C13 UNL     1     -14.261  -9.329  22.179  1.00  0.00     0.288 A
HETATM    8  N9  UNL     1     -14.302 -10.680  21.892  1.00  0.00    -0.148 N
ATOM      9  H9  UNL     1     -14.391 -11.342  22.663  1.00  0.00     0.188 HD
ENDROOT
BRANCH   7  10
HETATM   10  N6  UNL     1     -14.317  -8.881  23.284  1.00  0.00    -0.370 NA
BRANCH  10  11
HETATM   11  C14 UNL     1     -14.387  -8.452  24.532  1.00  0.00     0.117 A
HETATM   12  C15 UNL     1     -15.574  -8.636  25.273  1.00  0.00     0.054 A
HETATM   13  C16 UNL     1     -15.717  -8.231  26.565  1.00  0.00    -0.038 A
HETATM   14  C22 UNL     1     -14.640  -7.614  27.158  1.00  0.00     0.009 A
HETATM   15  C23 UNL     1     -13.458  -7.402  26.503  1.00  0.00     0.011 A
HETATM   16  C24 UNL     1     -13.336  -7.814  25.210  1.00  0.00    -0.021 A
HETATM   17  C25 UNL     1     -12.038  -7.574  24.496  1.00  0.00     0.052 C
BRANCH  13  18
HETATM   18  C17 UNL     1     -17.003  -8.427  27.350  1.00  0.00     0.153 C
BRANCH  18  19
HETATM   19  N7  UNL     1     -16.623  -9.063  28.552  1.00  0.00    -0.407 N
ATOM     20  H7  UNL     1     -15.680  -8.970  28.930  1.00  0.00     0.154 HD
BRANCH  19  21
HETATM   21  C18 UNL     1     -17.636  -9.858  29.225  1.00  0.00     0.140 C
BRANCH  21  22
HETATM   22  C19 UNL     1     -18.642  -9.053  29.897  1.00  0.00     0.255 C
HETATM   23  O2  UNL     1     -19.775  -8.843  29.422  1.00  0.00    -0.305 OA
ENDBRANCH  21  22
BRANCH  21  24
HETATM   24  C20 UNL     1     -18.164 -10.896  28.294  1.00  0.00     0.059 C
BRANCH  24  25
HETATM   25  C21 UNL     1     -18.259 -12.296  28.777  1.00  0.00     0.232 C
BRANCH  25  26
HETATM   26  N8  UNL     1     -17.191 -12.772  29.596  1.00  0.00    -0.079 N
ATOM     27  H83 UNL     1     -17.231 -12.315  30.507  1.00  0.00     0.274 HD
ATOM     28  H82 UNL     1     -17.373 -13.741  29.862  1.00  0.00     0.274 HD
ATOM     29  H81 UNL     1     -16.247 -12.694  29.218  1.00  0.00     0.274 HD
ENDBRANCH  25  26
ENDBRANCH  24  25
ENDBRANCH  21  24
ENDBRANCH  19  21
ENDBRANCH  18  19
ENDBRANCH  13  18
ENDBRANCH  10  11
ENDBRANCH   7  10
BRANCH   4  30
HETATM   30  N4  UNL     1     -13.946  -8.102  18.888  1.00  0.00    -0.223 N
ATOM     31  H4  UNL     1     -13.352  -8.400  18.113  1.00  0.00     0.177 HD
BRANCH  30  32
HETATM   32  C11 UNL     1     -14.511  -6.805  18.747  1.00  0.00     0.164 C
BRANCH  32  33
HETATM   33  C12 UNL     1     -13.490  -5.716  18.473  1.00  0.00     0.184 C
BRANCH  33  34
HETATM   34  O1  UNL     1     -13.727  -4.562  19.207  1.00  0.00    -0.399 OA
ATOM     35  H1  UNL     1     -13.337  -3.790  18.813  1.00  0.00     0.209 HD
ENDBRANCH  33  34
ENDBRANCH  32  33
ENDBRANCH  30  32
ENDBRANCH   4  30
BRANCH   1  36
HETATM   36  N2  UNL     1     -14.289 -12.435  20.484  1.00  0.00    -0.225 N
ATOM     37  H2  UNL     1     -13.690 -12.828  19.759  1.00  0.00     0.177 HD
BRANCH  36  38
HETATM   38  C8  UNL     1     -15.102 -13.357  21.207  1.00  0.00     0.138 C
BRANCH  38  39
HETATM   39  C7  UNL     1     -15.911 -14.263  20.337  1.00  0.00     0.022 C
BRANCH  39  40
HETATM   40  C6  UNL     1     -16.939 -15.017  21.125  1.00  0.00     0.021 C
BRANCH  40  41
HETATM   41  C5  UNL     1     -16.356 -16.054  22.065  1.00  0.00     0.120 C
BRANCH  41  42
HETATM   42  N1  UNL     1     -16.682 -15.811  23.424  1.00  0.00    -0.390 N
ATOM     43  H1  UNL     1     -17.629 -16.066  23.705  1.00  0.00     0.159 HD
BRANCH  42  44
HETATM   44  C4  UNL     1     -15.951 -15.320  24.335  1.00  0.00     0.031 A
HETATM   45  C3  UNL     1     -16.005 -14.031  24.790  1.00  0.00     0.053 A
HETATM   46  C2  UNL     1     -15.150 -13.629  25.790  1.00  0.00     0.007 A
HETATM   47  C1  UNL     1     -15.228 -12.211  26.279  1.00  0.00     0.068 C
HETATM   48  N10 UNL     1     -14.247 -14.454  26.349  1.00  0.00    -0.369 N
HETATM   49  C27 UNL     1     -14.190 -15.721  25.905  1.00  0.00     0.090 A
ATOM     50  H10 UNL     1     -13.624 -14.128  27.089  1.00  0.00     0.165 HD
HETATM   51  C26 UNL     1     -15.007 -16.170  24.926  1.00  0.00     0.046 A
ENDBRANCH  42  44
ENDBRANCH  41  42
ENDBRANCH  40  41
ENDBRANCH  39  40
ENDBRANCH  38  39
ENDBRANCH  36  38
ENDBRANCH   1  36
TORSDOF 20
ENDMDL