MODEL 1
REMARK VINA RESULT: -9.151065434      0.000      0.000
REMARK  16 active torsions:
REMARK  status: ('A' for Active; 'I' for Inactive)
REMARK    1  A    between atoms: C4_4  and  N1_5
REMARK    2  A    between atoms: N1_5  and  C5_7
REMARK    3  A    between atoms: N2_10  and  O1_11
REMARK    4  A    between atoms: C10_15  and  C11_16
REMARK       I    between atoms: C11_16  and  N3_18
REMARK    5  A    between atoms: N3_18  and  C12_20
REMARK    6  A    between atoms: C12_20  and  C13_21
REMARK    7  A    between atoms: C13_21  and  C14_22
REMARK    8  A    between atoms: C14_22  and  C15_23
REMARK    9  A    between atoms: C15_23  and  N4_24
REMARK       I    between atoms: N4_24  and  C16_26
REMARK   10  A    between atoms: N6_28  and  C17_30
REMARK   11  A    between atoms: C17_30  and  C18_31
REMARK   12  A    between atoms: C18_31  and  C19_32
REMARK   13  A    between atoms: C19_32  and  C20_33
REMARK   14  A    between atoms: C20_33  and  N7_35
REMARK   15  A    between atoms: N7_35  and  S1_37
REMARK   16  A    between atoms: C23_41  and  N8_42
ROOT
HETATM    1  C11 UNL     1     -12.746  -7.433  18.808  1.00  0.00     0.257 C
HETATM    2  O2  UNL     1     -11.806  -7.603  19.664  1.00  0.00    -0.267 OA
HETATM    3  N3  UNL     1     -13.921  -8.177  19.019  1.00  0.00    -0.357 N
ATOM      4  H3  UNL     1     -14.710  -8.078  18.381  1.00  0.00     0.162 HD
ENDROOT
BRANCH   1   5
HETATM    5  C10 UNL     1     -12.467  -6.486  17.735  1.00  0.00     0.102 A
HETATM    6  C4  UNL     1     -11.951  -6.965  16.535  1.00  0.00     0.054 A
HETATM    7  C3  UNL     1     -11.811  -6.045  15.502  1.00  0.00     0.055 A
HETATM    8  C2  UNL     1     -12.158  -4.729  15.640  1.00  0.00     0.009 A
HETATM    9  C1  UNL     1     -11.967  -3.827  14.466  1.00  0.00     0.068 C
HETATM   10  N9  UNL     1     -12.644  -4.292  16.789  1.00  0.00    -0.346 N
HETATM   11  C23 UNL     1     -12.810  -5.131  17.843  1.00  0.00     0.117 A
ATOM     12  H9  UNL     1     -12.897  -3.309  16.885  1.00  0.00     0.167 HD
BRANCH   6  13
HETATM   13  N1  UNL     1     -11.435  -8.261  16.366  1.00  0.00    -0.355 N
ATOM     14  H1  UNL     1     -11.657  -8.974  17.060  1.00  0.00     0.166 HD
BRANCH  13  15
HETATM   15  C5  UNL     1     -10.616  -8.611  15.262  1.00  0.00     0.035 A
HETATM   16  C6  UNL     1      -9.602  -7.865  14.726  1.00  0.00     0.049 A
HETATM   17  C7  UNL     1      -8.855  -8.313  13.649  1.00  0.00     0.124 A
HETATM   18  N2  UNL     1      -9.084  -9.506  13.066  1.00  0.00    -0.247 N
HETATM   19  C8  UNL     1     -10.074 -10.261  13.570  1.00  0.00     0.124 A
HETATM   20  C9  UNL     1     -10.836  -9.849  14.639  1.00  0.00     0.049 A
BRANCH  18  21
HETATM   21  O1  UNL     1      -8.346  -9.948  12.002  1.00  0.00    -0.284 OA
ATOM     22  H1  UNL     1      -8.119 -10.865  11.892  1.00  0.00     0.245 HD
ENDBRANCH  18  21
ENDBRANCH  13  15
ENDBRANCH   6  13
BRANCH  11  23
HETATM   23  N8  UNL     1     -13.292  -4.647  18.926  1.00  0.00    -0.385 N
ATOM     24  H82 UNL     1     -13.180  -5.188  19.784  1.00  0.00     0.157 HD
ATOM     25  H81 UNL     1     -13.770  -3.747  18.941  1.00  0.00     0.157 HD
ENDBRANCH  11  23
ENDBRANCH   1   5
BRANCH   3  26
HETATM   26  C12 UNL     1     -14.009  -9.099  20.160  1.00  0.00     0.123 C
BRANCH  26  27
HETATM   27  C13 UNL     1     -14.804  -8.535  21.283  1.00  0.00     0.021 C
BRANCH  27  28
HETATM   28  C14 UNL     1     -16.073  -9.364  21.460  1.00  0.00     0.021 C
BRANCH  28  29
HETATM   29  C15 UNL     1     -16.511  -9.429  22.897  1.00  0.00     0.122 C
BRANCH  29  30
HETATM   30  N4  UNL     1     -16.241  -8.161  23.530  1.00  0.00    -0.365 N
HETATM   31  C16 UNL     1     -16.942  -7.797  24.703  1.00  0.00     0.183 C
HETATM   32  N5  UNL     1     -18.144  -8.537  25.021  1.00  0.00    -0.064 NA
HETATM   33  N6  UNL     1     -16.574  -6.854  25.473  1.00  0.00    -0.365 N
ATOM     34  H6  UNL     1     -17.164  -6.689  26.289  1.00  0.00     0.162 HD
ATOM     35  H4  UNL     1     -15.546  -7.528  23.132  1.00  0.00     0.162 HD
BRANCH  33  36
HETATM   36  C17 UNL     1     -15.443  -6.002  25.341  1.00  0.00     0.122 C
BRANCH  36  37
HETATM   37  C18 UNL     1     -14.310  -6.441  26.273  1.00  0.00     0.022 C
BRANCH  37  38
HETATM   38  C19 UNL     1     -13.290  -7.127  25.389  1.00  0.00     0.027 C
BRANCH  38  39
HETATM   39  C20 UNL     1     -13.028  -8.550  25.859  1.00  0.00     0.088 C
HETATM   40  C21 UNL     1     -13.975  -8.871  27.007  1.00  0.00     0.033 C
BRANCH  39  41
HETATM   41  N7  UNL     1     -13.247  -9.510  24.826  1.00  0.00    -0.315 N
ATOM     42  H7  UNL     1     -14.176  -9.847  24.573  1.00  0.00     0.172 HD
BRANCH  41  43
HETATM   43  S1  UNL     1     -11.831 -10.046  24.050  1.00  0.00     0.223 S
HETATM   44  C22 UNL     1     -11.723 -11.814  23.959  1.00  0.00     0.185 C
HETATM   45  O3  UNL     1     -10.651  -9.586  24.897  1.00  0.00    -0.206 OA
HETATM   46  O4  UNL     1     -11.691  -9.482  22.689  1.00  0.00    -0.206 OA
ENDBRANCH  41  43
ENDBRANCH  39  41
ENDBRANCH  38  39
ENDBRANCH  37  38
ENDBRANCH  36  37
ENDBRANCH  33  36
ENDBRANCH  29  30
ENDBRANCH  28  29
ENDBRANCH  27  28
ENDBRANCH  26  27
ENDBRANCH   3  26
TORSDOF 16
ENDMDL