MODEL 5
REMARK VINA RESULT: -8.974783677      1.888      2.519
REMARK  17 active torsions:
REMARK  status: ('A' for Active; 'I' for Inactive)
REMARK    1  A    between atoms: C1_4  and  C2_6
REMARK    2  A    between atoms: C2_6  and  C3_7
REMARK    3  A    between atoms: C3_7  and  N3_8
REMARK       I    between atoms: N3_8  and  C4_10
REMARK       I    between atoms: C4_10  and  N4_12
REMARK    4  A    between atoms: N4_12  and  C5_14
REMARK    5  A    between atoms: N5_17  and  C8_18
REMARK       I    between atoms: N6_20  and  C10_21
REMARK    6  A    between atoms: C10_21  and  C11_23
REMARK    7  A    between atoms: C11_23  and  C12_24
REMARK    8  A    between atoms: C12_24  and  C13_25
REMARK    9  A    between atoms: C13_25  and  N7_26
REMARK   10  A    between atoms: C13_25  and  C20_39
REMARK       I    between atoms: N7_26  and  C14_28
REMARK   11  A    between atoms: C14_28  and  C15_30
REMARK   12  A    between atoms: C15_30  and  C16_31
REMARK   13  A    between atoms: C16_31  and  C17_32
REMARK   14  A    between atoms: C17_32  and  C18_33
REMARK   15  A    between atoms: C18_33  and  N8_34
REMARK   16  A    between atoms: C26_45  and  C27_46
REMARK   17  A    between atoms: C27_46  and  O4_47
ROOT
HETATM    1  C8  UNL     1       3.494 -14.373 -23.736  1.00  0.00     0.265 A
HETATM    2  C9  UNL     1       3.353 -14.116 -25.193  1.00  0.00     0.164 A
HETATM    3  N6  UNL     1       3.861 -12.751 -25.025  1.00  0.00    -0.341 N
HETATM    4  C10 UNL     1       4.056 -11.704 -25.964  1.00  0.00     0.220 C
HETATM    5  O2  UNL     1       3.830 -11.801 -27.193  1.00  0.00    -0.273 OA
HETATM    6  C26 UNL     1       4.057 -12.973 -23.609  1.00  0.00     0.145 A
ENDROOT
BRANCH   4   7
HETATM    7  C11 UNL     1       4.556 -10.415 -25.446  1.00  0.00     0.105 C
BRANCH   7   8
HETATM    8  C12 UNL     1       5.825  -9.927 -26.011  1.00  0.00     0.034 C
BRANCH   8   9
HETATM    9  C13 UNL     1       6.998  -9.759 -25.136  1.00  0.00     0.088 C
BRANCH   9  10
HETATM   10  N7  UNL     1       7.495 -11.127 -24.866  1.00  0.00    -0.356 N
HETATM   11  C14 UNL     1       7.416 -11.710 -23.588  1.00  0.00     0.217 C
HETATM   12  O3  UNL     1       6.919 -11.038 -22.651  1.00  0.00    -0.274 OA
ATOM     13  H7  UNL     1       7.906 -11.663 -25.629  1.00  0.00     0.162 HD
BRANCH  11  14
HETATM   14  C15 UNL     1       7.887 -13.076 -23.278  1.00  0.00     0.103 C
BRANCH  14  15
HETATM   15  C16 UNL     1       9.393 -13.212 -23.356  1.00  0.00     0.011 C
BRANCH  15  16
HETATM   16  C17 UNL     1       9.767 -14.225 -24.414  1.00  0.00     0.020 C
BRANCH  16  17
HETATM   17  C18 UNL     1      10.243 -15.545 -23.827  1.00  0.00     0.122 C
BRANCH  17  18
HETATM   18  N8  UNL     1       9.267 -16.595 -24.134  1.00  0.00    -0.367 N
HETATM   19  C19 UNL     1       8.552 -17.098 -23.202  1.00  0.00     0.196 C
HETATM   20  N9  UNL     1       8.686 -16.659 -21.860  1.00  0.00    -0.067 NA
HETATM   21  N10 UNL     1       7.596 -18.093 -23.499  1.00  0.00    -0.067 NA
ATOM     22  H8  UNL     1       9.159 -16.925 -25.093  1.00  0.00     0.161 HD
ENDBRANCH  17  18
ENDBRANCH  16  17
ENDBRANCH  15  16
ENDBRANCH  14  15
ENDBRANCH  11  14
ENDBRANCH   9  10
BRANCH   9  23
HETATM   23  C20 UNL     1       8.163  -8.998 -25.721  1.00  0.00     0.008 C
HETATM   24  C21 UNL     1       9.213  -9.844 -26.357  1.00  0.00     0.007 C
HETATM   25  C22 UNL     1      10.333  -8.933 -26.803  1.00  0.00     0.000 C
HETATM   26  C23 UNL     1      10.298  -7.574 -26.140  1.00  0.00     0.000 C
HETATM   27  C24 UNL     1       9.016  -6.837 -26.398  1.00  0.00     0.000 C
HETATM   28  C25 UNL     1       7.843  -7.832 -26.570  1.00  0.00     0.007 C
ENDBRANCH   9  23
ENDBRANCH   8   9
ENDBRANCH   7   8
ENDBRANCH   4   7
BRANCH   6  29
HETATM   29  C27 UNL     1       3.243 -12.106 -22.703  1.00  0.00     0.191 C
BRANCH  29  30
HETATM   30  O4  UNL     1       3.940 -11.169 -21.990  1.00  0.00    -0.399 OA
ATOM     31  H4  UNL     1       3.415 -10.554 -21.491  1.00  0.00     0.209 HD
ENDBRANCH  29  30
ENDBRANCH   6  29
BRANCH   1  32
HETATM   32  N5  UNL     1       2.273 -14.613 -23.060  1.00  0.00     0.099 N
HETATM   33  C7  UNL     1       2.253 -15.667 -22.104  1.00  0.00     0.275 C
HETATM   34  C6  UNL     1       0.999 -16.480 -22.280  1.00  0.00     0.057 C
HETATM   35  C5  UNL     1       0.144 -15.583 -23.163  1.00  0.00     0.116 C
HETATM   36  C28 UNL     1       1.173 -14.797 -23.962  1.00  0.00     0.298 C
BRANCH  35  37
HETATM   37  N4  UNL     1      -0.677 -16.451 -23.971  1.00  0.00    -0.337 N
HETATM   38  C4  UNL     1      -1.974 -16.851 -23.597  1.00  0.00     0.316 C
HETATM   39  N3  UNL     1      -2.731 -17.706 -24.414  1.00  0.00    -0.343 N
HETATM   40  O1  UNL     1      -2.492 -16.447 -22.505  1.00  0.00    -0.247 OA
ATOM     41  H3  UNL     1      -2.336 -18.032 -25.295  1.00  0.00     0.164 HD
ATOM     42  H4  UNL     1      -0.301 -16.792 -24.856  1.00  0.00     0.164 HD
BRANCH  39  43
HETATM   43  C3  UNL     1      -4.070 -18.136 -24.029  1.00  0.00     0.131 C
BRANCH  43  44
HETATM   44  C2  UNL     1      -4.129 -19.599 -23.735  1.00  0.00     0.092 C
BRANCH  44  45
HETATM   45  C1  UNL     1      -4.444 -19.851 -22.300  1.00  0.00     0.088 C
HETATM   46  N1  UNL     1      -4.138 -18.959 -21.447  1.00  0.00    -0.391 N
ATOM     47  H12 UNL     1      -4.353 -19.132 -20.465  1.00  0.00     0.157 HD
ATOM     48  H11 UNL     1      -3.690 -18.097 -21.758  1.00  0.00     0.157 HD
HETATM   49  N2  UNL     1      -5.072 -21.057 -21.864  1.00  0.00    -0.088 NA
ENDBRANCH  44  45
ENDBRANCH  43  44
ENDBRANCH  39  43
ENDBRANCH  35  37
ENDBRANCH   1  32
TORSDOF 17
ENDMDL