MODEL 1
REMARK VINA RESULT: -9.051713099      0.000      0.000
REMARK  18 active torsions:
REMARK  status: ('A' for Active; 'I' for Inactive)
REMARK    1  A    between atoms: C2_2  and  C4_4
REMARK    2  A    between atoms: C4_4  and  C5_5
REMARK    3  A    between atoms: C5_5  and  N1_6
REMARK    4  A    between atoms: C5_5  and  C9_16
REMARK       I    between atoms: N1_6  and  C6_8
REMARK    5  A    between atoms: C6_8  and  C7_10
REMARK    6  A    between atoms: C7_10  and  N2_12
REMARK       I    between atoms: C9_16  and  N3_18
REMARK    7  A    between atoms: N3_18  and  C10_20
REMARK    8  A    between atoms: C10_20  and  C11_21
REMARK    9  A    between atoms: C10_20  and  C26_47
REMARK       I    between atoms: C11_21  and  N4_23
REMARK   10  A    between atoms: N4_23  and  C12_25
REMARK   11  A    between atoms: C12_25  and  C14_27
REMARK       I    between atoms: C14_27  and  N5_29
REMARK   12  A    between atoms: N5_29  and  C15_31
REMARK   13  A    between atoms: C15_31  and  C16_32
REMARK   14  A    between atoms: C15_31  and  C20_36
REMARK   15  A    between atoms: C16_32  and  C17_33
REMARK       I    between atoms: C20_36  and  N6_38
REMARK   16  A    between atoms: N6_38  and  C21_40
REMARK   17  A    between atoms: C21_40  and  C22_41
REMARK   18  A    between atoms: C21_40  and  C23_44
ROOT
HETATM    1  C11 UNL     1       2.572 -14.153 -25.276  1.00  0.00     0.241 C
HETATM    2  O3  UNL     1       1.387 -14.023 -25.788  1.00  0.00    -0.271 OA
HETATM    3  N4  UNL     1       3.652 -13.606 -25.937  1.00  0.00    -0.346 N
ATOM      4  H4  UNL     1       4.601 -13.703 -25.577  1.00  0.00     0.163 HD
ENDROOT
BRANCH   1   5
HETATM    5  C10 UNL     1       2.574 -14.906 -24.004  1.00  0.00     0.180 C
BRANCH   5   6
HETATM    6  N3  UNL     1       3.727 -14.481 -23.200  1.00  0.00    -0.346 N
HETATM    7  C9  UNL     1       4.651 -15.420 -22.696  1.00  0.00     0.241 C
HETATM    8  O2  UNL     1       4.554 -16.642 -22.896  1.00  0.00    -0.271 OA
ATOM      9  H3  UNL     1       3.862 -13.489 -23.002  1.00  0.00     0.163 HD
BRANCH   7  10
HETATM   10  C5  UNL     1       5.844 -14.962 -21.867  1.00  0.00     0.177 C
BRANCH  10  11
HETATM   11  C4  UNL     1       5.408 -14.295 -20.645  1.00  0.00     0.038 C
BRANCH  11  12
HETATM   12  C2  UNL     1       4.229 -14.874 -19.918  1.00  0.00    -0.020 C
HETATM   13  C1  UNL     1       3.538 -13.740 -19.129  1.00  0.00     0.009 C
HETATM   14  C3  UNL     1       4.668 -15.876 -18.853  1.00  0.00     0.009 C
ENDBRANCH  11  12
ENDBRANCH  10  11
BRANCH  10  15
HETATM   15  N1  UNL     1       6.672 -14.200 -22.766  1.00  0.00    -0.346 N
HETATM   16  C6  UNL     1       7.673 -14.833 -23.585  1.00  0.00     0.248 C
HETATM   17  O1  UNL     1       7.806 -16.074 -23.479  1.00  0.00    -0.271 OA
ATOM     18  H1  UNL     1       6.546 -13.189 -22.823  1.00  0.00     0.163 HD
BRANCH  16  19
HETATM   19  C7  UNL     1       8.489 -14.040 -24.502  1.00  0.00     0.270 C
HETATM   20  C8  UNL     1       9.454 -13.112 -23.808  1.00  0.00     0.050 C
BRANCH  19  21
HETATM   21  N2  UNL     1       9.303 -14.945 -25.310  1.00  0.00    -0.067 N
ATOM     22  H23 UNL     1      10.294 -14.704 -25.285  1.00  0.00     0.275 HD
ATOM     23  H22 UNL     1       9.372 -15.877 -24.901  1.00  0.00     0.275 HD
ATOM     24  H21 UNL     1       8.931 -14.963 -26.260  1.00  0.00     0.275 HD
ENDBRANCH  19  21
ENDBRANCH  16  19
ENDBRANCH  10  15
ENDBRANCH   7  10
ENDBRANCH   5   6
BRANCH   5  25
HETATM   25  C26 UNL     1       1.318 -14.946 -23.232  1.00  0.00     0.009 C
HETATM   26  C27 UNL     1       1.431 -13.848 -22.144  1.00  0.00     0.012 C
HETATM   27  C28 UNL     1       1.183 -16.232 -22.409  1.00  0.00     0.012 C
ENDBRANCH   5  25
ENDBRANCH   1   5
BRANCH   3  28
HETATM   28  C12 UNL     1       3.375 -12.877 -27.181  1.00  0.00     0.172 C
HETATM   29  C13 UNL     1       4.206 -13.542 -28.283  1.00  0.00     0.042 C
BRANCH  28  30
HETATM   30  C14 UNL     1       3.703 -11.458 -27.057  1.00  0.00     0.240 C
HETATM   31  O4  UNL     1       4.051 -11.000 -25.943  1.00  0.00    -0.271 OA
HETATM   32  N5  UNL     1       3.633 -10.600 -28.161  1.00  0.00    -0.346 N
ATOM     33  H5  UNL     1       3.336 -10.984 -29.058  1.00  0.00     0.163 HD
BRANCH  32  34
HETATM   34  C15 UNL     1       3.963  -9.187 -28.086  1.00  0.00     0.177 C
BRANCH  34  35
HETATM   35  C16 UNL     1       3.196  -8.388 -29.102  1.00  0.00     0.038 C
BRANCH  35  36
HETATM   36  C17 UNL     1       1.726  -8.404 -29.036  1.00  0.00    -0.020 C
HETATM   37  C18 UNL     1       0.972  -7.624 -30.054  1.00  0.00     0.009 C
HETATM   38  C19 UNL     1       1.343  -7.825 -27.660  1.00  0.00     0.009 C
ENDBRANCH  35  36
ENDBRANCH  34  35
BRANCH  34  39
HETATM   39  C20 UNL     1       5.410  -9.026 -28.110  1.00  0.00     0.241 C
HETATM   40  O5  UNL     1       6.053  -9.253 -29.166  1.00  0.00    -0.271 OA
HETATM   41  N6  UNL     1       6.135  -8.617 -26.966  1.00  0.00    -0.346 N
ATOM     42  H6  UNL     1       5.595  -8.451 -26.116  1.00  0.00     0.163 HD
BRANCH  41  43
HETATM   43  C21 UNL     1       7.548  -8.412 -26.882  1.00  0.00     0.177 C
BRANCH  43  44
HETATM   44  C22 UNL     1       7.810  -6.996 -26.610  1.00  0.00     0.254 C
HETATM   45  N7  UNL     1       8.911  -6.624 -25.809  1.00  0.00    -0.060 NA
HETATM   46  O6  UNL     1       7.069  -6.107 -27.078  1.00  0.00    -0.275 OA
ENDBRANCH  43  44
BRANCH  43  47
HETATM   47  C23 UNL     1       8.086  -9.318 -25.788  1.00  0.00     0.009 C
HETATM   48  C24 UNL     1       8.849 -10.480 -26.379  1.00  0.00     0.012 C
HETATM   49  C25 UNL     1       7.058  -9.838 -24.845  1.00  0.00     0.012 C
ENDBRANCH  43  47
ENDBRANCH  41  43
ENDBRANCH  34  39
ENDBRANCH  32  34
ENDBRANCH  28  30
ENDBRANCH   3  28
TORSDOF 18
ENDMDL