MODEL 3
REMARK VINA RESULT: -7.869615191      2.096      6.407
REMARK  23 active torsions:
REMARK  status: ('A' for Active; 'I' for Inactive)
REMARK    1  A    between atoms: C2_2  and  C3_4
REMARK    2  A    between atoms: C3_4  and  N1_5
REMARK    3  A    between atoms: C3_4  and  C19_42
REMARK    4  A    between atoms: N1_5  and  C4_7
REMARK    5  A    between atoms: C4_7  and  N2_8
REMARK    6  A    between atoms: C4_7  and  C11_26
REMARK       I    between atoms: N2_8  and  C5_10
REMARK    7  A    between atoms: C5_10  and  C6_12
REMARK    8  A    between atoms: C6_12  and  C7_13
REMARK    9  A    between atoms: C7_13  and  C8_14
REMARK   10  A    between atoms: C8_14  and  N3_15
REMARK   11  A    between atoms: C9_17  and  N4_19
REMARK   12  A    between atoms: N4_19  and  N5_21
REMARK   13  A    between atoms: N5_21  and  N6_23
REMARK   14  A    between atoms: C11_26  and  N7_27
REMARK   15  A    between atoms: C11_26  and  C12_31
REMARK   16  A    between atoms: C12_31  and  C13_32
REMARK   17  A    between atoms: C13_32  and  N8_33
REMARK       I    between atoms: N8_33  and  C14_35
REMARK   18  A    between atoms: C14_35  and  O4_37
REMARK   19  A    between atoms: O4_37  and  C15_38
REMARK       I    between atoms: C19_42  and  N9_44
REMARK   20  A    between atoms: N9_44  and  C20_46
REMARK   21  A    between atoms: C20_46  and  C21_47
REMARK   22  A    between atoms: C20_46  and  C25_51
REMARK   23  A    between atoms: C21_47  and  C22_48
ROOT
HETATM    1  C4  UNL     1       5.582 -14.646 -20.762  1.00  0.00     0.211 C
ENDROOT
BRANCH   1   2
HETATM    2  N1  UNL     1       5.953 -15.342 -21.915  1.00  0.00    -0.381 N
ATOM      3  H1  UNL     1       6.775 -15.939 -21.824  1.00  0.00     0.156 HD
BRANCH   2   4
HETATM    4  C3  UNL     1       5.361 -15.331 -23.155  1.00  0.00     0.241 C
BRANCH   4   5
HETATM    5  C2  UNL     1       5.170 -16.713 -23.734  1.00  0.00     0.154 C
HETATM    6  C1  UNL     1       3.876 -17.113 -24.354  1.00  0.00     0.093 C
HETATM    7  O1  UNL     1       6.051 -17.546 -23.709  1.00  0.00    -0.296 OA
ENDBRANCH   4   5
BRANCH   4   8
HETATM    8  C19 UNL     1       5.813 -14.394 -24.211  1.00  0.00     0.247 C
HETATM    9  O5  UNL     1       6.976 -14.452 -24.634  1.00  0.00    -0.271 OA
HETATM   10  N9  UNL     1       4.869 -13.474 -24.683  1.00  0.00    -0.354 N
ATOM     11  H9  UNL     1       3.935 -13.501 -24.273  1.00  0.00     0.162 HD
BRANCH  10  12
HETATM   12  C20 UNL     1       5.127 -12.467 -25.733  1.00  0.00     0.088 C
BRANCH  12  13
HETATM   13  C21 UNL     1       4.665 -11.175 -25.117  1.00  0.00     0.029 C
BRANCH  13  14
HETATM   14  C22 UNL     1       5.508  -9.981 -25.337  1.00  0.00    -0.021 C
HETATM   15  C23 UNL     1       5.277  -9.255 -26.635  1.00  0.00     0.009 C
HETATM   16  C24 UNL     1       6.956 -10.525 -25.441  1.00  0.00     0.009 C
ENDBRANCH  13  14
ENDBRANCH  12  13
BRANCH  12  17
HETATM   17  C25 UNL     1       4.428 -12.916 -26.946  1.00  0.00     0.000 C
HETATM   18  C26 UNL     1       2.943 -12.649 -26.965  1.00  0.00     0.011 C
HETATM   19  C27 UNL     1       5.033 -12.599 -28.269  1.00  0.00     0.011 C
ENDBRANCH  12  17
ENDBRANCH  10  12
ENDBRANCH   4   8
ENDBRANCH   2   4
ENDBRANCH   1   2
BRANCH   1  20
HETATM   20  N2  UNL     1       6.749 -14.645 -19.853  1.00  0.00    -0.338 N
HETATM   21  C5  UNL     1       7.829 -13.750 -20.089  1.00  0.00     0.219 C
HETATM   22  O2  UNL     1       7.904 -12.941 -21.038  1.00  0.00    -0.274 OA
ATOM     23  H2  UNL     1       6.778 -15.285 -19.059  1.00  0.00     0.164 HD
BRANCH  21  24
HETATM   24  C6  UNL     1       8.997 -13.750 -19.139  1.00  0.00     0.104 C
BRANCH  24  25
HETATM   25  C7  UNL     1      10.117 -14.523 -19.744  1.00  0.00     0.029 C
BRANCH  25  26
HETATM   26  C8  UNL     1       9.709 -15.984 -19.844  1.00  0.00     0.121 C
BRANCH  26  27
HETATM   27  N3  UNL     1       9.767 -16.360 -21.234  1.00  0.00    -0.379 N
HETATM   28  C9  UNL     1       9.003 -17.282 -21.676  1.00  0.00     0.089 C
HETATM   29  C10 UNL     1       8.056 -17.973 -20.776  1.00  0.00     0.090 C
ATOM     30  H3  UNL     1      10.417 -15.890 -21.864  1.00  0.00     0.160 HD
BRANCH  28  31
HETATM   31  N4  UNL     1       9.036 -17.645 -23.042  1.00  0.00    -0.276 N
ATOM     32  H4  UNL     1       9.247 -18.611 -23.292  1.00  0.00     0.189 HD
BRANCH  31  33
HETATM   33  N5  UNL     1       8.791 -16.728 -24.052  1.00  0.00    -0.248 N
ATOM     34  H5  UNL     1       7.860 -16.680 -24.467  1.00  0.00     0.207 HD
BRANCH  33  35
HETATM   35  N6  UNL     1       9.712 -15.933 -24.477  1.00  0.00    -0.331 N
ATOM     36  H62 UNL     1      10.511 -15.752 -23.870  1.00  0.00     0.178 HD
ATOM     37  H61 UNL     1       9.653 -15.493 -25.395  1.00  0.00     0.178 HD
ENDBRANCH  33  35
ENDBRANCH  31  33
ENDBRANCH  28  31
ENDBRANCH  26  27
ENDBRANCH  25  26
ENDBRANCH  24  25
ENDBRANCH  21  24
ENDBRANCH   1  20
BRANCH   1  38
HETATM   38  C11 UNL     1       4.443 -15.226 -20.015  1.00  0.00     0.230 C
BRANCH  38  39
HETATM   39  N7  UNL     1       4.755 -16.422 -19.298  1.00  0.00    -0.071 N
ATOM     40  H73 UNL     1       3.950 -16.731 -18.754  1.00  0.00     0.274 HD
ATOM     41  H72 UNL     1       4.845 -17.209 -19.940  1.00  0.00     0.274 HD
ATOM     42  H71 UNL     1       5.581 -16.351 -18.703  1.00  0.00     0.274 HD
ENDBRANCH  38  39
BRANCH  38  43
HETATM   43  C12 UNL     1       3.814 -14.270 -19.001  1.00  0.00     0.081 C
BRANCH  43  44
HETATM   44  C13 UNL     1       2.889 -13.312 -19.634  1.00  0.00     0.068 C
BRANCH  44  45
HETATM   45  N8  UNL     1       1.879 -13.609 -20.518  1.00  0.00    -0.316 N
HETATM   46  C14 UNL     1       1.838 -13.465 -21.920  1.00  0.00     0.365 C
HETATM   47  O3  UNL     1       2.834 -12.990 -22.583  1.00  0.00    -0.238 OA
ATOM     48  H8  UNL     1       1.033 -13.992 -20.096  1.00  0.00     0.170 HD
BRANCH  46  49
HETATM   49  O4  UNL     1       0.744 -13.798 -22.674  1.00  0.00    -0.294 OA
BRANCH  49  50
HETATM   50  C15 UNL     1       0.384 -15.002 -23.255  1.00  0.00     0.061 C
HETATM   51  C16 UNL     1       0.761 -16.238 -22.512  1.00  0.00     0.046 C
HETATM   52  C17 UNL     1       0.963 -15.084 -24.657  1.00  0.00     0.046 C
HETATM   53  C18 UNL     1      -1.148 -15.053 -23.445  1.00  0.00     0.046 C
ENDBRANCH  49  50
ENDBRANCH  46  49
ENDBRANCH  44  45
ENDBRANCH  43  44
ENDBRANCH  38  43
ENDBRANCH   1  38
TORSDOF 23
ENDMDL