MODEL 1
REMARK VINA RESULT: -9.849793181      0.000      0.000
REMARK  19 active torsions:
REMARK  status: ('A' for Active; 'I' for Inactive)
REMARK       I    between atoms: C1_2  and  N6_41
REMARK    1  A    between atoms: N2_3  and  C2_5
REMARK    2  A    between atoms: C2_5  and  C3_6
REMARK    3  A    between atoms: C3_6  and  C4_7
REMARK    4  A    between atoms: C4_7  and  C5_8
REMARK    5  A    between atoms: C5_8  and  C6_9
REMARK    6  A    between atoms: C6_9  and  C7_10
REMARK    7  A    between atoms: C7_10  and  C8_11
REMARK    8  A    between atoms: C8_11  and  C9_12
REMARK    9  A    between atoms: C9_12  and  C10_13
REMARK   10  A    between atoms: C10_13  and  C11_14
REMARK   11  A    between atoms: C11_14  and  C12_15
REMARK   12  A    between atoms: C12_15  and  C13_16
REMARK   13  A    between atoms: C13_16  and  C14_17
REMARK   14  A    between atoms: C15_20  and  O1_21
REMARK   15  A    between atoms: C16_23  and  C17_24
REMARK   16  A    between atoms: C17_24  and  C18_25
REMARK   17  A    between atoms: C18_25  and  C19_26
REMARK   18  A    between atoms: C23_38  and  O6_39
REMARK       I    between atoms: N6_41  and  C24_42
REMARK   19  A    between atoms: C24_42  and  C25_44
ROOT
HETATM    1  C12 UNL     1       0.777 -16.294 -21.861  1.00  0.00    -0.025 C
ENDROOT
BRANCH   1   2
HETATM    2  C11 UNL     1       1.797 -15.339 -22.265  1.00  0.00    -0.030 C
BRANCH   2   3
HETATM    3  C10 UNL     1       1.645 -13.886 -22.100  1.00  0.00     0.027 C
BRANCH   3   4
HETATM    4  C9  UNL     1       2.808 -13.188 -21.397  1.00  0.00     0.004 C
BRANCH   4   5
HETATM    5  C8  UNL     1       2.552 -13.126 -19.911  1.00  0.00     0.000 C
BRANCH   5   6
HETATM    6  C7  UNL     1       3.601 -13.766 -19.087  1.00  0.00     0.000 C
BRANCH   6   7
HETATM    7  C6  UNL     1       4.350 -14.926 -19.563  1.00  0.00     0.000 C
BRANCH   7   8
HETATM    8  C5  UNL     1       5.818 -15.081 -19.374  1.00  0.00     0.000 C
BRANCH   8   9
HETATM    9  C4  UNL     1       6.621 -13.929 -19.770  1.00  0.00     0.002 C
BRANCH   9  10
HETATM   10  C3  UNL     1       8.071 -13.917 -19.392  1.00  0.00     0.020 C
BRANCH  10  11
HETATM   11  C2  UNL     1       8.845 -15.140 -19.932  1.00  0.00     0.123 C
BRANCH  11  12
HETATM   12  N2  UNL     1       9.998 -14.550 -20.620  1.00  0.00    -0.353 N
HETATM   13  C1  UNL     1      10.221 -15.103 -21.843  1.00  0.00     0.266 C
HETATM   14  N1  UNL     1      11.402 -14.480 -22.430  1.00  0.00    -0.049 NA
HETATM   15  N6  UNL     1       9.349 -15.878 -22.462  1.00  0.00    -0.336 NA
HETATM   16  C24 UNL     1       8.432 -16.701 -23.124  1.00  0.00     0.325 C
HETATM   17  O7  UNL     1       8.634 -17.518 -24.049  1.00  0.00    -0.255 OA
ATOM     18  H2  UNL     1      10.572 -13.806 -20.224  1.00  0.00     0.163 HD
BRANCH  16  19
HETATM   19  C25 UNL     1       6.970 -16.597 -22.718  1.00  0.00     0.292 C
HETATM   20  C26 UNL     1       6.658 -15.122 -23.174  1.00  0.00     0.045 C
HETATM   21  C27 UNL     1       5.432 -15.234 -24.040  1.00  0.00     0.030 C
HETATM   22  C28 UNL     1       4.882 -16.617 -23.692  1.00  0.00     0.233 C
HETATM   23  N7  UNL     1       6.119 -17.405 -23.533  1.00  0.00    -0.061 N
ATOM     24  H72 UNL     1       6.542 -17.692 -24.415  1.00  0.00     0.278 HD
ATOM     25  H71 UNL     1       5.966 -18.344 -23.167  1.00  0.00     0.278 HD
ENDBRANCH  16  19
ENDBRANCH  11  12
ENDBRANCH  10  11
ENDBRANCH   9  10
ENDBRANCH   8   9
ENDBRANCH   7   8
ENDBRANCH   6   7
ENDBRANCH   5   6
ENDBRANCH   4   5
ENDBRANCH   3   4
ENDBRANCH   2   3
ENDBRANCH   1   2
BRANCH   1  26
HETATM   26  C13 UNL     1      -0.083 -17.037 -22.768  1.00  0.00     0.087 C
BRANCH  26  27
HETATM   27  C14 UNL     1      -1.589 -16.782 -22.678  1.00  0.00     0.053 C
HETATM   28  N3  UNL     1      -2.165 -17.290 -21.494  1.00  0.00    -0.340 N
HETATM   29  C15 UNL     1      -3.433 -17.427 -20.972  1.00  0.00     0.139 C
ATOM     30  H3  UNL     1      -1.455 -17.652 -20.857  1.00  0.00     0.167 HD
HETATM   31  C16 UNL     1      -4.623 -18.160 -21.294  1.00  0.00     0.159 C
HETATM   32  N4  UNL     1      -5.798 -17.322 -21.384  1.00  0.00    -0.348 N
HETATM   33  C20 UNL     1      -5.793 -15.981 -21.814  1.00  0.00     0.236 C
ATOM     34  H4  UNL     1      -6.694 -17.732 -21.118  1.00  0.00     0.163 HD
HETATM   35  O4  UNL     1      -6.515 -15.158 -21.176  1.00  0.00    -0.272 OA
HETATM   36  C21 UNL     1      -5.013 -15.448 -22.952  1.00  0.00     0.225 C
HETATM   37  N5  UNL     1      -4.107 -14.400 -22.540  1.00  0.00    -0.346 N
HETATM   38  C22 UNL     1      -2.716 -14.390 -22.888  1.00  0.00     0.277 C
ATOM     39  H5  UNL     1      -4.473 -13.634 -21.976  1.00  0.00     0.163 HD
HETATM   40  O5  UNL     1      -2.221 -13.199 -22.854  1.00  0.00    -0.265 OA
HETATM   41  C23 UNL     1      -1.889 -15.501 -23.242  1.00  0.00     0.157 C
BRANCH  29  42
HETATM   42  O1  UNL     1      -3.648 -16.697 -19.891  1.00  0.00    -0.348 OA
ATOM     43  H1  UNL     1      -4.117 -17.156 -19.204  1.00  0.00     0.219 HD
ENDBRANCH  29  42
BRANCH  31  44
HETATM   44  C17 UNL     1      -4.572 -19.185 -22.391  1.00  0.00     0.044 C
BRANCH  44  45
HETATM   45  C18 UNL     1      -5.964 -19.874 -22.436  1.00  0.00     0.116 C
BRANCH  45  46
HETATM   46  C19 UNL     1      -6.036 -21.017 -21.509  1.00  0.00     0.172 C
HETATM   47  O2  UNL     1      -5.141 -21.856 -21.408  1.00  0.00    -0.648 OA
HETATM   48  O3  UNL     1      -7.179 -21.170 -20.695  1.00  0.00    -0.648 OA
ENDBRANCH  45  46
ENDBRANCH  44  45
ENDBRANCH  31  44
BRANCH  41  49
HETATM   49  O6  UNL     1      -1.231 -15.317 -24.362  1.00  0.00    -0.354 OA
ATOM     50  H6  UNL     1      -1.784 -14.905 -25.016  1.00  0.00     0.218 HD
ENDBRANCH  41  49
ENDBRANCH  26  27
ENDBRANCH   1  26
TORSDOF 19
ENDMDL