MODEL 3
REMARK VINA RESULT: -8.890200554      2.268      3.687
REMARK  18 active torsions:
REMARK  status: ('A' for Active; 'I' for Inactive)
REMARK    1  A    between atoms: C1_2  and  C2_4
REMARK    2  A    between atoms: C2_4  and  C3_5
REMARK    3  A    between atoms: C3_5  and  C4_6
REMARK    4  A    between atoms: C3_5  and  N6_19
REMARK    5  A    between atoms: C4_6  and  N2_7
REMARK    6  A    between atoms: C4_6  and  C5_11
REMARK    7  A    between atoms: C5_11  and  C6_12
REMARK    8  A    between atoms: C6_12  and  C7_13
REMARK    9  A    between atoms: C7_13  and  N3_14
REMARK   10  A    between atoms: C12_23  and  C13_24
REMARK       I    between atoms: C13_24  and  N7_26
REMARK   11  A    between atoms: N7_26  and  C14_28
REMARK   12  A    between atoms: C14_28  and  C15_29
REMARK   13  A    between atoms: C14_28  and  C24_42
REMARK   14  A    between atoms: C15_29  and  C16_30
REMARK   15  A    between atoms: C16_30  and  C17_31
REMARK       I    between atoms: N8_32  and  C18_34
REMARK       I    between atoms: C18_34  and  N9_36
REMARK   16  A    between atoms: C24_42  and  C25_43
REMARK   17  A    between atoms: C25_43  and  C26_44
REMARK   18  A    between atoms: C26_44  and  N10_45
ROOT
HETATM    1  C13 UNL     1       6.741 -13.947 -20.641  1.00  0.00     0.240 C
HETATM    2  O2  UNL     1       7.253 -13.301 -19.657  1.00  0.00    -0.271 OA
HETATM    3  N7  UNL     1       7.587 -14.194 -21.736  1.00  0.00    -0.355 N
ATOM      4  H7  UNL     1       7.219 -14.714 -22.533  1.00  0.00     0.162 HD
ENDROOT
BRANCH   1   5
HETATM    5  C12 UNL     1       5.322 -14.352 -20.496  1.00  0.00     0.176 C
HETATM    6  N6  UNL     1       4.840 -15.107 -21.535  1.00  0.00    -0.373 N
HETATM    7  C9  UNL     1       5.029 -16.491 -21.361  1.00  0.00     0.059 C
HETATM    8  C10 UNL     1       5.589 -16.715 -19.975  1.00  0.00     0.047 C
HETATM    9  C11 UNL     1       5.376 -15.368 -19.315  1.00  0.00     0.040 C
BRANCH   6  10
HETATM   10  C3  UNL     1       3.679 -14.717 -22.310  1.00  0.00     0.123 C
BRANCH  10  11
HETATM   11  C2  UNL     1       2.748 -15.814 -22.651  1.00  0.00     0.126 C
BRANCH  11  12
HETATM   12  C1  UNL     1       1.332 -15.667 -22.273  1.00  0.00     0.233 C
HETATM   13  N1  UNL     1       0.600 -16.818 -21.909  1.00  0.00    -0.062 NA
HETATM   14  O1  UNL     1       0.736 -14.570 -22.259  1.00  0.00    -0.277 OA
ENDBRANCH  11  12
ENDBRANCH  10  11
BRANCH  10  15
HETATM   15  C4  UNL     1       4.209 -13.961 -23.449  1.00  0.00     0.206 C
BRANCH  15  16
HETATM   16  N2  UNL     1       3.232 -12.852 -23.692  1.00  0.00    -0.073 N
ATOM     17  H23 UNL     1       2.316 -13.014 -23.271  1.00  0.00     0.274 HD
ATOM     18  H22 UNL     1       3.450 -11.996 -23.182  1.00  0.00     0.274 HD
ATOM     19  H21 UNL     1       3.199 -12.727 -24.704  1.00  0.00     0.274 HD
ENDBRANCH  15  16
BRANCH  15  20
HETATM   20  C5  UNL     1       4.691 -14.474 -24.709  1.00  0.00     0.036 C
BRANCH  20  21
HETATM   21  C6  UNL     1       6.047 -14.099 -25.155  1.00  0.00     0.022 C
BRANCH  21  22
HETATM   22  C7  UNL     1       6.060 -13.716 -26.649  1.00  0.00     0.122 C
BRANCH  22  23
HETATM   23  N3  UNL     1       4.739 -13.407 -27.109  1.00  0.00    -0.367 N
HETATM   24  C8  UNL     1       4.522 -12.901 -28.264  1.00  0.00     0.196 C
HETATM   25  N4  UNL     1       3.179 -12.624 -28.639  1.00  0.00    -0.067 NA
HETATM   26  N5  UNL     1       5.556 -12.605 -29.194  1.00  0.00    -0.067 NA
ATOM     27  H3  UNL     1       3.946 -13.597 -26.496  1.00  0.00     0.161 HD
ENDBRANCH  22  23
ENDBRANCH  21  22
ENDBRANCH  20  21
ENDBRANCH  15  20
ENDBRANCH  10  15
ENDBRANCH   6  10
ENDBRANCH   1   5
BRANCH   3  28
HETATM   28  C14 UNL     1       8.972 -13.737 -21.776  1.00  0.00     0.084 C
BRANCH  28  29
HETATM   29  C15 UNL     1       9.260 -12.987 -23.030  1.00  0.00     0.030 C
BRANCH  29  30
HETATM   30  C16 UNL     1       8.394 -11.820 -23.326  1.00  0.00     0.046 C
BRANCH  30  31
HETATM   31  C17 UNL     1       8.636 -11.075 -24.551  1.00  0.00     0.065 C
HETATM   32  N8  UNL     1       7.804 -10.519 -25.323  1.00  0.00    -0.323 N
HETATM   33  C18 UNL     1       6.419 -10.436 -25.258  1.00  0.00     0.322 C
ATOM     34  H8  UNL     1       8.220 -10.053 -26.129  1.00  0.00     0.169 HD
HETATM   35  O3  UNL     1       5.810 -10.807 -24.225  1.00  0.00    -0.247 OA
HETATM   36  N9  UNL     1       5.634  -9.936 -26.336  1.00  0.00    -0.334 N
HETATM   37  C19 UNL     1       4.196  -9.884 -26.206  1.00  0.00     0.127 C
HETATM   38  C23 UNL     1       6.213  -9.468 -27.576  1.00  0.00     0.127 C
HETATM   39  C20 UNL     1       3.603  -8.579 -26.650  1.00  0.00     0.020 C
HETATM   40  C21 UNL     1       4.237  -8.034 -27.887  1.00  0.00     0.003 C
HETATM   41  C22 UNL     1       5.068  -9.126 -28.509  1.00  0.00     0.020 C
ENDBRANCH  30  31
ENDBRANCH  29  30
ENDBRANCH  28  29
BRANCH  28  42
HETATM   42  C24 UNL     1       9.897 -14.829 -21.401  1.00  0.00     0.027 C
BRANCH  42  43
HETATM   43  C25 UNL     1      10.947 -15.159 -22.429  1.00  0.00     0.022 C
BRANCH  43  44
HETATM   44  C26 UNL     1      10.427 -16.249 -23.356  1.00  0.00     0.122 C
BRANCH  44  45
HETATM   45  N10 UNL     1       9.893 -17.324 -22.551  1.00  0.00    -0.367 N
HETATM   46  C27 UNL     1       8.641 -17.642 -22.687  1.00  0.00     0.196 C
HETATM   47  N11 UNL     1       7.837 -16.951 -23.595  1.00  0.00    -0.067 NA
HETATM   48  N12 UNL     1       8.074 -18.700 -21.896  1.00  0.00    -0.067 NA
ATOM     49  H10 UNL     1      10.488 -17.822 -21.889  1.00  0.00     0.161 HD
ENDBRANCH  44  45
ENDBRANCH  43  44
ENDBRANCH  42  43
ENDBRANCH  28  42
ENDBRANCH   3  28
TORSDOF 18
ENDMDL