MODEL 1
REMARK VINA RESULT: -9.257521646      0.000      0.000
REMARK  19 active torsions:
REMARK  status: ('A' for Active; 'I' for Inactive)
REMARK       I    between atoms: C2_2  and  N1_4
REMARK    1  A    between atoms: N1_4  and  C3_5
REMARK    2  A    between atoms: C3_5  and  C4_6
REMARK    3  A    between atoms: C4_6  and  C5_7
REMARK    4  A    between atoms: C5_7  and  C6_8
REMARK    5  A    between atoms: C6_8  and  C7_9
REMARK    6  A    between atoms: C7_9  and  N2_10
REMARK    7  A    between atoms: C7_9  and  C8_14
REMARK    8  A    between atoms: C8_14  and  C9_15
REMARK       I    between atoms: C9_15  and  N3_17
REMARK    9  A    between atoms: N3_17  and  C10_19
REMARK   10  A    between atoms: C10_19  and  C11_20
REMARK   11  A    between atoms: C11_20  and  C12_21
REMARK   12  A    between atoms: C12_21  and  C13_22
REMARK   13  A    between atoms: C13_22  and  C15_24
REMARK   14  A    between atoms: C16_27  and  O3_28
REMARK   15  A    between atoms: C17_30  and  C18_31
REMARK   16  A    between atoms: C19_32  and  C20_33
REMARK   17  A    between atoms: C20_33  and  C21_34
REMARK   18  A    between atoms: C21_34  and  N5_35
REMARK   19  A    between atoms: C25_46  and  C26_47
ROOT
HETATM    1  C15 UNL     1       5.774 -12.903 -23.671  1.00  0.00     0.204 C
HETATM    2  N4  UNL     1       6.870 -13.601 -24.421  1.00  0.00    -0.357 N
ATOM      3  H4  UNL     1       6.962 -13.347 -25.405  1.00  0.00     0.162 HD
HETATM    4  C16 UNL     1       7.770 -14.538 -23.960  1.00  0.00     0.127 C
HETATM    5  C17 UNL     1       8.001 -15.427 -22.797  1.00  0.00     0.157 C
HETATM    6  C22 UNL     1       7.495 -16.777 -22.885  1.00  0.00     0.180 C
HETATM    7  O4  UNL     1       8.127 -17.487 -23.696  1.00  0.00    -0.291 OA
HETATM    8  C23 UNL     1       6.374 -17.453 -22.198  1.00  0.00     0.142 C
HETATM    9  N6  UNL     1       5.833 -16.951 -20.998  1.00  0.00    -0.332 N
ATOM     10  H6  UNL     1       6.523 -16.869 -20.251  1.00  0.00     0.168 HD
HETATM   11  C24 UNL     1       4.535 -16.536 -20.603  1.00  0.00     0.244 C
HETATM   12  O5  UNL     1       3.951 -16.996 -19.601  1.00  0.00    -0.271 OA
HETATM   13  C25 UNL     1       3.721 -15.482 -21.368  1.00  0.00     0.180 C
HETATM   14  N7  UNL     1       4.594 -14.827 -22.292  1.00  0.00    -0.345 N
ATOM     15  H7  UNL     1       4.697 -15.440 -23.101  1.00  0.00     0.163 HD
HETATM   16  C29 UNL     1       5.340 -13.720 -22.528  1.00  0.00     0.245 C
HETATM   17  O6  UNL     1       5.892 -13.110 -21.537  1.00  0.00    -0.271 OA
ENDROOT
BRANCH   1  18
HETATM   18  C13 UNL     1       6.103 -11.497 -23.324  1.00  0.00    -0.056 C
HETATM   19  C14 UNL     1       5.014 -10.471 -23.395  1.00  0.00     0.046 C
BRANCH  18  20
HETATM   20  C12 UNL     1       7.338 -10.882 -23.829  1.00  0.00    -0.020 C
BRANCH  20  21
HETATM   21  C11 UNL     1       7.355  -9.853 -24.877  1.00  0.00     0.047 C
BRANCH  21  22
HETATM   22  C10 UNL     1       7.470 -10.575 -26.246  1.00  0.00     0.126 C
BRANCH  22  23
HETATM   23  N3  UNL     1       6.199 -10.939 -26.781  1.00  0.00    -0.361 N
HETATM   24  C9  UNL     1       6.099 -12.221 -27.427  1.00  0.00     0.219 C
HETATM   25  O2  UNL     1       7.123 -12.946 -27.467  1.00  0.00    -0.274 OA
ATOM     26  H3  UNL     1       5.395 -10.317 -26.708  1.00  0.00     0.162 HD
BRANCH  24  27
HETATM   27  C8  UNL     1       4.854 -12.704 -28.045  1.00  0.00     0.135 C
BRANCH  27  28
HETATM   28  C7  UNL     1       4.559 -11.927 -29.303  1.00  0.00     0.192 C
BRANCH  28  29
HETATM   29  C6  UNL     1       3.107 -11.469 -29.233  1.00  0.00     0.033 C
BRANCH  29  30
HETATM   30  C5  UNL     1       2.984 -10.174 -28.473  1.00  0.00     0.008 C
BRANCH  30  31
HETATM   31  C4  UNL     1       2.363  -9.115 -29.279  1.00  0.00     0.060 C
BRANCH  31  32
HETATM   32  C3  UNL     1       1.481  -8.146 -28.508  1.00  0.00     0.159 C
BRANCH  32  33
HETATM   33  N1  UNL     1       0.415  -7.703 -29.256  1.00  0.00    -0.388 NA
HETATM   34  C2  UNL     1      -0.633  -7.268 -29.991  1.00  0.00     0.286 C
HETATM   35  C1  UNL     1      -0.650  -5.796 -30.440  1.00  0.00     0.135 C
HETATM   36  O1  UNL     1      -1.651  -7.895 -30.389  1.00  0.00    -0.258 OA
ENDBRANCH  32  33
ENDBRANCH  31  32
ENDBRANCH  30  31
ENDBRANCH  29  30
ENDBRANCH  28  29
BRANCH  28  37
HETATM   37  N2  UNL     1       4.647 -12.816 -30.466  1.00  0.00    -0.075 N
ATOM     38  H23 UNL     1       4.683 -13.805 -30.219  1.00  0.00     0.274 HD
ATOM     39  H22 UNL     1       3.787 -12.855 -31.013  1.00  0.00     0.274 HD
ATOM     40  H21 UNL     1       5.456 -12.500 -31.001  1.00  0.00     0.274 HD
ENDBRANCH  28  37
ENDBRANCH  27  28
ENDBRANCH  24  27
ENDBRANCH  22  23
ENDBRANCH  21  22
ENDBRANCH  20  21
ENDBRANCH  18  20
ENDBRANCH   1  18
BRANCH   4  41
HETATM   41  O3  UNL     1       8.758 -14.742 -24.793  1.00  0.00    -0.349 OA
ATOM     42  H3  UNL     1       8.491 -15.226 -25.566  1.00  0.00     0.219 HD
ENDBRANCH   4  41
BRANCH   5  43
HETATM   43  C18 UNL     1       9.475 -15.471 -22.493  1.00  0.00    -0.010 C
HETATM   44  C19 UNL     1      10.062 -14.790 -21.358  1.00  0.00    -0.028 C
BRANCH  44  45
HETATM   45  C20 UNL     1       9.758 -15.130 -19.949  1.00  0.00     0.054 C
BRANCH  45  46
HETATM   46  C21 UNL     1       8.977 -13.909 -19.360  1.00  0.00     0.233 C
BRANCH  46  47
HETATM   47  N5  UNL     1       7.570 -14.163 -19.455  1.00  0.00    -0.079 N
ATOM     48  H53 UNL     1       7.170 -13.810 -20.325  1.00  0.00     0.274 HD
ATOM     49  H52 UNL     1       7.363 -15.152 -19.592  1.00  0.00     0.274 HD
ATOM     50  H51 UNL     1       7.105 -13.780 -18.632  1.00  0.00     0.274 HD
ENDBRANCH  46  47
ENDBRANCH  45  46
ENDBRANCH  44  45
ENDBRANCH   5  43
BRANCH  13  51
HETATM   51  C26 UNL     1       2.793 -14.710 -20.523  1.00  0.00     0.009 C
HETATM   52  C27 UNL     1       3.656 -13.956 -19.524  1.00  0.00     0.012 C
HETATM   53  C28 UNL     1       2.135 -13.639 -21.373  1.00  0.00     0.012 C
ENDBRANCH  13  51
TORSDOF 19
ENDMDL