MODEL 1
REMARK VINA RESULT: -9.007071106      0.000      0.000
REMARK  21 active torsions:
REMARK  status: ('A' for Active; 'I' for Inactive)
REMARK    1  A    between atoms: C2_2  and  C3_3
REMARK    2  A    between atoms: C3_3  and  C5_5
REMARK    3  A    between atoms: C5_5  and  N1_6
REMARK    4  A    between atoms: C5_5  and  C16_28
REMARK       I    between atoms: N1_6  and  C6_7
REMARK    5  A    between atoms: C6_7  and  C7_9
REMARK    6  A    between atoms: C7_9  and  N2_10
REMARK    7  A    between atoms: C7_9  and  C13_25
REMARK       I    between atoms: N2_10  and  C8_12
REMARK    8  A    between atoms: C8_12  and  C9_14
REMARK    9  A    between atoms: C9_14  and  N3_15
REMARK       I    between atoms: N3_15  and  C10_16
REMARK   10  A    between atoms: C10_16  and  C11_18
REMARK   11  A    between atoms: C11_18  and  N5_22
REMARK       I    between atoms: C16_28  and  N6_30
REMARK   12  A    between atoms: N6_30  and  C17_32
REMARK   13  A    between atoms: C17_32  and  C18_33
REMARK   14  A    between atoms: C17_32  and  C25_46
REMARK   15  A    between atoms: C18_33  and  O5_34
REMARK   16  A    between atoms: C18_33  and  N7_36
REMARK   17  A    between atoms: N7_36  and  C19_38
REMARK   18  A    between atoms: C19_38  and  C20_39
REMARK   19  A    between atoms: C19_38  and  C24_43
REMARK   20  A    between atoms: C20_39  and  C21_40
REMARK   21  A    between atoms: C25_46  and  C27_48
ROOT
HETATM    1  C5  UNL     1       5.554 -13.524 -24.219  1.00  0.00     0.159 C
ENDROOT
BRANCH   1   2
HETATM    2  C3  UNL     1       5.743 -12.449 -23.207  1.00  0.00     0.051 C
HETATM    3  C4  UNL     1       4.413 -11.735 -22.875  1.00  0.00     0.018 C
BRANCH   2   4
HETATM    4  C2  UNL     1       6.838 -11.481 -23.406  1.00  0.00     0.007 C
HETATM    5  C1  UNL     1       6.473 -10.120 -23.825  1.00  0.00     0.006 C
ENDBRANCH   2   4
ENDBRANCH   1   2
BRANCH   1   6
HETATM    6  N1  UNL     1       6.051 -13.307 -25.526  1.00  0.00    -0.367 NA
HETATM    7  C6  UNL     1       6.525 -13.107 -26.751  1.00  0.00     0.315 C
HETATM    8  O1  UNL     1       7.671 -13.536 -27.158  1.00  0.00    -0.255 OA
BRANCH   7   9
HETATM    9  C7  UNL     1       5.817 -12.352 -27.875  1.00  0.00     0.195 C
BRANCH   9  10
HETATM   10  N2  UNL     1       5.844 -10.986 -27.501  1.00  0.00    -0.341 N
HETATM   11  C8  UNL     1       6.121  -9.760 -28.026  1.00  0.00     0.271 C
HETATM   12  O2  UNL     1       6.462  -9.524 -29.178  1.00  0.00    -0.266 OA
ATOM     13  H2  UNL     1       5.566 -10.890 -26.525  1.00  0.00     0.163 HD
BRANCH  11  14
HETATM   14  C9  UNL     1       6.005  -8.528 -27.143  1.00  0.00     0.260 C
BRANCH  14  15
HETATM   15  N3  UNL     1       7.217  -7.954 -26.784  1.00  0.00    -0.371 NA
HETATM   16  C10 UNL     1       8.364  -7.400 -26.442  1.00  0.00     0.359 C
HETATM   17  O3  UNL     1       8.622  -6.147 -26.246  1.00  0.00    -0.248 OA
BRANCH  16  18
HETATM   18  C11 UNL     1       9.613  -8.206 -26.223  1.00  0.00     0.178 C
HETATM   19  N4  UNL     1      10.710  -7.594 -26.461  1.00  0.00    -0.380 N
ATOM     20  H42 UNL     1      10.715  -6.630 -26.794  1.00  0.00     0.158 HD
ATOM     21  H41 UNL     1      11.558  -8.142 -26.311  1.00  0.00     0.158 HD
BRANCH  18  22
HETATM   22  N5  UNL     1       9.606  -9.523 -25.767  1.00  0.00    -0.376 N
HETATM   23  C12 UNL     1       9.547 -10.632 -26.721  1.00  0.00     0.148 C
ATOM     24  H5  UNL     1       9.641  -9.714 -24.766  1.00  0.00     0.160 HD
ENDBRANCH  18  22
ENDBRANCH  16  18
ENDBRANCH  14  15
ENDBRANCH  11  14
ENDBRANCH   9  10
BRANCH   9  25
HETATM   25  C13 UNL     1       4.456 -12.996 -27.989  1.00  0.00     0.010 C
HETATM   26  C14 UNL     1       4.043 -13.315 -29.408  1.00  0.00     0.012 C
HETATM   27  C15 UNL     1       3.374 -12.115 -27.338  1.00  0.00     0.012 C
ENDBRANCH   9  25
ENDBRANCH   7   9
ENDBRANCH   1   6
BRANCH   1  28
HETATM   28  C16 UNL     1       5.841 -14.912 -23.669  1.00  0.00     0.279 C
HETATM   29  O4  UNL     1       5.543 -15.869 -24.453  1.00  0.00    -0.265 OA
HETATM   30  N6  UNL     1       6.361 -15.185 -22.464  1.00  0.00    -0.343 N
ATOM     31  H6  UNL     1       6.567 -14.301 -21.999  1.00  0.00     0.163 HD
BRANCH  30  32
HETATM   32  C17 UNL     1       6.741 -16.266 -21.569  1.00  0.00     0.163 C
BRANCH  32  33
HETATM   33  C18 UNL     1       5.550 -17.067 -21.316  1.00  0.00     0.135 C
BRANCH  33  34
HETATM   34  O5  UNL     1       5.746 -18.026 -20.458  1.00  0.00    -0.348 OA
ATOM     35  H5  UNL     1       5.862 -17.717 -19.567  1.00  0.00     0.219 HD
ENDBRANCH  33  34
BRANCH  33  36
HETATM   36  N7  UNL     1       4.270 -17.004 -21.824  1.00  0.00    -0.360 N
ATOM     37  H7  UNL     1       4.067 -17.446 -22.721  1.00  0.00     0.162 HD
BRANCH  36  38
HETATM   38  C19 UNL     1       3.205 -16.324 -21.112  1.00  0.00     0.173 C
BRANCH  38  39
HETATM   39  C20 UNL     1       3.456 -14.897 -20.809  1.00  0.00     0.038 C
BRANCH  39  40
HETATM   40  C21 UNL     1       3.434 -14.484 -19.385  1.00  0.00    -0.020 C
HETATM   41  C22 UNL     1       3.742 -12.956 -19.422  1.00  0.00     0.009 C
HETATM   42  C23 UNL     1       4.521 -15.050 -18.525  1.00  0.00     0.009 C
ENDBRANCH  39  40
ENDBRANCH  38  39
BRANCH  38  43
HETATM   43  C24 UNL     1       2.065 -16.287 -22.138  1.00  0.00     0.253 C
HETATM   44  N8  UNL     1       0.790 -16.745 -21.792  1.00  0.00    -0.060 NA
HETATM   45  O6  UNL     1       2.362 -15.835 -23.263  1.00  0.00    -0.275 OA
ENDBRANCH  38  43
ENDBRANCH  36  38
ENDBRANCH  33  36
ENDBRANCH  32  33
BRANCH  32  46
HETATM   46  C25 UNL     1       7.527 -15.698 -20.485  1.00  0.00     0.012 C
HETATM   47  C26 UNL     1       7.370 -14.168 -20.519  1.00  0.00     0.012 C
BRANCH  46  48
HETATM   48  C27 UNL     1       8.990 -15.939 -20.367  1.00  0.00     0.002 C
HETATM   49  C28 UNL     1       9.782 -14.710 -19.922  1.00  0.00     0.005 C
ENDBRANCH  46  48
ENDBRANCH  32  46
ENDBRANCH  30  32
ENDBRANCH   1  28
TORSDOF 21
ENDMDL