MODEL 3
REMARK VINA RESULT: -8.464433565      4.011      9.471
REMARK  21 active torsions:
REMARK  status: ('A' for Active; 'I' for Inactive)
REMARK    1  A    between atoms: C2_2  and  N1_4
REMARK    2  A    between atoms: N1_4  and  C4_6
REMARK    3  A    between atoms: C4_6  and  C5_7
REMARK    4  A    between atoms: C5_7  and  O1_8
REMARK    5  A    between atoms: C5_7  and  N2_10
REMARK    6  A    between atoms: N2_10  and  C6_12
REMARK    7  A    between atoms: C6_12  and  C7_13
REMARK       I    between atoms: C7_13  and  N3_15
REMARK    8  A    between atoms: N3_15  and  C8_17
REMARK    9  A    between atoms: C8_17  and  C10_19
REMARK       I    between atoms: C10_19  and  N4_21
REMARK   10  A    between atoms: N4_21  and  C11_23
REMARK   11  A    between atoms: C11_23  and  C12_24
REMARK   12  A    between atoms: C11_23  and  C15_29
REMARK   13  A    between atoms: C12_24  and  C13_25
REMARK   14  A    between atoms: C13_25  and  C14_26
REMARK       I    between atoms: C15_29  and  N6_31
REMARK   15  A    between atoms: N6_31  and  C16_33
REMARK   16  A    between atoms: C16_33  and  C18_35
REMARK   17  A    between atoms: C18_35  and  N7_36
REMARK   18  A    between atoms: C18_35  and  C27_46
REMARK   19  A    between atoms: N7_36  and  C19_38
REMARK   20  A    between atoms: C19_38  and  C20_39
REMARK   21  A    between atoms: C19_38  and  C23_42
ROOT
HETATM    1  C11 UNL     1       3.250 -16.170 -21.005  1.00  0.00     0.177 C
ENDROOT
BRANCH   1   2
HETATM    2  N4  UNL     1       2.446 -15.526 -21.996  1.00  0.00    -0.346 N
HETATM    3  C10 UNL     1       1.110 -15.918 -22.351  1.00  0.00     0.240 C
HETATM    4  O3  UNL     1       0.545 -16.882 -21.781  1.00  0.00    -0.271 OA
ATOM      5  H4  UNL     1       2.852 -14.730 -22.488  1.00  0.00     0.163 HD
BRANCH   3   6
HETATM    6  C8  UNL     1       0.368 -15.187 -23.400  1.00  0.00     0.172 C
HETATM    7  C9  UNL     1       1.225 -15.257 -24.667  1.00  0.00     0.042 C
BRANCH   6   8
HETATM    8  N3  UNL     1      -0.889 -15.817 -23.728  1.00  0.00    -0.347 N
HETATM    9  C7  UNL     1      -2.095 -15.281 -23.179  1.00  0.00     0.236 C
HETATM   10  O2  UNL     1      -2.041 -14.269 -22.415  1.00  0.00    -0.272 OA
ATOM     11  H3  UNL     1      -0.916 -16.630 -24.343  1.00  0.00     0.163 HD
BRANCH   9  12
HETATM   12  C6  UNL     1      -3.384 -15.904 -23.508  1.00  0.00     0.224 C
BRANCH  12  13
HETATM   13  N2  UNL     1      -3.989 -16.553 -22.348  1.00  0.00    -0.361 N
ATOM     14  H2  UNL     1      -4.750 -16.088 -21.853  1.00  0.00     0.162 HD
BRANCH  13  15
HETATM   15  C5  UNL     1      -3.541 -17.801 -21.903  1.00  0.00     0.151 C
BRANCH  15  16
HETATM   16  C4  UNL     1      -4.332 -18.978 -21.557  1.00  0.00     0.139 C
BRANCH  16  17
HETATM   17  N1  UNL     1      -4.738 -19.261 -20.262  1.00  0.00    -0.392 N
ATOM     18  H1  UNL     1      -4.776 -18.509 -19.574  1.00  0.00     0.159 HD
BRANCH  17  19
HETATM   19  C2  UNL     1      -5.098 -20.559 -19.884  1.00  0.00     0.072 C
HETATM   20  C1  UNL     1      -6.189 -20.689 -18.895  1.00  0.00     0.031 C
HETATM   21  C3  UNL     1      -5.418 -21.432 -21.116  1.00  0.00     0.031 C
ENDBRANCH  17  19
ENDBRANCH  16  17
ENDBRANCH  15  16
BRANCH  15  22
HETATM   22  O1  UNL     1      -2.249 -17.986 -21.773  1.00  0.00    -0.345 OA
ATOM     23  H1  UNL     1      -1.732 -17.236 -22.043  1.00  0.00     0.219 HD
ENDBRANCH  15  22
ENDBRANCH  13  15
ENDBRANCH  12  13
ENDBRANCH   9  12
ENDBRANCH   6   8
ENDBRANCH   3   6
ENDBRANCH   1   2
BRANCH   1  24
HETATM   24  C12 UNL     1       3.419 -15.272 -19.762  1.00  0.00     0.043 C
BRANCH  24  25
HETATM   25  C13 UNL     1       2.752 -13.936 -20.010  1.00  0.00     0.102 C
BRANCH  25  26
HETATM   26  C14 UNL     1       3.775 -12.866 -20.035  1.00  0.00     0.231 C
HETATM   27  N5  UNL     1       3.338 -11.545 -20.398  1.00  0.00    -0.062 NA
HETATM   28  O4  UNL     1       4.957 -13.116 -19.751  1.00  0.00    -0.277 OA
ENDBRANCH  25  26
ENDBRANCH  24  25
ENDBRANCH   1  24
BRANCH   1  29
HETATM   29  C15 UNL     1       4.614 -16.466 -21.491  1.00  0.00     0.240 C
HETATM   30  O5  UNL     1       4.724 -17.076 -22.587  1.00  0.00    -0.271 OA
HETATM   31  N6  UNL     1       5.798 -16.105 -20.802  1.00  0.00    -0.353 N
ATOM     32  H6  UNL     1       5.731 -15.611 -19.913  1.00  0.00     0.163 HD
BRANCH  31  33
HETATM   33  C16 UNL     1       7.094 -16.426 -21.338  1.00  0.00     0.103 C
HETATM   34  C17 UNL     1       7.777 -17.442 -20.459  1.00  0.00     0.034 C
BRANCH  33  35
HETATM   35  C18 UNL     1       7.957 -15.330 -21.815  1.00  0.00     0.106 C
BRANCH  35  36
HETATM   36  N7  UNL     1       7.724 -14.223 -22.492  1.00  0.00    -0.388 N
ATOM     37  H7  UNL     1       7.568 -13.446 -21.851  1.00  0.00     0.159 HD
BRANCH  36  38
HETATM   38  C19 UNL     1       7.624 -13.781 -23.814  1.00  0.00    -0.006 C
BRANCH  38  39
HETATM   39  C20 UNL     1       6.263 -13.395 -24.203  1.00  0.00     0.023 C
HETATM   40  C21 UNL     1       5.439 -12.628 -23.155  1.00  0.00     0.016 C
HETATM   41  C22 UNL     1       5.410 -14.531 -24.760  1.00  0.00     0.016 C
ENDBRANCH  38  39
BRANCH  38  42
HETATM   42  C23 UNL     1       8.800 -12.949 -24.240  1.00  0.00    -0.013 C
HETATM   43  C24 UNL     1       8.794 -12.196 -25.496  1.00  0.00     0.021 C
HETATM   44  C25 UNL     1      10.005 -13.927 -24.380  1.00  0.00     0.021 C
HETATM   45  C26 UNL     1       9.260 -11.990 -23.153  1.00  0.00     0.021 C
ENDBRANCH  38  42
ENDBRANCH  36  38
ENDBRANCH  35  36
BRANCH  35  46
HETATM   46  C27 UNL     1       8.769 -14.956 -20.524  1.00  0.00     0.002 C
HETATM   47  C28 UNL     1       8.327 -13.707 -19.877  1.00  0.00     0.011 C
HETATM   48  C29 UNL     1      10.258 -14.850 -20.897  1.00  0.00     0.011 C
ENDBRANCH  35  46
ENDBRANCH  33  35
ENDBRANCH  31  33
ENDBRANCH   1  29
TORSDOF 21
ENDMDL