MODEL 3
REMARK VINA RESULT: -6.374061846      4.034      9.578
REMARK  8 active torsions:
REMARK  status: ('A' for Active; 'I' for Inactive)
REMARK    1  A    between atoms: C2_2  and  C5_5
REMARK    2  A    between atoms: C5_5  and  N1_6
REMARK    3  A    between atoms: N2_9  and  C8_10
REMARK    4  A    between atoms: C8_10  and  C9_11
REMARK    5  A    between atoms: C9_11  and  C10_12
REMARK    6  A    between atoms: C10_12  and  C11_13
REMARK       I    between atoms: C11_13  and  N3_15
REMARK    7  A    between atoms: N3_15  and  C12_17
REMARK    8  A    between atoms: C15_21  and  C16_22
ROOT
HETATM    1  C11 UNL     1      33.547  96.810  27.396  1.00  0.00     0.222 C
HETATM    2  O1  UNL     1      33.186  95.626  27.479  1.00  0.00    -0.273 OA
HETATM    3  N3  UNL     1      34.449  97.361  28.328  1.00  0.00    -0.321 N
ATOM      4  H3  UNL     1      34.740  98.336  28.254  1.00  0.00     0.169 HD
ENDROOT
BRANCH   1   5
HETATM    5  C10 UNL     1      33.025  97.675  26.296  1.00  0.00     0.105 C
BRANCH   5   6
HETATM    6  C9  UNL     1      31.534  97.628  26.235  1.00  0.00     0.040 C
BRANCH   6   7
HETATM    7  C8  UNL     1      30.809  98.713  26.928  1.00  0.00     0.275 C
BRANCH   7   8
HETATM    8  N2  UNL     1      29.450  98.597  27.225  1.00  0.00     0.118 N
HETATM    9  C7  UNL     1      28.466  99.261  26.479  1.00  0.00     0.304 C
HETATM   10  C6  UNL     1      27.960  98.091  25.576  1.00  0.00     0.304 C
HETATM   11  N1  UNL     1      27.965  96.994  26.473  1.00  0.00     0.119 N
HETATM   12  C20 UNL     1      29.042  97.243  27.431  1.00  0.00     0.542 C
BRANCH  11  13
HETATM   13  C5  UNL     1      28.013  95.680  25.954  1.00  0.00     0.283 C
BRANCH  13  14
HETATM   14  C2  UNL     1      26.907  94.809  26.455  1.00  0.00    -0.025 C
HETATM   15  C1  UNL     1      25.774  95.485  27.128  1.00  0.00     0.016 C
HETATM   16  C3  UNL     1      26.400  93.965  25.272  1.00  0.00     0.016 C
HETATM   17  C4  UNL     1      27.467  93.746  27.434  1.00  0.00     0.016 C
ENDBRANCH  13  14
ENDBRANCH  11  13
ENDBRANCH   7   8
ENDBRANCH   6   7
ENDBRANCH   5   6
ENDBRANCH   1   5
BRANCH   3  18
HETATM   18  C12 UNL     1      34.947  96.535  29.376  1.00  0.00     0.093 A
HETATM   19  S1  UNL     1      36.457  95.687  29.314  1.00  0.00    -0.075 SA
HETATM   20  C13 UNL     1      36.417  94.940  30.824  1.00  0.00    -0.008 A
HETATM   21  C14 UNL     1      35.241  95.352  31.358  1.00  0.00    -0.027 A
HETATM   22  C19 UNL     1      37.169  94.024  31.769  1.00  0.00     0.047 C
HETATM   23  C15 UNL     1      34.464  96.188  30.608  1.00  0.00     0.070 A
HETATM   24  C17 UNL     1      35.154  94.699  32.726  1.00  0.00     0.041 C
HETATM   25  C18 UNL     1      36.088  93.545  32.672  1.00  0.00     0.010 C
BRANCH  23  26
HETATM   26  C16 UNL     1      33.146  96.745  31.037  1.00  0.00     0.268 C
HETATM   27  N4  UNL     1      33.111  97.555  32.211  1.00  0.00    -0.057 NA
HETATM   28  O2  UNL     1      32.094  96.542  30.431  1.00  0.00    -0.271 OA
ENDBRANCH  23  26
ENDBRANCH   3  18
TORSDOF 8
ENDMDL