MODEL 5
REMARK VINA RESULT: -5.847332710      2.674      8.150
REMARK  8 active torsions:
REMARK  status: ('A' for Active; 'I' for Inactive)
REMARK    1  A    between atoms: C2_2  and  C3_3
REMARK    2  A    between atoms: C8_9  and  C9_10
REMARK       I    between atoms: C9_10  and  N2_12
REMARK    3  A    between atoms: N2_12  and  C10_14
REMARK    4  A    between atoms: C11_16  and  C12_17
REMARK    5  A    between atoms: C17_22  and  C18_23
REMARK    6  A    between atoms: C18_23  and  O2_24
REMARK    7  A    between atoms: C18_23  and  C19_26
REMARK    8  A    between atoms: C19_26  and  N3_27
ROOT
HETATM    1  C10 UNL     1      34.053  96.660  29.595  1.00  0.00     0.086 A
HETATM    2  S1  UNL     1      33.622  95.969  31.183  1.00  0.00    -0.075 SA
HETATM    3  C11 UNL     1      35.044  95.195  31.562  1.00  0.00    -0.007 A
HETATM    4  C16 UNL     1      35.847  95.460  30.488  1.00  0.00     0.028 A
HETATM    5  C17 UNL     1      35.335  96.204  29.487  1.00  0.00     0.007 A
ENDROOT
BRANCH   1   6
HETATM    6  N2  UNL     1      33.107  97.365  28.844  1.00  0.00    -0.319 N
HETATM    7  C9  UNL     1      31.763  97.343  28.682  1.00  0.00     0.256 C
HETATM    8  O1  UNL     1      30.976  96.540  29.220  1.00  0.00    -0.271 OA
ATOM      9  H2  UNL     1      33.544  98.083  28.267  1.00  0.00     0.169 HD
BRANCH   7  10
HETATM   10  C8  UNL     1      31.090  98.329  27.815  1.00  0.00     0.314 C
HETATM   11  N1  UNL     1      31.178  98.145  26.383  1.00  0.00     0.103 N
HETATM   12  C4  UNL     1      30.175  97.159  25.922  1.00  0.00     0.282 C
HETATM   13  C5  UNL     1      30.494  99.440  26.049  1.00  0.00     0.279 C
HETATM   14  C3  UNL     1      28.843  97.901  25.818  1.00  0.00     0.041 C
HETATM   15  C6  UNL     1      29.170  99.080  26.722  1.00  0.00     0.026 C
HETATM   16  C7  UNL     1      29.618  98.520  28.045  1.00  0.00     0.053 C
BRANCH  14  17
HETATM   17  C2  UNL     1      27.687  97.141  26.287  1.00  0.00    -0.030 C
HETATM   18  C1  UNL     1      27.679  95.796  26.191  1.00  0.00     0.007 C
ENDBRANCH  14  17
ENDBRANCH   7  10
ENDBRANCH   1   6
BRANCH   5  19
HETATM   19  C18 UNL     1      36.227  96.560  28.309  1.00  0.00     0.182 C
BRANCH  19  20
HETATM   20  O2  UNL     1      36.331  98.019  28.465  1.00  0.00    -0.389 OA
ATOM     21  H2  UNL     1      37.210  98.103  28.816  1.00  0.00     0.210 HD
ENDBRANCH  19  20
BRANCH  19  22
HETATM   22  C19 UNL     1      37.620  96.129  28.300  1.00  0.00     0.307 C
BRANCH  22  23
HETATM   23  N3  UNL     1      38.310  95.378  27.345  1.00  0.00     0.082 N
HETATM   24  C20 UNL     1      37.883  93.929  27.459  1.00  0.00     0.309 C
HETATM   25  C21 UNL     1      39.749  95.313  27.848  1.00  0.00     0.309 C
ENDBRANCH  22  23
ENDBRANCH  19  22
ENDBRANCH   5  19
BRANCH   3  26
HETATM   26  C12 UNL     1      35.469  94.375  32.755  1.00  0.00    -0.018 C
HETATM   27  C13 UNL     1      34.713  93.075  32.783  1.00  0.00     0.020 C
HETATM   28  C14 UNL     1      36.957  94.063  32.537  1.00  0.00     0.020 C
HETATM   29  C15 UNL     1      35.373  95.161  34.013  1.00  0.00     0.020 C
ENDBRANCH   3  26
TORSDOF 8
ENDMDL