MODEL 3
REMARK VINA RESULT: -5.377042366      1.242      5.269
REMARK  9 active torsions:
REMARK  status: ('A' for Active; 'I' for Inactive)
REMARK    1  A    between atoms: C2_2  and  C3_3
REMARK    2  A    between atoms: C3_3  and  C4_4
REMARK    3  A    between atoms: C4_4  and  N1_5
REMARK       I    between atoms: N1_5  and  C5_7
REMARK    4  A    between atoms: C5_7  and  C6_9
REMARK    5  A    between atoms: C9_12  and  C10_13
REMARK       I    between atoms: C10_13  and  N2_15
REMARK    6  A    between atoms: N2_15  and  C11_17
REMARK    7  A    between atoms: N3_22  and  C15_23
REMARK    8  A    between atoms: C15_23  and  O4_24
REMARK    9  A    between atoms: C15_23  and  C16_26
ROOT
HETATM    1  C6  UNL     1      31.748  96.249  27.959  1.00  0.00     0.061 A
HETATM    2  C7  UNL     1      31.094  95.133  27.471  1.00  0.00    -0.023 A
HETATM    3  C8  UNL     1      29.834  95.281  26.688  1.00  0.00     0.050 C
HETATM    4  C9  UNL     1      31.654  93.888  27.635  1.00  0.00     0.107 A
HETATM    5  C14 UNL     1      32.894  93.817  28.297  1.00  0.00     0.270 A
HETATM    6  O3  UNL     1      33.311  92.652  28.393  1.00  0.00    -0.266 OA
HETATM    7  N3  UNL     1      33.563  94.875  28.782  1.00  0.00    -0.264 N
HETATM    8  C20 UNL     1      32.963  96.085  28.604  1.00  0.00     0.034 A
HETATM    9  C21 UNL     1      33.552  97.282  29.196  1.00  0.00     0.070 C
ENDROOT
BRANCH   1  10
HETATM   10  C5  UNL     1      31.061  97.515  27.793  1.00  0.00     0.254 C
HETATM   11  N1  UNL     1      31.317  98.516  26.855  1.00  0.00    -0.357 N
ATOM     12  H1  UNL     1      32.078  98.371  26.191  1.00  0.00     0.162 HD
HETATM   13  O1  UNL     1      30.091  97.745  28.602  1.00  0.00    -0.268 OA
BRANCH  11  14
HETATM   14  C4  UNL     1      30.571  99.736  26.769  1.00  0.00     0.123 C
BRANCH  14  15
HETATM   15  C3  UNL     1      29.619  99.725  25.592  1.00  0.00     0.019 C
BRANCH  15  16
HETATM   16  C2  UNL     1      28.191  99.534  26.050  1.00  0.00    -0.003 C
HETATM   17  C1  UNL     1      27.655  98.177  25.690  1.00  0.00     0.005 C
ENDBRANCH  15  16
ENDBRANCH  14  15
ENDBRANCH  11  14
ENDBRANCH   1  10
BRANCH   4  18
HETATM   18  C10 UNL     1      30.931  92.698  27.211  1.00  0.00     0.258 C
HETATM   19  O2  UNL     1      29.971  92.315  27.996  1.00  0.00    -0.267 OA
HETATM   20  N2  UNL     1      31.134  91.918  26.071  1.00  0.00    -0.352 N
ATOM     21  H2  UNL     1      31.873  92.184  25.420  1.00  0.00     0.163 HD
BRANCH  20  22
HETATM   22  C11 UNL     1      30.328  90.736  25.772  1.00  0.00     0.084 A
HETATM   23  C12 UNL     1      30.819  89.389  26.091  1.00  0.00     0.027 A
HETATM   24  C13 UNL     1      30.888  89.861  24.637  1.00  0.00     0.027 A
ENDBRANCH  20  22
ENDBRANCH   4  18
BRANCH   7  25
HETATM   25  C15 UNL     1      34.808  94.762  29.408  1.00  0.00     0.133 C
BRANCH  25  26
HETATM   26  O4  UNL     1      34.742  94.495  30.682  1.00  0.00    -0.348 OA
ATOM     27  H4  UNL     1      34.998  93.608  30.906  1.00  0.00     0.219 HD
ENDBRANCH  25  26
BRANCH  25  28
HETATM   28  C16 UNL     1      36.179  94.877  28.958  1.00  0.00     0.014 C
HETATM   29  C17 UNL     1      36.455  95.835  27.834  1.00  0.00     0.023 C
HETATM   30  C18 UNL     1      37.014  95.358  30.199  1.00  0.00     0.023 C
HETATM   31  C19 UNL     1      36.803  93.544  28.619  1.00  0.00     0.023 C
ENDBRANCH  25  28
ENDBRANCH   7  25
TORSDOF 9
ENDMDL