MODEL 1
REMARK VINA RESULT: -6.584259287      0.000      0.000
REMARK  7 active torsions:
REMARK  status: ('A' for Active; 'I' for Inactive)
REMARK    1  A    between atoms: N1_4  and  C4_5
REMARK    2  A    between atoms: C7_8  and  C8_9
REMARK    3  A    between atoms: C8_9  and  C9_10
REMARK    4  A    between atoms: C9_10  and  N2_11
REMARK    5  A    between atoms: C12_14  and  C13_15
REMARK    6  A    between atoms: C13_15  and  C14_16
REMARK    7  A    between atoms: C19_21  and  O1_22
ROOT
HETATM    1  C4  UNL     1      37.504  95.890  28.267  1.00  0.00     0.096 C
HETATM    2  C5  UNL     1      36.180  96.223  27.575  1.00  0.00     0.026 C
HETATM    3  C6  UNL     1      35.438  97.296  28.350  1.00  0.00     0.009 C
HETATM    4  C7  UNL     1      35.114  96.888  29.753  1.00  0.00     0.016 C
HETATM    5  C19 UNL     1      35.882  95.623  30.147  1.00  0.00     0.124 C
HETATM    6  C20 UNL     1      37.341  95.750  29.734  1.00  0.00     0.057 C
ENDROOT
BRANCH   4   7
HETATM    7  C8  UNL     1      33.626  96.535  29.831  1.00  0.00     0.037 C
BRANCH   7   8
HETATM    8  C9  UNL     1      33.343  95.148  29.333  1.00  0.00     0.273 C
BRANCH   8   9
HETATM    9  N2  UNL     1      32.180  95.178  28.452  1.00  0.00     0.088 N
HETATM   10  C10 UNL     1      30.963  95.210  29.254  1.00  0.00     0.272 C
HETATM   11  C11 UNL     1      30.037  96.349  28.911  1.00  0.00     0.035 C
HETATM   12  C12 UNL     1      29.742  96.230  27.439  1.00  0.00    -0.011 C
HETATM   13  C17 UNL     1      31.028  96.279  26.652  1.00  0.00     0.035 C
HETATM   14  C18 UNL     1      32.266  96.285  27.521  1.00  0.00     0.272 C
BRANCH  12  15
HETATM   15  C13 UNL     1      28.619  97.016  26.939  1.00  0.00     0.008 C
BRANCH  15  16
HETATM   16  C14 UNL     1      28.795  98.200  26.090  1.00  0.00    -0.022 C
HETATM   17  C15 UNL     1      27.555  98.623  25.300  1.00  0.00     0.009 C
HETATM   18  C16 UNL     1      29.433  99.401  26.697  1.00  0.00     0.009 C
ENDBRANCH  15  16
ENDBRANCH  12  15
ENDBRANCH   8   9
ENDBRANCH   7   8
ENDBRANCH   4   7
BRANCH   5  19
HETATM   19  O1  UNL     1      35.838  95.529  31.530  1.00  0.00    -0.395 OA
ATOM     20  H1  UNL     1      36.618  95.063  31.806  1.00  0.00     0.210 HD
ENDBRANCH   5  19
BRANCH   1  21
HETATM   21  N1  UNL     1      37.993  94.698  27.645  1.00  0.00    -0.304 N
HETATM   22  C3  UNL     1      37.361  93.537  27.721  1.00  0.00     0.108 A
HETATM   23  C2  UNL     1      37.876  92.398  27.090  1.00  0.00     0.022 A
HETATM   24  C1  UNL     1      37.190  91.088  27.173  1.00  0.00     0.056 C
HETATM   25  C22 UNL     1      39.045  92.476  26.383  1.00  0.00     0.256 A
HETATM   26  N3  UNL     1      39.680  93.668  26.313  1.00  0.00    -0.275 N
HETATM   27  O3  UNL     1      39.508  91.447  25.813  1.00  0.00    -0.267 OA
HETATM   28  C21 UNL     1      39.150  94.733  26.934  1.00  0.00     0.329 A
ATOM     29  H3  UNL     1      40.553  93.756  25.793  1.00  0.00     0.173 HD
HETATM   30  O2  UNL     1      39.737  95.853  26.876  1.00  0.00    -0.246 OA
ENDBRANCH   1  21
TORSDOF 7
ENDMDL