MODEL 5
REMARK VINA RESULT: -5.988152767      1.119      1.293
REMARK  9 active torsions:
REMARK  status: ('A' for Active; 'I' for Inactive)
REMARK    1  A    between atoms: C2_2  and  O1_3
REMARK    2  A    between atoms: O1_3  and  C3_4
REMARK    3  A    between atoms: C3_4  and  C4_6
REMARK    4  A    between atoms: C4_6  and  C5_7
REMARK    5  A    between atoms: C5_7  and  C6_8
REMARK    6  A    between atoms: C6_8  and  N1_9
REMARK    7  A    between atoms: N1_9  and  C7_11
REMARK    8  A    between atoms: C7_11  and  O3_12
REMARK    9  A    between atoms: C7_11  and  C8_14
ROOT
HETATM    1  C6  UNL     1      33.208  97.082  27.030  1.00  0.00     0.125 C
ENDROOT
BRANCH   1   2
HETATM    2  C5  UNL     1      32.683  97.373  28.393  1.00  0.00     0.071 C
BRANCH   2   3
HETATM    3  C4  UNL     1      32.860  96.225  29.321  1.00  0.00     0.239 C
HETATM    4  C17 UNL     1      33.237  94.993  28.384  1.00  0.00     0.321 C
HETATM    5  N2  UNL     1      33.413  93.847  29.190  1.00  0.00     0.088 N
HETATM    6  C18 UNL     1      33.331  92.672  28.332  1.00  0.00     0.310 C
HETATM    7  C19 UNL     1      32.664  93.665  30.348  1.00  0.00     0.299 C
HETATM    8  C20 UNL     1      32.259  94.910  31.104  1.00  0.00     0.264 C
HETATM    9  N3  UNL     1      31.776  95.834  30.101  1.00  0.00    -0.053 N
ATOM     10  H32 UNL     1      31.272  96.625  30.502  1.00  0.00     0.278 HD
ATOM     11  H31 UNL     1      31.009  95.451  29.548  1.00  0.00     0.278 HD
BRANCH   3  12
HETATM   12  C3  UNL     1      34.148  96.425  30.110  1.00  0.00     0.297 C
HETATM   13  O2  UNL     1      34.227  96.976  31.200  1.00  0.00    -0.262 OA
BRANCH  12  14
HETATM   14  O1  UNL     1      35.298  95.933  29.483  1.00  0.00    -0.320 OA
BRANCH  14  15
HETATM   15  C2  UNL     1      36.330  96.750  29.053  1.00  0.00     0.174 C
HETATM   16  C1  UNL     1      36.996  95.981  27.880  1.00  0.00     0.034 C
ENDBRANCH  14  15
ENDBRANCH  12  14
ENDBRANCH   3  12
ENDBRANCH   2   3
ENDBRANCH   1   2
BRANCH   1  17
HETATM   17  N1  UNL     1      32.335  97.286  25.936  1.00  0.00    -0.370 N
ATOM     18  H1  UNL     1      32.455  96.719  25.097  1.00  0.00     0.161 HD
BRANCH  17  19
HETATM   19  C7  UNL     1      31.318  98.235  25.969  1.00  0.00     0.147 C
BRANCH  19  20
HETATM   20  O3  UNL     1      31.733  99.463  25.867  1.00  0.00    -0.346 OA
ATOM     21  H3  UNL     1      31.601  99.984  26.650  1.00  0.00     0.219 HD
ENDBRANCH  19  20
BRANCH  19  22
HETATM   22  C8  UNL     1      29.853  98.011  26.087  1.00  0.00     0.028 A
HETATM   23  C9  UNL     1      29.083  99.110  25.668  1.00  0.00     0.066 A
HETATM   24  S1  UNL     1      27.493  98.584  25.730  1.00  0.00    -0.105 SA
HETATM   25  C10 UNL     1      27.761  96.983  26.277  1.00  0.00    -0.010 A
HETATM   26  C11 UNL     1      29.130  96.914  26.402  1.00  0.00    -0.030 A
HETATM   27  C16 UNL     1      26.651  95.982  26.510  1.00  0.00     0.046 C
HETATM   28  C12 UNL     1      29.826  95.669  26.972  1.00  0.00     0.040 C
HETATM   29  C13 UNL     1      28.786  94.678  27.466  1.00  0.00     0.005 C
HETATM   30  C14 UNL     1      28.136  93.962  26.293  1.00  0.00     0.001 C
HETATM   31  C15 UNL     1      26.874  94.662  25.884  1.00  0.00     0.005 C
ENDBRANCH  19  22
ENDBRANCH  17  19
ENDBRANCH   1  17
TORSDOF 9
ENDMDL