MODEL 4
REMARK VINA RESULT: -5.615942354      2.255      4.642
REMARK  10 active torsions:
REMARK  status: ('A' for Active; 'I' for Inactive)
REMARK    1  A    between atoms: C2_2  and  O1_5
REMARK    2  A    between atoms: O1_5  and  C5_6
REMARK       I    between atoms: C5_6  and  N1_8
REMARK    3  A    between atoms: C9_12  and  C10_13
REMARK    4  A    between atoms: C10_13  and  S1_14
REMARK    5  A    between atoms: S1_14  and  C11_15
REMARK    6  A    between atoms: C11_15  and  C12_16
REMARK    7  A    between atoms: C12_16  and  N2_17
REMARK       I    between atoms: N2_17  and  C13_19
REMARK    8  A    between atoms: C13_19  and  C14_21
REMARK    9  A    between atoms: C14_21  and  O4_23
REMARK   10  A    between atoms: C14_21  and  C16_25
ROOT
HETATM    1  S1  UNL     1      29.675  93.532  29.017  1.00  0.00    -0.167 SA
ENDROOT
BRANCH   1   2
HETATM    2  C10 UNL     1      29.282  92.811  27.401  1.00  0.00     0.080 C
BRANCH   2   3
HETATM    3  C9  UNL     1      28.517  93.783  26.547  1.00  0.00     0.013 C
HETATM    4  C8  UNL     1      27.063  93.479  26.670  1.00  0.00     0.009 C
HETATM    5  C7  UNL     1      26.155  94.532  26.083  1.00  0.00     0.020 C
HETATM    6  C6  UNL     1      26.465  95.835  26.832  1.00  0.00     0.128 C
HETATM    7  N1  UNL     1      27.846  96.142  26.531  1.00  0.00    -0.328 N
HETATM    8  C5  UNL     1      28.141  97.394  25.929  1.00  0.00     0.363 C
HETATM    9  C20 UNL     1      28.881  95.207  26.832  1.00  0.00     0.133 C
HETATM   10  O2  UNL     1      27.238  98.230  25.655  1.00  0.00    -0.238 OA
BRANCH   8  11
HETATM   11  O1  UNL     1      29.443  97.772  25.604  1.00  0.00    -0.294 OA
BRANCH  11  12
HETATM   12  C2  UNL     1      30.216  98.630  26.408  1.00  0.00     0.061 C
HETATM   13  C1  UNL     1      29.762  98.642  27.844  1.00  0.00     0.046 C
HETATM   14  C3  UNL     1      31.701  98.368  26.290  1.00  0.00     0.046 C
HETATM   15  C4  UNL     1      29.991 100.047  25.867  1.00  0.00     0.046 C
ENDBRANCH  11  12
ENDBRANCH   8  11
ENDBRANCH   2   3
ENDBRANCH   1   2
BRANCH   1  16
HETATM   16  C11 UNL     1      31.453  93.829  29.186  1.00  0.00     0.093 C
BRANCH  16  17
HETATM   17  C12 UNL     1      31.670  95.298  29.357  1.00  0.00     0.133 C
BRANCH  17  18
HETATM   18  N2  UNL     1      32.906  95.730  28.716  1.00  0.00    -0.358 N
HETATM   19  C13 UNL     1      34.044  96.052  29.489  1.00  0.00     0.252 C
HETATM   20  O3  UNL     1      33.984  95.964  30.733  1.00  0.00    -0.270 OA
ATOM     21  H2  UNL     1      32.949  95.801  27.700  1.00  0.00     0.162 HD
BRANCH  19  22
HETATM   22  C14 UNL     1      35.301  96.491  28.849  1.00  0.00     0.141 C
HETATM   23  C15 UNL     1      34.952  96.978  27.462  1.00  0.00     0.057 C
BRANCH  22  24
HETATM   24  O4  UNL     1      35.872  97.550  29.578  1.00  0.00    -0.380 OA
ATOM     25  H4  UNL     1      36.225  98.202  28.985  1.00  0.00     0.211 HD
ENDBRANCH  22  24
BRANCH  22  26
HETATM   26  C16 UNL     1      36.339  95.389  28.806  1.00  0.00    -0.012 C
HETATM   27  C17 UNL     1      35.733  94.024  28.732  1.00  0.00     0.018 C
HETATM   28  C18 UNL     1      37.214  95.497  30.035  1.00  0.00     0.018 C
HETATM   29  C19 UNL     1      37.221  95.627  27.605  1.00  0.00     0.018 C
ENDBRANCH  22  26
ENDBRANCH  19  22
ENDBRANCH  17  18
ENDBRANCH  16  17
ENDBRANCH   1  16
TORSDOF 10
ENDMDL