MODEL 1
REMARK VINA RESULT: -6.293096750      0.000      0.000
REMARK  8 active torsions:
REMARK  status: ('A' for Active; 'I' for Inactive)
REMARK    1  A    between atoms: C2_2  and  N1_3
REMARK    2  A    between atoms: N1_3  and  C3_4
REMARK    3  A    between atoms: N1_3  and  C5_6
REMARK    4  A    between atoms: C5_6  and  O1_7
REMARK    5  A    between atoms: C5_6  and  C6_9
REMARK    6  A    between atoms: C7_10  and  N2_11
REMARK       I    between atoms: N2_11  and  C8_13
REMARK    7  A    between atoms: C8_13  and  C9_15
REMARK    8  A    between atoms: C9_15  and  N3_16
ROOT
HETATM    1  C6  UNL     1      30.848  96.394  27.025  1.00  0.00     0.056 A
HETATM    2  C7  UNL     1      31.856  97.195  27.485  1.00  0.00     0.092 A
HETATM    3  S1  UNL     1      31.297  98.794  27.037  1.00  0.00    -0.075 SA
HETATM    4  C15 UNL     1      29.842  98.378  26.295  1.00  0.00    -0.008 A
HETATM    5  C16 UNL     1      29.786  97.029  26.399  1.00  0.00    -0.028 A
HETATM    6  C17 UNL     1      28.446  96.451  25.948  1.00  0.00     0.041 C
HETATM    7  C18 UNL     1      27.375  97.455  26.303  1.00  0.00     0.005 C
HETATM    8  C19 UNL     1      27.553  98.631  25.367  1.00  0.00     0.005 C
HETATM    9  C20 UNL     1      28.870  99.300  25.629  1.00  0.00     0.047 C
ENDROOT
BRANCH   2  10
HETATM   10  N2  UNL     1      33.169  96.971  27.991  1.00  0.00    -0.319 N
HETATM   11  C8  UNL     1      33.612  97.060  29.285  1.00  0.00     0.251 C
HETATM   12  O2  UNL     1      32.942  97.342  30.342  1.00  0.00    -0.271 OA
ATOM     13  H2  UNL     1      33.871  96.710  27.299  1.00  0.00     0.169 HD
BRANCH  11  14
HETATM   14  C9  UNL     1      35.064  96.819  29.655  1.00  0.00     0.375 C
BRANCH  14  15
HETATM   15  N3  UNL     1      35.692  95.785  28.901  1.00  0.00     0.099 N
HETATM   16  C10 UNL     1      36.778  96.424  28.158  1.00  0.00     0.275 C
HETATM   17  C11 UNL     1      37.755  95.458  27.603  1.00  0.00     0.057 C
HETATM   18  C12 UNL     1      39.033  95.394  28.450  1.00  0.00     0.234 C
HETATM   19  N4  UNL     1      38.699  94.470  29.534  1.00  0.00    -0.073 N
HETATM   20  C13 UNL     1      37.636  95.120  30.295  1.00  0.00     0.262 C
ATOM     21  H42 UNL     1      38.456  93.533  29.212  1.00  0.00     0.277 HD
ATOM     22  H41 UNL     1      39.501  94.200  30.103  1.00  0.00     0.277 HD
HETATM   23  C14 UNL     1      36.272  94.759  29.783  1.00  0.00     0.300 C
ENDBRANCH  14  15
ENDBRANCH  11  14
ENDBRANCH   2  10
BRANCH   1  24
HETATM   24  C5  UNL     1      30.731  94.971  27.470  1.00  0.00     0.151 C
BRANCH  24  25
HETATM   25  N1  UNL     1      29.783  94.350  28.233  1.00  0.00    -0.362 N
BRANCH  25  26
HETATM   26  C2  UNL     1      29.414  94.954  29.534  1.00  0.00     0.120 C
HETATM   27  C1  UNL     1      28.005  95.454  29.522  1.00  0.00     0.026 C
ENDBRANCH  25  26
BRANCH  25  28
HETATM   28  C3  UNL     1      29.268  93.017  28.073  1.00  0.00     0.120 C
HETATM   29  C4  UNL     1      28.392  92.949  26.798  1.00  0.00     0.026 C
ENDBRANCH  25  28
ENDBRANCH  24  25
BRANCH  24  30
HETATM   30  O1  UNL     1      31.688  94.168  27.056  1.00  0.00    -0.345 OA
ATOM     31  H1  UNL     1      32.547  94.572  27.047  1.00  0.00     0.219 HD
ENDBRANCH  24  30
ENDBRANCH   1  24
TORSDOF 8
ENDMDL