MODEL 1
REMARK VINA RESULT: -6.740626760      0.000      0.000
REMARK  6 active torsions:
REMARK  status: ('A' for Active; 'I' for Inactive)
REMARK    1  A    between atoms: C7_7  and  C8_8
REMARK    2  A    between atoms: C8_8  and  N1_9
REMARK    3  A    between atoms: C8_8  and  C19_27
REMARK    4  A    between atoms: N1_9  and  S1_11
REMARK    5  A    between atoms: S1_11  and  C9_14
REMARK    6  A    between atoms: C12_17  and  N2_18
ROOT
HETATM    1  S1  UNL     1      35.574  96.494  28.391  1.00  0.00     0.261 S
HETATM    2  O1  UNL     1      36.303  97.678  28.977  1.00  0.00    -0.200 OA
HETATM    3  O2  UNL     1      36.316  96.022  27.142  1.00  0.00    -0.200 OA
ENDROOT
BRANCH   1   4
HETATM    4  N1  UNL     1      35.456  95.197  29.467  1.00  0.00    -0.300 N
ATOM      5  H1  UNL     1      34.978  95.265  30.364  1.00  0.00     0.173 HD
BRANCH   4   6
HETATM    6  C8  UNL     1      36.101  93.963  28.999  1.00  0.00     0.198 C
BRANCH   6   7
HETATM    7  C7  UNL     1      37.166  93.493  29.911  1.00  0.00     0.023 C
HETATM    8  C2  UNL     1      37.723  94.530  30.857  1.00  0.00    -0.012 C
HETATM    9  C1  UNL     1      38.305  93.752  32.051  1.00  0.00     0.010 C
HETATM   10  C3  UNL     1      38.800  95.364  30.295  1.00  0.00     0.005 C
HETATM   11  C4  UNL     1      39.192  95.136  28.877  1.00  0.00     0.000 C
HETATM   12  C5  UNL     1      39.172  93.707  28.428  1.00  0.00     0.000 C
HETATM   13  C6  UNL     1      38.339  92.814  29.289  1.00  0.00     0.007 C
ENDBRANCH   6   7
BRANCH   6  14
HETATM   14  C19 UNL     1      34.967  92.999  28.869  1.00  0.00     0.197 C
HETATM   15  O3  UNL     1      35.002  91.906  29.473  1.00  0.00    -0.646 OA
HETATM   16  O4  UNL     1      33.851  93.248  28.103  1.00  0.00    -0.646 OA
ENDBRANCH   6  14
ENDBRANCH   4   6
ENDBRANCH   1   4
BRANCH   1  17
HETATM   17  C9  UNL     1      34.010  97.018  27.851  1.00  0.00     0.095 A
HETATM   18  C10 UNL     1      33.780  97.396  26.552  1.00  0.00     0.030 A
HETATM   19  C11 UNL     1      32.500  97.806  26.184  1.00  0.00     0.050 A
HETATM   20  C12 UNL     1      31.473  97.837  27.103  1.00  0.00     0.102 A
HETATM   21  N3  UNL     1      31.741  97.461  28.362  1.00  0.00    -0.351 N
HETATM   22  C18 UNL     1      32.965  97.061  28.745  1.00  0.00     0.115 A
ATOM     23  H3  UNL     1      30.990  97.479  29.052  1.00  0.00     0.166 HD
BRANCH  20  24
HETATM   24  N2  UNL     1      30.175  98.261  26.704  1.00  0.00    -0.367 N
HETATM   25  C13 UNL     1      29.045  97.391  26.963  1.00  0.00     0.124 C
HETATM   26  C14 UNL     1      27.998  97.461  25.877  1.00  0.00     0.020 C
HETATM   27  C15 UNL     1      27.596  98.882  25.564  1.00  0.00     0.003 C
HETATM   28  C16 UNL     1      28.515  99.894  26.174  1.00  0.00     0.020 C
HETATM   29  C17 UNL     1      29.978  99.525  26.058  1.00  0.00     0.124 C
ENDBRANCH  20  24
ENDBRANCH   1  17
TORSDOF 6
ENDMDL