MODEL 4
REMARK VINA RESULT: -6.856494342      3.947      7.232
REMARK  8 active torsions:
REMARK  status: ('A' for Active; 'I' for Inactive)
REMARK       I    between atoms: C2_2  and  N1_4
REMARK    1  A    between atoms: N1_4  and  C3_6
REMARK    2  A    between atoms: C6_13  and  C7_14
REMARK    3  A    between atoms: C7_14  and  C8_15
REMARK    4  A    between atoms: C8_15  and  O3_16
REMARK    5  A    between atoms: O3_16  and  C9_17
REMARK    6  A    between atoms: C14_22  and  C15_23
REMARK    7  A    between atoms: C15_23  and  C16_24
REMARK    8  A    between atoms: C16_24  and  C17_25
ROOT
HETATM    1  C17 UNL     1      30.921  98.723  26.935  1.00  0.00     0.151 C
HETATM    2  C18 UNL     1      32.198  98.115  26.552  1.00  0.00     0.062 C
HETATM    3  N3  UNL     1      33.212  97.639  26.271  1.00  0.00    -0.197 NA
ENDROOT
BRANCH   1   4
HETATM    4  C16 UNL     1      29.912  97.795  27.466  1.00  0.00    -0.012 C
BRANCH   4   5
HETATM    5  C15 UNL     1      29.299  96.758  26.676  1.00  0.00     0.002 C
BRANCH   5   6
HETATM    6  C14 UNL     1      28.471  95.800  26.889  1.00  0.00    -0.052 C
HETATM    7  C9  UNL     1      28.576  94.578  25.965  1.00  0.00     0.150 C
HETATM    8  C10 UNL     1      27.250  94.555  25.236  1.00  0.00     0.036 C
HETATM    9  C11 UNL     1      26.069  94.503  26.139  1.00  0.00     0.003 C
HETATM   10  C12 UNL     1      26.076  95.449  27.280  1.00  0.00     0.004 C
HETATM   11  C13 UNL     1      27.455  95.635  27.901  1.00  0.00     0.037 C
BRANCH   7  12
HETATM   12  O3  UNL     1      28.702  93.496  26.831  1.00  0.00    -0.381 OA
BRANCH  12  13
HETATM   13  C8  UNL     1      30.005  93.129  27.058  1.00  0.00     0.173 C
BRANCH  13  14
HETATM   14  C7  UNL     1      30.351  92.998  28.515  1.00  0.00     0.072 C
BRANCH  14  15
HETATM   15  C6  UNL     1      31.438  94.001  28.813  1.00  0.00    -0.012 A
HETATM   16  S1  UNL     1      31.453  95.240  29.991  1.00  0.00    -0.087 SA
HETATM   17  C5  UNL     1      32.995  95.893  29.676  1.00  0.00     0.101 A
HETATM   18  C4  UNL     1      33.748  96.944  30.224  1.00  0.00     0.279 A
HETATM   19  C20 UNL     1      33.460  95.118  28.649  1.00  0.00     0.072 A
HETATM   20  N2  UNL     1      34.978  97.225  29.742  1.00  0.00    -0.155 N
HETATM   21  O2  UNL     1      33.230  97.589  31.158  1.00  0.00    -0.266 OA
HETATM   22  C3  UNL     1      35.394  96.446  28.742  1.00  0.00     0.688 A
ATOM     23  H2  UNL     1      35.551  97.981  30.117  1.00  0.00     0.187 HD
HETATM   24  N4  UNL     1      34.720  95.447  28.196  1.00  0.00    -0.190 N
ATOM     25  H4  UNL     1      35.137  94.915  27.432  1.00  0.00     0.184 HD
HETATM   26  C19 UNL     1      32.653  94.140  28.206  1.00  0.00     0.046 A
BRANCH  22  27
HETATM   27  N1  UNL     1      36.589  96.714  28.270  1.00  0.00    -0.160 N
HETATM   28  C2  UNL     1      37.585  95.738  28.150  1.00  0.00     0.231 C
HETATM   29  C1  UNL     1      38.729  95.761  29.107  1.00  0.00     0.118 C
HETATM   30  O1  UNL     1      37.545  94.835  27.252  1.00  0.00    -0.273 OA
ATOM     31  H1  UNL     1      36.799  97.669  27.981  1.00  0.00     0.187 HD
ENDBRANCH  22  27
ENDBRANCH  14  15
ENDBRANCH  13  14
ENDBRANCH  12  13
ENDBRANCH   7  12
ENDBRANCH   5   6
ENDBRANCH   4   5
ENDBRANCH   1   4
TORSDOF 8
ENDMDL