MODEL 2
REMARK VINA RESULT: -6.812531734      1.725      2.406
REMARK  9 active torsions:
REMARK  status: ('A' for Active; 'I' for Inactive)
REMARK    1  A    between atoms: O1_2  and  C2_3
REMARK    2  A    between atoms: C3_5  and  C4_6
REMARK    3  A    between atoms: C5_7  and  C6_8
REMARK    4  A    between atoms: C8_10  and  C9_11
REMARK    5  A    between atoms: C9_11  and  C10_12
REMARK    6  A    between atoms: C10_12  and  C11_13
REMARK    7  A    between atoms: C16_18  and  O3_19
REMARK    8  A    between atoms: C20_25  and  O5_26
REMARK    9  A    between atoms: C21_28  and  O6_29
ROOT
HETATM    1  C6  UNL     1      28.911  97.070  26.654  1.00  0.00     0.146 C
HETATM    2  C7  UNL     1      29.447  97.941  27.786  1.00  0.00     0.055 C
HETATM    3  C8  UNL     1      30.371  98.837  26.944  1.00  0.00     0.088 C
HETATM    4  C18 UNL     1      29.422  99.087  25.768  1.00  0.00     0.133 C
HETATM    5  C19 UNL     1      28.594 100.323  25.994  1.00  0.00     0.041 C
HETATM    6  O4  UNL     1      28.630  97.957  25.624  1.00  0.00    -0.376 OA
ENDROOT
BRANCH   1   7
HETATM    7  C5  UNL     1      27.736  96.270  27.060  1.00  0.00     0.003 C
HETATM    8  C4  UNL     1      27.183  95.432  26.237  1.00  0.00     0.006 C
BRANCH   8   9
HETATM    9  C3  UNL     1      26.003  94.571  26.516  1.00  0.00     0.178 C
HETATM   10  O2  UNL     1      26.125  94.050  27.777  1.00  0.00    -0.347 OA
HETATM   11  C2  UNL     1      26.160  92.674  27.726  1.00  0.00     0.291 C
HETATM   12  C21 UNL     1      26.545  92.315  26.301  1.00  0.00     0.207 C
HETATM   13  C20 UNL     1      25.858  93.428  25.548  1.00  0.00     0.184 C
BRANCH  11  14
HETATM   14  O1  UNL     1      27.107  92.100  28.567  1.00  0.00    -0.363 OA
HETATM   15  C1  UNL     1      28.382  92.546  28.294  1.00  0.00     0.204 C
ENDBRANCH  11  14
BRANCH  12  16
HETATM   16  O6  UNL     1      26.161  91.067  25.926  1.00  0.00    -0.383 OA
HETATM   17  C22 UNL     1      27.185  90.195  25.603  1.00  0.00     0.202 C
ENDBRANCH  12  16
BRANCH  13  18
HETATM   18  O5  UNL     1      26.439  93.621  24.324  1.00  0.00    -0.390 OA
ATOM     19  H5  UNL     1      26.300  94.479  23.941  1.00  0.00     0.210 HD
ENDBRANCH  13  18
ENDBRANCH   8   9
ENDBRANCH   1   7
BRANCH   3  20
HETATM   20  C9  UNL     1      31.596  98.353  26.556  1.00  0.00    -0.148 C
BRANCH  20  21
HETATM   21  C10 UNL     1      32.757  97.895  26.188  1.00  0.00     0.058 C
BRANCH  21  22
HETATM   22  C11 UNL     1      33.506  97.061  27.175  1.00  0.00    -0.048 A
HETATM   23  C12 UNL     1      32.845  96.040  27.677  1.00  0.00     0.008 A
HETATM   24  C13 UNL     1      33.486  95.176  28.641  1.00  0.00     0.006 A
HETATM   25  C14 UNL     1      34.716  95.391  29.028  1.00  0.00    -0.055 A
HETATM   26  C15 UNL     1      35.342  94.442  30.050  1.00  0.00     0.046 C
HETATM   27  C16 UNL     1      35.529  96.498  28.542  1.00  0.00     0.151 A
HETATM   28  C17 UNL     1      34.892  97.382  27.547  1.00  0.00     0.075 A
BRANCH  27  29
HETATM   29  O3  UNL     1      35.914  97.276  29.674  1.00  0.00    -0.391 OA
ATOM     30  H3  UNL     1      35.300  97.998  29.747  1.00  0.00     0.210 HD
ENDBRANCH  27  29
ENDBRANCH  21  22
ENDBRANCH  20  21
ENDBRANCH   3  20
TORSDOF 9
ENDMDL