MODEL 3
REMARK VINA RESULT: -5.782773439      1.592      6.347
REMARK  7 active torsions:
REMARK  status: ('A' for Active; 'I' for Inactive)
REMARK    1  A    between atoms: C2_2  and  C3_3
REMARK    2  A    between atoms: C3_3  and  O1_4
REMARK    3  A    between atoms: C9_11  and  O2_12
REMARK    4  A    between atoms: C15_19  and  C16_20
REMARK    5  A    between atoms: C15_19  and  C17_23
REMARK    6  A    between atoms: C16_20  and  O3_21
REMARK    7  A    between atoms: C17_23  and  O4_24
ROOT
HETATM    1  C1  UNL     1      12.253  33.940  17.664  1.00  0.00     0.018 C
HETATM    2  C2  UNL     1      12.240  34.330  16.195  1.00  0.00    -0.016 C
HETATM    3  C4  UNL     1      12.282  33.075  15.390  1.00  0.00     0.012 C
HETATM    4  C5  UNL     1      10.834  32.621  15.374  1.00  0.00     0.011 C
HETATM    5  C6  UNL     1       9.981  33.789  15.678  1.00  0.00    -0.033 C
HETATM    6  C7  UNL     1       9.243  33.575  16.983  1.00  0.00     0.016 C
HETATM    7  C8  UNL     1      10.949  34.975  15.801  1.00  0.00     0.034 C
HETATM    8  C9  UNL     1      11.073  35.503  14.389  1.00  0.00     0.132 C
HETATM    9  C10 UNL     1       9.725  35.201  13.730  1.00  0.00    -0.009 C
HETATM   10  C11 UNL     1       8.922  36.493  13.605  1.00  0.00     0.013 C
HETATM   11  C12 UNL     1       8.346  36.492  12.195  1.00  0.00     0.006 C
HETATM   12  C13 UNL     1       8.620  35.164  11.626  1.00  0.00    -0.001 C
HETATM   13  C14 UNL     1       9.927  34.821  12.309  1.00  0.00     0.018 C
HETATM   14  C15 UNL     1       7.611  34.100  11.693  1.00  0.00     0.006 C
HETATM   15  C18 UNL     1       7.209  33.699  13.090  1.00  0.00     0.014 C
HETATM   16  C19 UNL     1       8.312  33.114  13.914  1.00  0.00     0.007 C
HETATM   17  C20 UNL     1       9.029  34.222  14.601  1.00  0.00     0.005 C
ENDROOT
BRANCH  14  18
HETATM   18  C16 UNL     1       8.181  32.868  10.955  1.00  0.00     0.176 C
BRANCH  18  19
HETATM   19  O3  UNL     1       7.093  32.033  10.716  1.00  0.00    -0.400 OA
ATOM     20  H3  UNL     1       7.338  31.183  11.062  1.00  0.00     0.209 HD
ENDBRANCH  18  19
ENDBRANCH  14  18
BRANCH  14  21
HETATM   21  C17 UNL     1       6.349  34.420  10.954  1.00  0.00     0.176 C
BRANCH  21  22
HETATM   22  O4  UNL     1       5.171  34.181  11.622  1.00  0.00    -0.400 OA
ATOM     23  H4  UNL     1       4.387  34.565  11.248  1.00  0.00     0.209 HD
ENDBRANCH  21  22
ENDBRANCH  14  21
BRANCH   8  24
HETATM   24  O2  UNL     1      11.345  36.854  14.454  1.00  0.00    -0.394 OA
ATOM     25  H2  UNL     1      10.546  37.330  14.256  1.00  0.00     0.210 HD
ENDBRANCH   8  24
BRANCH   2  26
HETATM   26  C3  UNL     1      13.436  35.222  15.969  1.00  0.00     0.173 C
BRANCH  26  27
HETATM   27  O1  UNL     1      13.381  36.269  16.886  1.00  0.00    -0.400 OA
ATOM     28  H1  UNL     1      12.809  36.943  16.537  1.00  0.00     0.209 HD
ENDBRANCH  26  27
ENDBRANCH   2  26
TORSDOF 7
ENDMDL