MODEL 1
REMARK VINA RESULT: -6.171279704      0.000      0.000
REMARK  6 active torsions:
REMARK  status: ('A' for Active; 'I' for Inactive)
REMARK    1  A    between atoms: C2_2  and  C3_3
REMARK    2  A    between atoms: C12_14  and  O3_15
REMARK    3  A    between atoms: C15_19  and  C17_21
REMARK    4  A    between atoms: C17_21  and  O4_22
REMARK    5  A    between atoms: C18_24  and  C19_25
REMARK    6  A    between atoms: C19_25  and  O5_26
ROOT
HETATM    1  C1  UNL     1      13.865  36.136  17.897  1.00  0.00     0.027 C
HETATM    2  C2  UNL     1      13.278  34.847  17.295  1.00  0.00     0.049 C
HETATM    3  C4  UNL     1      14.289  34.389  16.271  1.00  0.00     0.021 C
HETATM    4  C5  UNL     1      13.796  34.911  14.963  1.00  0.00     0.007 C
HETATM    5  C6  UNL     1      12.299  35.174  15.087  1.00  0.00     0.003 C
HETATM    6  C7  UNL     1      12.004  35.124  16.540  1.00  0.00     0.009 C
HETATM    7  C8  UNL     1      10.808  34.385  16.991  1.00  0.00     0.006 C
HETATM    8  C9  UNL     1      10.354  33.263  16.151  1.00  0.00     0.001 C
HETATM    9  C10 UNL     1      11.247  33.027  14.957  1.00  0.00     0.013 C
HETATM   10  C11 UNL     1      11.519  34.295  14.159  1.00  0.00     0.001 A
HETATM   11  C12 UNL     1      10.189  34.823  13.746  1.00  0.00     0.128 A
HETATM   12  C13 UNL     1      10.162  34.957  12.261  1.00  0.00     0.039 A
HETATM   13  C14 UNL     1      11.408  34.371  11.715  1.00  0.00     0.011 A
HETATM   14  C15 UNL     1      12.761  34.986  11.978  1.00  0.00    -0.007 A
HETATM   15  C16 UNL     1      12.616  36.484  12.171  1.00  0.00     0.019 C
HETATM   16  C18 UNL     1      12.308  33.957  12.891  1.00  0.00     0.005 A
ENDROOT
BRANCH  11  17
HETATM   17  O3  UNL     1       9.774  35.969  14.433  1.00  0.00    -0.395 OA
ATOM     18  H3  UNL     1       9.223  35.804  15.189  1.00  0.00     0.210 HD
ENDBRANCH  11  17
BRANCH  16  19
HETATM   19  C19 UNL     1      12.603  32.499  12.786  1.00  0.00     0.175 C
BRANCH  19  20
HETATM   20  O5  UNL     1      13.865  32.030  12.908  1.00  0.00    -0.400 OA
ATOM     21  H5  UNL     1      14.460  32.385  13.557  1.00  0.00     0.209 HD
ENDBRANCH  19  20
ENDBRANCH  16  19
BRANCH  14  22
HETATM   22  C17 UNL     1      13.818  34.764  10.919  1.00  0.00     0.174 C
BRANCH  22  23
HETATM   23  O4  UNL     1      14.993  35.513  11.272  1.00  0.00    -0.400 OA
ATOM     24  H4  UNL     1      15.290  35.995  10.509  1.00  0.00     0.209 HD
ENDBRANCH  22  23
ENDBRANCH  14  22
BRANCH   2  25
HETATM   25  C3  UNL     1      13.235  33.883  18.374  1.00  0.00     0.181 C
HETATM   26  O1  UNL     1      13.490  32.636  18.227  1.00  0.00    -0.647 OA
HETATM   27  O2  UNL     1      12.910  34.224  19.679  1.00  0.00    -0.647 OA
ENDBRANCH   2  25
TORSDOF 6
ENDMDL