MODEL 4
REMARK VINA RESULT: -5.673356545      2.174      5.311
REMARK  7 active torsions:
REMARK  status: ('A' for Active; 'I' for Inactive)
REMARK    1  A    between atoms: O1_1  and  C1_3
REMARK    2  A    between atoms: C1_3  and  C2_4
REMARK    3  A    between atoms: C2_4  and  C3_5
REMARK    4  A    between atoms: C3_5  and  O2_6
REMARK    5  A    between atoms: C18_22  and  O3_23
REMARK    6  A    between atoms: C19_25  and  C20_26
REMARK    7  A    between atoms: C20_26  and  O4_27
ROOT
HETATM    1  C2  UNL     1      12.506  31.632  11.605  1.00  0.00     0.006 C
HETATM    2  C4  UNL     1      12.944  32.807  10.820  1.00  0.00     0.014 C
HETATM    3  C5  UNL     1      13.472  33.922  11.634  1.00  0.00     0.001 C
HETATM    4  C6  UNL     1      13.438  33.761  13.104  1.00  0.00     0.006 C
HETATM    5  C7  UNL     1      12.297  33.010  13.698  1.00  0.00     0.004 C
HETATM    6  C8  UNL     1      11.663  31.985  12.814  1.00  0.00     0.003 C
HETATM    7  C9  UNL     1      10.294  32.297  12.304  1.00  0.00     0.006 C
HETATM    8  C10 UNL     1       9.361  32.832  13.325  1.00  0.00     0.006 C
HETATM    9  C11 UNL     1      10.036  33.111  14.638  1.00  0.00    -0.001 C
HETATM   10  C12 UNL     1       9.015  33.816  15.475  1.00  0.00     0.006 C
HETATM   11  C13 UNL     1       9.503  34.178  16.857  1.00  0.00     0.008 C
HETATM   12  C14 UNL     1      10.852  33.590  17.006  1.00  0.00     0.021 C
HETATM   13  C15 UNL     1      11.607  34.062  18.242  1.00  0.00     0.008 C
HETATM   14  C16 UNL     1      13.054  33.799  17.877  1.00  0.00     0.004 C
HETATM   15  C17 UNL     1      13.034  33.326  16.409  1.00  0.00     0.039 C
HETATM   16  C18 UNL     1      11.821  34.057  15.941  1.00  0.00     0.072 C
HETATM   17  C19 UNL     1      11.352  33.829  14.529  1.00  0.00     0.020 C
ENDROOT
BRANCH   1  18
HETATM   18  C1  UNL     1      11.643  30.789  10.651  1.00  0.00     0.176 C
BRANCH  18  19
HETATM   19  O1  UNL     1      12.495  29.889   9.969  1.00  0.00    -0.400 OA
ATOM     20  H1  UNL     1      13.294  29.798  10.476  1.00  0.00     0.209 HD
ENDBRANCH  18  19
ENDBRANCH   1  18
BRANCH   1  21
HETATM   21  C3  UNL     1      13.617  30.704  12.044  1.00  0.00     0.176 C
BRANCH  21  22
HETATM   22  O2  UNL     1      13.148  29.677  12.827  1.00  0.00    -0.400 OA
ATOM     23  H2  UNL     1      12.703  29.997  13.602  1.00  0.00     0.209 HD
ENDBRANCH  21  22
ENDBRANCH   1  21
BRANCH  17  24
HETATM   24  C20 UNL     1      11.083  35.224  14.022  1.00  0.00     0.177 C
BRANCH  24  25
HETATM   25  O4  UNL     1      10.630  35.394  12.776  1.00  0.00    -0.400 OA
ATOM     26  H4  UNL     1       9.743  35.129  12.561  1.00  0.00     0.209 HD
ENDBRANCH  24  25
ENDBRANCH  17  24
BRANCH  16  27
HETATM   27  O3  UNL     1      12.089  35.413  16.240  1.00  0.00    -0.389 OA
ATOM     28  H3  UNL     1      12.522  35.762  15.469  1.00  0.00     0.210 HD
ENDBRANCH  16  27
TORSDOF 7
ENDMDL