MODEL 5
REMARK VINA RESULT: -5.962020805      2.086      3.451
REMARK  5 active torsions:
REMARK  status: ('A' for Active; 'I' for Inactive)
REMARK    1  A    between atoms: C2_2  and  C4_4
REMARK    2  A    between atoms: C14_17  and  O1_19
REMARK    3  A    between atoms: C16_21  and  C17_22
REMARK    4  A    between atoms: C17_22  and  C18_23
REMARK    5  A    between atoms: C19_26  and  O4_27
ROOT
HETATM    1  C4  UNL     1       9.104  35.661  13.290  1.00  0.00     0.014 C
HETATM    2  C5  UNL     1       9.047  35.828  14.789  1.00  0.00     0.009 C
HETATM    3  C6  UNL     1       9.003  34.591  15.587  1.00  0.00     0.001 C
HETATM    4  C7  UNL     1      10.252  33.799  15.701  1.00  0.00     0.003 C
HETATM    5  C8  UNL     1      11.494  34.375  15.170  1.00  0.00     0.043 C
HETATM    6  C9  UNL     1      11.908  34.093  13.795  1.00  0.00     0.164 A
HETATM    7  N1  UNL     1      12.622  35.275  13.271  1.00  0.00    -0.058 N
ATOM      8  H11 UNL     1      13.641  35.286  13.221  1.00  0.00     0.278 HD
ATOM      9  H12 UNL     1      12.653  36.144  13.804  1.00  0.00     0.278 HD
HETATM   10  C10 UNL     1      11.812  35.171  12.048  1.00  0.00     0.197 A
HETATM   11  C11 UNL     1      12.726  35.114  10.901  1.00  0.00     0.041 C
HETATM   12  C12 UNL     1      11.059  34.090  12.653  1.00  0.00     0.055 A
HETATM   13  C13 UNL     1       9.607  34.405  12.775  1.00  0.00     0.026 C
HETATM   14  C14 UNL     1      11.151  32.661  12.082  1.00  0.00     0.073 C
HETATM   15  C15 UNL     1      11.084  32.700  10.543  1.00  0.00     0.047 C
HETATM   16  C16 UNL     1      12.406  32.065  12.535  1.00  0.00     0.062 C
HETATM   17  C19 UNL     1      12.866  32.896  13.708  1.00  0.00     0.162 C
ENDROOT
BRANCH  16  18
HETATM   18  C17 UNL     1      12.601  30.626  12.696  1.00  0.00     0.123 C
BRANCH  18  19
HETATM   19  C18 UNL     1      13.533  29.856  11.929  1.00  0.00     0.173 C
HETATM   20  O2  UNL     1      13.321  28.852  11.215  1.00  0.00    -0.648 OA
HETATM   21  O3  UNL     1      14.895  30.243  11.948  1.00  0.00    -0.648 OA
ENDBRANCH  18  19
ENDBRANCH  16  18
BRANCH  14  22
HETATM   22  O1  UNL     1       9.979  31.973  12.422  1.00  0.00    -0.389 OA
ATOM     23  H1  UNL     1      10.070  31.070  12.143  1.00  0.00     0.210 HD
ENDBRANCH  14  22
BRANCH  17  24
HETATM   24  O4  UNL     1      12.868  32.193  14.915  1.00  0.00    -0.393 OA
ATOM     25  H4  UNL     1      13.321  31.365  14.811  1.00  0.00     0.210 HD
ENDBRANCH  17  24
BRANCH   1  26
HETATM   26  C2  UNL     1       7.677  35.779  12.766  1.00  0.00    -0.089 C
HETATM   27  C1  UNL     1       7.205  36.908  12.255  1.00  0.00     0.014 C
HETATM   28  C3  UNL     1       6.764  34.606  12.820  1.00  0.00     0.043 C
ENDBRANCH   1  26
TORSDOF 5
ENDMDL