MODEL 3
REMARK VINA RESULT: -6.340146904      1.417      1.591
REMARK  6 active torsions:
REMARK  status: ('A' for Active; 'I' for Inactive)
REMARK    1  A    between atoms: C7_8  and  C8_9
REMARK    2  A    between atoms: C8_9  and  O2_10
REMARK    3  A    between atoms: C8_9  and  C9_12
REMARK    4  A    between atoms: C9_12  and  O3_13
REMARK    5  A    between atoms: C9_12  and  C10_15
REMARK    6  A    between atoms: C10_15  and  O4_16
ROOT
HETATM    1  C1  UNL     1      12.199  36.391   8.702  1.00  0.00     0.010 C
HETATM    2  C2  UNL     1      12.900  36.159  10.023  1.00  0.00    -0.014 C
HETATM    3  C3  UNL     1      12.981  37.479  10.737  1.00  0.00     0.034 C
HETATM    4  C4  UNL     1      12.988  37.322  12.214  1.00  0.00     0.006 C
HETATM    5  C5  UNL     1      12.337  36.357  12.841  1.00  0.00     0.051 C
HETATM    6  O1  UNL     1      12.337  36.204  14.207  1.00  0.00    -0.348 OA
HETATM    7  C6  UNL     1      12.308  34.903  14.820  1.00  0.00     0.143 C
HETATM    8  C7  UNL     1      12.246  35.098  16.278  1.00  0.00     0.048 C
HETATM    9  C11 UNL     1      11.118  34.361  16.965  1.00  0.00     0.014 C
HETATM   10  C12 UNL     1       9.817  34.470  16.276  1.00  0.00    -0.017 C
HETATM   11  C13 UNL     1       8.901  33.370  16.831  1.00  0.00     0.010 C
HETATM   12  C14 UNL     1       9.857  34.380  14.797  1.00  0.00     0.016 C
HETATM   13  C15 UNL     1      11.221  34.077  14.216  1.00  0.00    -0.015 C
HETATM   14  C16 UNL     1      11.513  32.625  14.542  1.00  0.00     0.018 C
HETATM   15  C17 UNL     1      11.086  34.192  12.736  1.00  0.00     0.027 C
HETATM   16  C18 UNL     1      11.572  35.398  12.048  1.00  0.00     0.006 C
HETATM   17  C19 UNL     1      10.361  36.173  11.500  1.00  0.00     0.022 C
HETATM   18  C20 UNL     1      12.390  35.037  10.828  1.00  0.00     0.020 C
ENDROOT
BRANCH   8  19
HETATM   19  C8  UNL     1      13.493  34.670  17.018  1.00  0.00     0.155 C
BRANCH  19  20
HETATM   20  O2  UNL     1      13.366  33.317  17.292  1.00  0.00    -0.392 OA
ATOM     21  H2  UNL     1      13.400  33.215  18.236  1.00  0.00     0.210 HD
ENDBRANCH  19  20
BRANCH  19  22
HETATM   22  C9  UNL     1      13.820  35.487  18.226  1.00  0.00     0.170 C
BRANCH  22  23
HETATM   23  O3  UNL     1      15.076  36.084  17.948  1.00  0.00    -0.391 OA
ATOM     24  H3  UNL     1      14.972  37.003  18.163  1.00  0.00     0.210 HD
ENDBRANCH  22  23
BRANCH  22  25
HETATM   25  C10 UNL     1      14.011  34.682  19.468  1.00  0.00     0.198 C
BRANCH  25  26
HETATM   26  O4  UNL     1      12.820  34.225  20.023  1.00  0.00    -0.398 OA
ATOM     27  H4  UNL     1      12.920  33.434  20.540  1.00  0.00     0.209 HD
ENDBRANCH  25  26
ENDBRANCH  22  25
ENDBRANCH  19  22
ENDBRANCH   8  19
TORSDOF 6
ENDMDL