MODEL 3
REMARK VINA RESULT: -6.976094863      3.740      6.647
REMARK  5 active torsions:
REMARK  status: ('A' for Active; 'I' for Inactive)
REMARK    1  A    between atoms: C5_5  and  C6_6
REMARK    2  A    between atoms: C7_7  and  C8_8
REMARK    3  A    between atoms: C10_10  and  O1_11
REMARK    4  A    between atoms: C11_13  and  O2_14
REMARK    5  A    between atoms: C12_16  and  O3_17
ROOT
HETATM    1  C8  UNL     1      12.108  33.088  15.640  1.00  0.00     0.021 C
HETATM    2  C9  UNL     1      13.381  33.752  15.241  1.00  0.00     0.043 C
HETATM    3  C10 UNL     1      13.204  35.117  14.646  1.00  0.00     0.150 C
HETATM    4  C11 UNL     1      12.461  35.974  15.621  1.00  0.00     0.176 C
HETATM    5  C12 UNL     1      11.095  35.375  15.837  1.00  0.00     0.157 C
HETATM    6  C13 UNL     1      11.165  33.977  16.401  1.00  0.00    -0.012 C
HETATM    7  C14 UNL     1      11.567  34.001  17.862  1.00  0.00     0.018 C
HETATM    8  C15 UNL     1       9.763  33.406  16.339  1.00  0.00     0.018 C
ENDROOT
BRANCH   1   9
HETATM    9  C7  UNL     1      11.418  32.481  14.484  1.00  0.00    -0.024 C
HETATM   10  C6  UNL     1      12.019  31.640  13.610  1.00  0.00    -0.021 C
BRANCH  10  11
HETATM   11  C5  UNL     1      11.250  31.099  12.507  1.00  0.00     0.043 C
HETATM   12  C4  UNL     1      11.539  29.642  12.366  1.00  0.00    -0.042 C
HETATM   13  C3  UNL     1      11.617  28.436  12.883  1.00  0.00     0.034 C
HETATM   14  C19 UNL     1      12.210  29.554  11.024  1.00  0.00     0.051 C
HETATM   15  C2  UNL     1      12.012  27.451  11.892  1.00  0.00     0.019 C
HETATM   16  C1  UNL     1      12.201  26.139  12.068  1.00  0.00     0.042 C
HETATM   17  N1  UNL     1      12.151  28.191  10.687  1.00  0.00    -0.378 N
ATOM     18  H1  UNL     1      12.200  27.802   9.745  1.00  0.00     0.160 HD
HETATM   19  C18 UNL     1      11.448  30.539  10.204  1.00  0.00     0.040 C
HETATM   20  C20 UNL     1      13.687  29.924  11.104  1.00  0.00     0.043 C
HETATM   21  C16 UNL     1      11.355  31.711  11.177  1.00  0.00    -0.004 C
HETATM   22  C17 UNL     1      12.477  32.681  10.967  1.00  0.00     0.011 C
ENDBRANCH  10  11
ENDBRANCH   1   9
BRANCH   3  23
HETATM   23  O1  UNL     1      12.522  35.108  13.448  1.00  0.00    -0.393 OA
ATOM     24  H1  UNL     1      12.550  35.940  12.990  1.00  0.00     0.210 HD
ENDBRANCH   3  23
BRANCH   5  25
HETATM   25  O3  UNL     1      10.369  35.438  14.669  1.00  0.00    -0.392 OA
ATOM     26  H3  UNL     1      10.327  34.577  14.270  1.00  0.00     0.210 HD
ENDBRANCH   5  25
BRANCH   4  27
HETATM   27  O2  UNL     1      13.089  36.072  16.858  1.00  0.00    -0.390 OA
ATOM     28  H2  UNL     1      12.598  35.664  17.562  1.00  0.00     0.210 HD
ENDBRANCH   4  27
TORSDOF 5
ENDMDL