MODEL 4
REMARK VINA RESULT: -6.482922678      4.346      6.125
REMARK  5 active torsions:
REMARK  status: ('A' for Active; 'I' for Inactive)
REMARK    1  A    between atoms: N1_1  and  C1_4
REMARK    2  A    between atoms: C2_7  and  O1_8
REMARK    3  A    between atoms: C3_10  and  C4_11
REMARK    4  A    between atoms: C9_16  and  N3_17
REMARK    5  A    between atoms: C15_23  and  C16_24
ROOT
HETATM    1  C4  UNL     1      12.948  35.400  14.669  1.00  0.00    -0.015 C
HETATM    2  C5  UNL     1      11.987  36.549  14.582  1.00  0.00     0.039 C
HETATM    3  C6  UNL     1      10.811  36.243  13.689  1.00  0.00     0.004 C
HETATM    4  C7  UNL     1      10.719  34.954  12.999  1.00  0.00     0.003 C
HETATM    5  C8  UNL     1      11.819  33.965  13.082  1.00  0.00     0.040 C
HETATM    6  C9  UNL     1      13.111  34.673  13.378  1.00  0.00     0.254 C
ENDROOT
BRANCH   1   7
HETATM    7  C3  UNL     1      13.129  34.760  15.954  1.00  0.00     0.105 A
HETATM    8  C2  UNL     1      14.313  34.456  16.644  1.00  0.00     0.183 A
HETATM    9  N2  UNL     1      14.076  33.998  17.871  1.00  0.00    -0.169 N
HETATM   10  C1  UNL     1      12.721  33.993  18.015  1.00  0.00     0.678 A
ATOM     11  H2  UNL     1      14.768  33.711  18.564  1.00  0.00     0.186 HD
HETATM   12  N4  UNL     1      12.184  34.435  16.894  1.00  0.00    -0.188 N
ATOM     13  H4  UNL     1      11.180  34.527  16.744  1.00  0.00     0.184 HD
BRANCH   8  14
HETATM   14  O1  UNL     1      15.599  34.590  16.142  1.00  0.00    -0.344 OA
ATOM     15  H1  UNL     1      15.837  35.289  15.545  1.00  0.00     0.219 HD
ENDBRANCH   8  14
BRANCH  10  16
HETATM   16  N1  UNL     1      12.137  33.631  19.147  1.00  0.00    -0.234 N
ATOM     17  H12 UNL     1      12.027  32.703  19.555  1.00  0.00     0.174 HD
ATOM     18  H11 UNL     1      11.669  34.305  19.753  1.00  0.00     0.174 HD
ENDBRANCH  10  16
ENDBRANCH   1   7
BRANCH   6  19
HETATM   19  N3  UNL     1      13.336  35.714  12.367  1.00  0.00     0.098 N
HETATM   20  C10 UNL     1      13.405  35.276  11.011  1.00  0.00     0.284 C
HETATM   21  C11 UNL     1      14.665  36.111  10.841  1.00  0.00     0.013 C
HETATM   22  C12 UNL     1      15.774  35.323  10.233  1.00  0.00     0.013 C
HETATM   23  C17 UNL     1      14.453  37.459  10.236  1.00  0.00     0.024 C
HETATM   24  C18 UNL     1      14.706  36.145  12.354  1.00  0.00     0.284 C
HETATM   25  C13 UNL     1      15.710  35.336   8.730  1.00  0.00     0.002 C
HETATM   26  C14 UNL     1      15.453  36.683   8.140  1.00  0.00     0.011 C
HETATM   27  C15 UNL     1      14.222  37.322   8.751  1.00  0.00     0.048 C
BRANCH  27  28
HETATM   28  C16 UNL     1      13.994  38.630   8.095  1.00  0.00     0.235 C
HETATM   29  O2  UNL     1      14.860  39.477   8.270  1.00  0.00    -0.306 OA
ENDBRANCH  27  28
ENDBRANCH   6  19
TORSDOF 5
ENDMDL